data_image0
_cell_length_a       10.662
_cell_length_b       6.9165
_cell_length_c       21.335
_cell_angle_alpha    90
_cell_angle_beta     101.146
_cell_angle_gamma    90

_symmetry_space_group_name_H-M    "P 1"
_symmetry_int_tables_number       1

loop_
  _symmetry_equiv_pos_as_xyz
  'x, y, z'

loop_
  _atom_site_label
  _atom_site_occupancy
  _atom_site_fract_x
  _atom_site_fract_y
  _atom_site_fract_z
  _atom_site_thermal_displace_type
  _atom_site_B_iso_or_equiv
  _atom_site_type_symbol
  Ba1      1.0000 0.50000  0.90568  0.75000  Biso   1.000  Ba
  Ba2      1.0000 0.50000  0.09432  0.25000  Biso   1.000  Ba
  Cu1      1.0000 0.70008  0.79877  0.03715  Biso   1.000  Cu
  Cu2      1.0000 0.29992  0.79877  0.46285  Biso   1.000  Cu
  Cu3      1.0000 0.29992  0.20123  0.96285  Biso   1.000  Cu
  Cu4      1.0000 0.70008  0.20123  0.53715  Biso   1.000  Cu
  C1       1.0000 0.42100  0.72100  0.99610  Biso   1.000  C
  C2       1.0000 0.57900  0.72100  0.50390  Biso   1.000  C
  C3       1.0000 0.57900  0.27900  0.00390  Biso   1.000  C
  C4       1.0000 0.42100  0.27900  0.49610  Biso   1.000  C
  C5       1.0000 0.31090  0.68290  0.94990  Biso   1.000  C
  C6       1.0000 0.68910  0.68290  0.55010  Biso   1.000  C
  C7       1.0000 0.68910  0.31710  0.05010  Biso   1.000  C
  C8       1.0000 0.31090  0.31710  0.44990  Biso   1.000  C
  H1       1.0000 0.31560  0.68900  0.90690  Biso   1.000  H
  H2       1.0000 0.68440  0.68900  0.59310  Biso   1.000  H
  H3       1.0000 0.68440  0.31100  0.09310  Biso   1.000  H
  H4       1.0000 0.31560  0.31100  0.40690  Biso   1.000  H
  C9       1.0000 0.19590  0.63660  0.96670  Biso   1.000  C
  C10      1.0000 0.80410  0.63660  0.53330  Biso   1.000  C
  C11      1.0000 0.80410  0.36340  0.03330  Biso   1.000  C
  C12      1.0000 0.19590  0.36340  0.46670  Biso   1.000  C
  H5       1.0000 0.12450  0.61360  0.93500  Biso   1.000  H
  H6       1.0000 0.87550  0.61360  0.56500  Biso   1.000  H
  H7       1.0000 0.87550  0.38640  0.06500  Biso   1.000  H
  H8       1.0000 0.12450  0.38640  0.43500  Biso   1.000  H
  C13      1.0000 0.18560  0.62430  0.02890  Biso   1.000  C
  C14      1.0000 0.81440  0.62430  0.47110  Biso   1.000  C
  C15      1.0000 0.81440  0.37570  0.97110  Biso   1.000  C
  C16      1.0000 0.18560  0.37570  0.52890  Biso   1.000  C
  H9       1.0000 0.10820  0.59170  0.04010  Biso   1.000  H
  H10      1.0000 0.89180  0.59170  0.45990  Biso   1.000  H
  H11      1.0000 0.89180  0.40830  0.95990  Biso   1.000  H
  H12      1.0000 0.10820  0.40830  0.54010  Biso   1.000  H
  C17      1.0000 0.29220  0.66090  0.07540  Biso   1.000  C
  C18      1.0000 0.70780  0.66090  0.42460  Biso   1.000  C
  C19      1.0000 0.70780  0.33910  0.92460  Biso   1.000  C
  C20      1.0000 0.29220  0.33910  0.57540  Biso   1.000  C
  H13      1.0000 0.28560  0.65330  0.11820  Biso   1.000  H
  H14      1.0000 0.71440  0.65330  0.38180  Biso   1.000  H
  H15      1.0000 0.71440  0.34670  0.88180  Biso   1.000  H
  H16      1.0000 0.28560  0.34670  0.61820  Biso   1.000  H
  C21      1.0000 0.41030  0.70960  0.05980  Biso   1.000  C
  C22      1.0000 0.58970  0.70960  0.44020  Biso   1.000  C
  C23      1.0000 0.58970  0.29040  0.94020  Biso   1.000  C
  C24      1.0000 0.41030  0.29040  0.55980  Biso   1.000  C
  C25      1.0000 0.51460  0.74490  0.11800  Biso   1.000  C
  C26      1.0000 0.48540  0.74490  0.38200  Biso   1.000  C
  C27      1.0000 0.48540  0.25510  0.88200  Biso   1.000  C
  C28      1.0000 0.51460  0.25510  0.61800  Biso   1.000  C
  C29      1.0000 0.03590  0.78480  0.17110  Biso   1.000  C
  C30      1.0000 0.96410  0.78480  0.32890  Biso   1.000  C
  C31      1.0000 0.96410  0.21520  0.82890  Biso   1.000  C
  C32      1.0000 0.03590  0.21520  0.67110  Biso   1.000  C
  H17      1.0000 0.08970  0.74030  0.20780  Biso   1.000  H
  H18      1.0000 0.91030  0.74030  0.29220  Biso   1.000  H
  H19      1.0000 0.91030  0.25970  0.79220  Biso   1.000  H
  H20      1.0000 0.08970  0.25970  0.70780  Biso   1.000  H
  C33      1.0000 0.96140  0.94210  0.08400  Biso   1.000  C
  C34      1.0000 0.03860  0.94210  0.41600  Biso   1.000  C
  C35      1.0000 0.03860  0.05790  0.91600  Biso   1.000  C
  C36      1.0000 0.96140  0.05790  0.58400  Biso   1.000  C
  H21      1.0000 0.95630  0.02740  0.04990  Biso   1.000  H
  H22      1.0000 0.04370  0.02740  0.45010  Biso   1.000  H
  H23      1.0000 0.04370  0.97260  0.95010  Biso   1.000  H
  H24      1.0000 0.95630  0.97260  0.54990  Biso   1.000  H
  C37      1.0000 0.91690  0.72090  0.14700  Biso   1.000  C
  C38      1.0000 0.08310  0.72090  0.35300  Biso   1.000  C
  C39      1.0000 0.08310  0.27910  0.85300  Biso   1.000  C
  C40      1.0000 0.91690  0.27910  0.64700  Biso   1.000  C
  H25      1.0000 0.87360  0.62500  0.16480  Biso   1.000  H
  H26      1.0000 0.12640  0.62500  0.33520  Biso   1.000  H
  H27      1.0000 0.12640  0.37500  0.83520  Biso   1.000  H
  H28      1.0000 0.87360  0.37500  0.66480  Biso   1.000  H
  C41      1.0000 0.55190  0.78370  0.91832  Biso   1.000  C
  C42      1.0000 0.44810  0.78370  0.58168  Biso   1.000  C
  C43      1.0000 0.44810  0.21630  0.08168  Biso   1.000  C
  C44      1.0000 0.55190  0.21630  0.41832  Biso   1.000  C
  C45      1.0000 0.68900  0.83800  0.91134  Biso   1.000  C
  C46      1.0000 0.31100  0.83800  0.58866  Biso   1.000  C
  C47      1.0000 0.31100  0.16200  0.08866  Biso   1.000  C
  C48      1.0000 0.68900  0.16200  0.41134  Biso   1.000  C
  N1       1.0000 0.53870  0.76820  0.97887  Biso   1.000  N
  N2       1.0000 0.46130  0.76820  0.52113  Biso   1.000  N
  N3       1.0000 0.46130  0.23180  0.02113  Biso   1.000  N
  N4       1.0000 0.53870  0.23180  0.47887  Biso   1.000  N
  N5       1.0000 0.87040  0.82150  0.09186  Biso   1.000  N
  N6       1.0000 0.12960  0.82150  0.40814  Biso   1.000  N
  N7       1.0000 0.12960  0.17850  0.90814  Biso   1.000  N
  N8       1.0000 0.87040  0.17850  0.59186  Biso   1.000  N
  N9       1.0000 0.06230  0.92540  0.13173  Biso   1.000  N
  N10      1.0000 0.93770  0.92540  0.36827  Biso   1.000  N
  N11      1.0000 0.93770  0.07460  0.86827  Biso   1.000  N
  N12      1.0000 0.06230  0.07460  0.63173  Biso   1.000  N
  H29      1.0000 0.13150  0.99220  0.13650  Biso   1.000  H
  H30      1.0000 0.86850  0.99220  0.36350  Biso   1.000  H
  H31      1.0000 0.86850  0.00780  0.86350  Biso   1.000  H
  H32      1.0000 0.13150  0.00780  0.63650  Biso   1.000  H
  O1       1.0000 0.70970  0.86410  0.85734  Biso   1.000  O
  O2       1.0000 0.29030  0.86410  0.64266  Biso   1.000  O
  O3       1.0000 0.29030  0.13590  0.14266  Biso   1.000  O
  O4       1.0000 0.70970  0.13590  0.35734  Biso   1.000  O
  O5       1.0000 0.47360  0.76530  0.86823  Biso   1.000  O
  O6       1.0000 0.52640  0.76530  0.63177  Biso   1.000  O
  O7       1.0000 0.52640  0.23470  0.13177  Biso   1.000  O
  O8       1.0000 0.47360  0.23470  0.36823  Biso   1.000  O
  O9       1.0000 0.77240  0.85390  0.96263  Biso   1.000  O
  O10      1.0000 0.22760  0.85390  0.53737  Biso   1.000  O
  O11      1.0000 0.22760  0.14610  0.03737  Biso   1.000  O
  O12      1.0000 0.77240  0.14610  0.46263  Biso   1.000  O
  O13      1.0000 0.62930  0.76780  0.11137  Biso   1.000  O
  O14      1.0000 0.37070  0.76780  0.38863  Biso   1.000  O
  O15      1.0000 0.37070  0.23220  0.88863  Biso   1.000  O
  O16      1.0000 0.62930  0.23220  0.61137  Biso   1.000  O
  O17      1.0000 0.73230  0.03220  0.72527  Biso   1.000  O
  O18      1.0000 0.26770  0.03220  0.77473  Biso   1.000  O
  O19      1.0000 0.26770  0.96780  0.27473  Biso   1.000  O
  O20      1.0000 0.73230  0.96780  0.22527  Biso   1.000  O
  H33      1.0000 0.71140  0.09640  0.69090  Biso   1.000  H
  H34      1.0000 0.28860  0.09640  0.80910  Biso   1.000  H
  H35      1.0000 0.28860  0.90360  0.30910  Biso   1.000  H
  H36      1.0000 0.71140  0.90360  0.19090  Biso   1.000  H
  H37      1.0000 0.77680  0.93040  0.72460  Biso   1.000  H
  H38      1.0000 0.22320  0.93040  0.77540  Biso   1.000  H
  H39      1.0000 0.22320  0.06960  0.27540  Biso   1.000  H
  H40      1.0000 0.77680  0.06960  0.22460  Biso   1.000  H
  O21      1.0000 0.48630  0.75150  0.17116  Biso   1.000  O
  O22      1.0000 0.51370  0.75150  0.32884  Biso   1.000  O
  O23      1.0000 0.51370  0.24850  0.82884  Biso   1.000  O
  O24      1.0000 0.48630  0.24850  0.67116  Biso   1.000  O
  O25      1.0000 0.35810  0.52930  0.74630  Biso   1.000  O
  O26      1.0000 0.64190  0.52930  0.75370  Biso   1.000  O
  O27      1.0000 0.64190  0.47070  0.25370  Biso   1.000  O
  O28      1.0000 0.35810  0.47070  0.24630  Biso   1.000  O
  H41      1.0000 0.27940  0.55760  0.74210  Biso   1.000  H
  H42      1.0000 0.72060  0.55760  0.75790  Biso   1.000  H
  H43      1.0000 0.72060  0.44240  0.25790  Biso   1.000  H
  H44      1.0000 0.27940  0.44240  0.24210  Biso   1.000  H
  H45      1.0000 0.37730  0.43840  0.78040  Biso   1.000  H
  H46      1.0000 0.62270  0.43840  0.71960  Biso   1.000  H
  H47      1.0000 0.62270  0.56160  0.21960  Biso   1.000  H
  H48      1.0000 0.37730  0.56160  0.28040  Biso   1.000  H
  O29      1.0000 0.87400  0.68100  0.76710  Biso   1.000  O
  O30      1.0000 0.12600  0.68100  0.73290  Biso   1.000  O
  O31      1.0000 0.12600  0.31900  0.23290  Biso   1.000  O
  O32      1.0000 0.87400  0.31900  0.26710  Biso   1.000  O
  O33      1.0000 0.87130  0.71100  0.72290  Biso   1.000  O
  O34      1.0000 0.12870  0.71100  0.77710  Biso   1.000  O
  O35      1.0000 0.12870  0.28900  0.27710  Biso   1.000  O
  O36      1.0000 0.87130  0.28900  0.22290  Biso   1.000  O
