data_image0
_cell_length_a       16.331
_cell_length_b       16.331
_cell_length_c       7.56
_cell_angle_alpha    90
_cell_angle_beta     90
_cell_angle_gamma    90

_symmetry_space_group_name_H-M    "P 1"
_symmetry_int_tables_number       1

loop_
  _symmetry_equiv_pos_as_xyz
  'x, y, z'

loop_
  _atom_site_label
  _atom_site_occupancy
  _atom_site_fract_x
  _atom_site_fract_y
  _atom_site_fract_z
  _atom_site_thermal_displace_type
  _atom_site_B_iso_or_equiv
  _atom_site_type_symbol
  Cu1      1.0000 0.32646  0.40106  0.03389  Biso   1.000  Cu
  Cu2      1.0000 0.67354  0.59894  0.03389  Biso   1.000  Cu
  Cu3      1.0000 0.40106  0.67354  0.96611  Biso   1.000  Cu
  Cu4      1.0000 0.59894  0.32646  0.96611  Biso   1.000  Cu
  Cu5      1.0000 0.17354  0.90106  0.46611  Biso   1.000  Cu
  Cu6      1.0000 0.82646  0.09894  0.46611  Biso   1.000  Cu
  Cu7      1.0000 0.09894  0.17354  0.53389  Biso   1.000  Cu
  Cu8      1.0000 0.90106  0.82646  0.53389  Biso   1.000  Cu
  O1       1.0000 0.32350  0.28510  0.18840  Biso   1.000  O
  O2       1.0000 0.67650  0.71490  0.18840  Biso   1.000  O
  O3       1.0000 0.28510  0.67650  0.81160  Biso   1.000  O
  O4       1.0000 0.71490  0.32350  0.81160  Biso   1.000  O
  O5       1.0000 0.17650  0.78510  0.31160  Biso   1.000  O
  O6       1.0000 0.82350  0.21490  0.31160  Biso   1.000  O
  O7       1.0000 0.21490  0.17650  0.68840  Biso   1.000  O
  O8       1.0000 0.78510  0.82350  0.68840  Biso   1.000  O
  O9       1.0000 0.44200  0.38020  0.96670  Biso   1.000  O
  O10      1.0000 0.55800  0.61980  0.96670  Biso   1.000  O
  O11      1.0000 0.38020  0.55800  0.03330  Biso   1.000  O
  O12      1.0000 0.61980  0.44200  0.03330  Biso   1.000  O
  O13      1.0000 0.05800  0.88020  0.53330  Biso   1.000  O
  O14      1.0000 0.94200  0.11980  0.53330  Biso   1.000  O
  O15      1.0000 0.11980  0.05800  0.46670  Biso   1.000  O
  O16      1.0000 0.88020  0.94200  0.46670  Biso   1.000  O
  O17      1.0000 0.53650  0.36480  0.76120  Biso   1.000  O
  O18      1.0000 0.46350  0.63520  0.76120  Biso   1.000  O
  O19      1.0000 0.36480  0.46350  0.23880  Biso   1.000  O
  O20      1.0000 0.63520  0.53650  0.23880  Biso   1.000  O
  O21      1.0000 0.96350  0.86480  0.73880  Biso   1.000  O
  O22      1.0000 0.03650  0.13520  0.73880  Biso   1.000  O
  O23      1.0000 0.13520  0.96350  0.26120  Biso   1.000  O
  O24      1.0000 0.86480  0.03650  0.26120  Biso   1.000  O
  O25      1.0000 0.29050  0.34640  0.82250  Biso   1.000  O
  O26      1.0000 0.70950  0.65360  0.82250  Biso   1.000  O
  O27      1.0000 0.34640  0.70950  0.17750  Biso   1.000  O
  O28      1.0000 0.65360  0.29050  0.17750  Biso   1.000  O
  O29      1.0000 0.20950  0.84640  0.67750  Biso   1.000  O
  O30      1.0000 0.79050  0.15360  0.67750  Biso   1.000  O
  O31      1.0000 0.15360  0.20950  0.32250  Biso   1.000  O
  O32      1.0000 0.84640  0.79050  0.32250  Biso   1.000  O
  O33      1.0000 0.31740  0.29910  0.55510  Biso   1.000  O
  O34      1.0000 0.68260  0.70090  0.55510  Biso   1.000  O
  O35      1.0000 0.29910  0.68260  0.44490  Biso   1.000  O
  O36      1.0000 0.70090  0.31740  0.44490  Biso   1.000  O
  O37      1.0000 0.18260  0.79910  0.94490  Biso   1.000  O
  O38      1.0000 0.81740  0.20090  0.94490  Biso   1.000  O
  O39      1.0000 0.20090  0.18260  0.05510  Biso   1.000  O
  O40      1.0000 0.79910  0.81740  0.05510  Biso   1.000  O
  N1       1.0000 0.20890  0.44180  0.06210  Biso   1.000  N
  N2       1.0000 0.79110  0.55820  0.06210  Biso   1.000  N
  N3       1.0000 0.44180  0.79110  0.93790  Biso   1.000  N
  N4       1.0000 0.55820  0.20890  0.93790  Biso   1.000  N
  N5       1.0000 0.29110  0.94180  0.43790  Biso   1.000  N
  N6       1.0000 0.70890  0.05820  0.43790  Biso   1.000  N
  N7       1.0000 0.05820  0.29110  0.56210  Biso   1.000  N
  N8       1.0000 0.94180  0.70890  0.56210  Biso   1.000  N
  C1       1.0000 0.46500  0.38360  0.80780  Biso   1.000  C
  C2       1.0000 0.53500  0.61640  0.80780  Biso   1.000  C
  C3       1.0000 0.38360  0.53500  0.19220  Biso   1.000  C
  C4       1.0000 0.61640  0.46500  0.19220  Biso   1.000  C
  C5       1.0000 0.03500  0.88360  0.69220  Biso   1.000  C
  C6       1.0000 0.96500  0.11640  0.69220  Biso   1.000  C
  C7       1.0000 0.11640  0.03500  0.30780  Biso   1.000  C
  C8       1.0000 0.88360  0.96500  0.30780  Biso   1.000  C
  C9       1.0000 0.40310  0.40670  0.66470  Biso   1.000  C
  C10      1.0000 0.59690  0.59330  0.66470  Biso   1.000  C
  C11      1.0000 0.40670  0.59690  0.33530  Biso   1.000  C
  C12      1.0000 0.59330  0.40310  0.33530  Biso   1.000  C
  C13      1.0000 0.09690  0.90670  0.83530  Biso   1.000  C
  C14      1.0000 0.90310  0.09330  0.83530  Biso   1.000  C
  C15      1.0000 0.09330  0.09690  0.16470  Biso   1.000  C
  C16      1.0000 0.90670  0.90310  0.16470  Biso   1.000  C
  C17      1.0000 0.33230  0.34600  0.67950  Biso   1.000  C
  C18      1.0000 0.66770  0.65400  0.67950  Biso   1.000  C
  C19      1.0000 0.34600  0.66770  0.32050  Biso   1.000  C
  C20      1.0000 0.65400  0.33230  0.32050  Biso   1.000  C
  C21      1.0000 0.16770  0.84600  0.82050  Biso   1.000  C
  C22      1.0000 0.83230  0.15400  0.82050  Biso   1.000  C
  C23      1.0000 0.15400  0.16770  0.17950  Biso   1.000  C
  C24      1.0000 0.84600  0.83230  0.17950  Biso   1.000  C
  C25      1.0000 0.14980  0.38930  0.10400  Biso   1.000  C
  C26      1.0000 0.85020  0.61070  0.10400  Biso   1.000  C
  C27      1.0000 0.38930  0.85020  0.89600  Biso   1.000  C
  C28      1.0000 0.61070  0.14980  0.89600  Biso   1.000  C
  C29      1.0000 0.35020  0.88930  0.39600  Biso   1.000  C
  C30      1.0000 0.64980  0.11070  0.39600  Biso   1.000  C
  C31      1.0000 0.11070  0.35020  0.60400  Biso   1.000  C
  C32      1.0000 0.88930  0.64980  0.60400  Biso   1.000  C
  C33      1.0000 0.06870  0.40880  0.10780  Biso   1.000  C
  C34      1.0000 0.93130  0.59120  0.10780  Biso   1.000  C
  C35      1.0000 0.40880  0.93130  0.89220  Biso   1.000  C
  C36      1.0000 0.59120  0.06870  0.89220  Biso   1.000  C
  C37      1.0000 0.43130  0.90880  0.39220  Biso   1.000  C
  C38      1.0000 0.56870  0.09120  0.39220  Biso   1.000  C
  C39      1.0000 0.09120  0.43130  0.60780  Biso   1.000  C
  C40      1.0000 0.90880  0.56870  0.60780  Biso   1.000  C
  C41      1.0000 0.04380  0.48790  0.07440  Biso   1.000  C
  C42      1.0000 0.95620  0.51210  0.07440  Biso   1.000  C
  C43      1.0000 0.48790  0.95620  0.92560  Biso   1.000  C
  C44      1.0000 0.51210  0.04380  0.92560  Biso   1.000  C
  C45      1.0000 0.45620  0.98790  0.42560  Biso   1.000  C
  C46      1.0000 0.54380  0.01210  0.42560  Biso   1.000  C
  C47      1.0000 0.01210  0.45620  0.57440  Biso   1.000  C
  C48      1.0000 0.98790  0.54380  0.57440  Biso   1.000  C
  C49      1.0000 0.10630  0.54360  0.03410  Biso   1.000  C
  C50      1.0000 0.89370  0.45640  0.03410  Biso   1.000  C
  C51      1.0000 0.54360  0.89370  0.96590  Biso   1.000  C
  C52      1.0000 0.45640  0.10630  0.96590  Biso   1.000  C
  C53      1.0000 0.39370  0.04360  0.46590  Biso   1.000  C
  C54      1.0000 0.60630  0.95640  0.46590  Biso   1.000  C
  C55      1.0000 0.95640  0.39370  0.53410  Biso   1.000  C
  C56      1.0000 0.04360  0.60630  0.53410  Biso   1.000  C
  C57      1.0000 0.18630  0.51920  0.03030  Biso   1.000  C
  C58      1.0000 0.81370  0.48080  0.03030  Biso   1.000  C
  C59      1.0000 0.51920  0.81370  0.96970  Biso   1.000  C
  C60      1.0000 0.48080  0.18630  0.96970  Biso   1.000  C
  C61      1.0000 0.31370  0.01920  0.46970  Biso   1.000  C
  C62      1.0000 0.68630  0.98080  0.46970  Biso   1.000  C
  C63      1.0000 0.98080  0.31370  0.53030  Biso   1.000  C
  C64      1.0000 0.01920  0.68630  0.53030  Biso   1.000  C
  H1       1.0000 0.10600  0.59600  0.01800  Biso   1.000  H
  H2       1.0000 0.89400  0.40400  0.01800  Biso   1.000  H
  H3       1.0000 0.59600  0.89400  0.98200  Biso   1.000  H
  H4       1.0000 0.40400  0.10600  0.98200  Biso   1.000  H
  H5       1.0000 0.39400  0.09600  0.48200  Biso   1.000  H
  H6       1.0000 0.60600  0.90400  0.48200  Biso   1.000  H
  H7       1.0000 0.90400  0.39400  0.51800  Biso   1.000  H
  H8       1.0000 0.09600  0.60600  0.51800  Biso   1.000  H
  H9       1.0000 0.41200  0.41700  0.53000  Biso   1.000  H
  H10      1.0000 0.58800  0.58300  0.53000  Biso   1.000  H
  H11      1.0000 0.41700  0.58800  0.47000  Biso   1.000  H
  H12      1.0000 0.58300  0.41200  0.47000  Biso   1.000  H
  H13      1.0000 0.08800  0.91700  0.97000  Biso   1.000  H
  H14      1.0000 0.91200  0.08300  0.97000  Biso   1.000  H
  H15      1.0000 0.08300  0.08800  0.03000  Biso   1.000  H
  H16      1.0000 0.91700  0.91200  0.03000  Biso   1.000  H
  H17      1.0000 0.03600  0.35600  0.06000  Biso   1.000  H
  H18      1.0000 0.96400  0.64400  0.06000  Biso   1.000  H
  H19      1.0000 0.35600  0.96400  0.94000  Biso   1.000  H
  H20      1.0000 0.64400  0.03600  0.94000  Biso   1.000  H
  H21      1.0000 0.46400  0.85600  0.44000  Biso   1.000  H
  H22      1.0000 0.53600  0.14400  0.44000  Biso   1.000  H
  H23      1.0000 0.14400  0.46400  0.56000  Biso   1.000  H
  H24      1.0000 0.85600  0.53600  0.56000  Biso   1.000  H
  H25      1.0000 0.37000  0.45800  0.69500  Biso   1.000  H
  H26      1.0000 0.63000  0.54200  0.69500  Biso   1.000  H
  H27      1.0000 0.45800  0.63000  0.30500  Biso   1.000  H
  H28      1.0000 0.54200  0.37000  0.30500  Biso   1.000  H
  H29      1.0000 0.13000  0.95800  0.80500  Biso   1.000  H
  H30      1.0000 0.87000  0.04200  0.80500  Biso   1.000  H
  H31      1.0000 0.04200  0.13000  0.19500  Biso   1.000  H
  H32      1.0000 0.95800  0.87000  0.19500  Biso   1.000  H
  H33      1.0000 0.15600  0.33700  0.13200  Biso   1.000  H
  H34      1.0000 0.84400  0.66300  0.13200  Biso   1.000  H
  H35      1.0000 0.33700  0.84400  0.86800  Biso   1.000  H
  H36      1.0000 0.66300  0.15600  0.86800  Biso   1.000  H
  H37      1.0000 0.34400  0.83700  0.36800  Biso   1.000  H
  H38      1.0000 0.65600  0.16300  0.36800  Biso   1.000  H
  H39      1.0000 0.16300  0.34400  0.63200  Biso   1.000  H
  H40      1.0000 0.83700  0.65600  0.63200  Biso   1.000  H
  H41      1.0000 0.23000  0.55100  0.02400  Biso   1.000  H
  H42      1.0000 0.77000  0.44900  0.02400  Biso   1.000  H
  H43      1.0000 0.55100  0.77000  0.97600  Biso   1.000  H
  H44      1.0000 0.44900  0.23000  0.97600  Biso   1.000  H
  H45      1.0000 0.27000  0.05100  0.47600  Biso   1.000  H
  H46      1.0000 0.73000  0.94900  0.47600  Biso   1.000  H
  H47      1.0000 0.94900  0.27000  0.52400  Biso   1.000  H
  H48      1.0000 0.05100  0.73000  0.52400  Biso   1.000  H
