data_image0
_cell_length_a       15.804
_cell_length_b       7.4194
_cell_length_c       9.759
_cell_angle_alpha    90
_cell_angle_beta     106.924
_cell_angle_gamma    90

_symmetry_space_group_name_H-M    "P 1"
_symmetry_int_tables_number       1

loop_
  _symmetry_equiv_pos_as_xyz
  'x, y, z'

loop_
  _atom_site_label
  _atom_site_occupancy
  _atom_site_fract_x
  _atom_site_fract_y
  _atom_site_fract_z
  _atom_site_thermal_displace_type
  _atom_site_B_iso_or_equiv
  _atom_site_type_symbol
  Cu1      1.0000 0.11950  0.40319  0.78578  Biso   1.000  Cu
  Cu2      1.0000 0.88050  0.90319  0.71422  Biso   1.000  Cu
  Cu3      1.0000 0.88050  0.59681  0.21422  Biso   1.000  Cu
  Cu4      1.0000 0.11950  0.09681  0.28578  Biso   1.000  Cu
  O1       1.0000 0.20190  0.37810  0.67450  Biso   1.000  O
  O2       1.0000 0.79810  0.87810  0.82550  Biso   1.000  O
  O3       1.0000 0.79810  0.62190  0.32550  Biso   1.000  O
  O4       1.0000 0.20190  0.12190  0.17450  Biso   1.000  O
  O5       1.0000 0.02350  0.55190  0.83230  Biso   1.000  O
  O6       1.0000 0.97650  0.05190  0.66770  Biso   1.000  O
  O7       1.0000 0.97650  0.44810  0.16770  Biso   1.000  O
  O8       1.0000 0.02350  0.94810  0.33230  Biso   1.000  O
  O9       1.0000 0.97766  0.82340  0.88720  Biso   1.000  O
  O10      1.0000 0.02234  0.32340  0.61280  Biso   1.000  O
  O11      1.0000 0.02234  0.17660  0.11280  Biso   1.000  O
  O12      1.0000 0.97766  0.67660  0.38720  Biso   1.000  O
  O13      1.0000 0.12660  0.13880  0.88440  Biso   1.000  O
  O14      1.0000 0.87340  0.63880  0.61560  Biso   1.000  O
  O15      1.0000 0.87340  0.86120  0.11560  Biso   1.000  O
  O16      1.0000 0.12660  0.36120  0.38440  Biso   1.000  O
  N1       1.0000 0.20880  0.51540  0.94750  Biso   1.000  N
  N2       1.0000 0.79120  0.01540  0.55250  Biso   1.000  N
  N3       1.0000 0.79120  0.48460  0.05250  Biso   1.000  N
  N4       1.0000 0.20880  0.98460  0.44750  Biso   1.000  N
  C1       1.0000 0.28300  0.44530  0.70210  Biso   1.000  C
  C2       1.0000 0.71700  0.94530  0.79790  Biso   1.000  C
  C3       1.0000 0.71700  0.55470  0.29790  Biso   1.000  C
  C4       1.0000 0.28300  0.05470  0.20210  Biso   1.000  C
  C5       1.0000 0.32810  0.53460  0.83360  Biso   1.000  C
  C6       1.0000 0.67190  0.03460  0.66640  Biso   1.000  C
  C7       1.0000 0.67190  0.46540  0.16640  Biso   1.000  C
  C8       1.0000 0.32810  0.96540  0.33360  Biso   1.000  C
  C9       1.0000 0.41510  0.60160  0.85440  Biso   1.000  C
  C10      1.0000 0.58490  0.10160  0.64560  Biso   1.000  C
  C11      1.0000 0.58490  0.39840  0.14560  Biso   1.000  C
  C12      1.0000 0.41510  0.89840  0.35440  Biso   1.000  C
  H1       1.0000 0.44490  0.65820  0.94260  Biso   1.000  H
  H2       1.0000 0.55510  0.15820  0.55740  Biso   1.000  H
  H3       1.0000 0.55510  0.34180  0.05740  Biso   1.000  H
  H4       1.0000 0.44490  0.84180  0.44260  Biso   1.000  H
  C13      1.0000 0.45780  0.58630  0.74890  Biso   1.000  C
  C14      1.0000 0.54220  0.08630  0.75110  Biso   1.000  C
  C15      1.0000 0.54220  0.41370  0.25110  Biso   1.000  C
  C16      1.0000 0.45780  0.91370  0.24890  Biso   1.000  C
  H5       1.0000 0.51530  0.63470  0.76280  Biso   1.000  H
  H6       1.0000 0.48470  0.13470  0.73720  Biso   1.000  H
  H7       1.0000 0.48470  0.36530  0.23720  Biso   1.000  H
  H8       1.0000 0.51530  0.86530  0.26280  Biso   1.000  H
  C17      1.0000 0.41340  0.49720  0.62120  Biso   1.000  C
  C18      1.0000 0.58660  0.99720  0.87880  Biso   1.000  C
  C19      1.0000 0.58660  0.50280  0.37880  Biso   1.000  C
  C20      1.0000 0.41340  0.00280  0.12120  Biso   1.000  C
  H9       1.0000 0.44230  0.48320  0.54910  Biso   1.000  H
  H10      1.0000 0.55770  0.98320  0.95090  Biso   1.000  H
  H11      1.0000 0.55770  0.51680  0.45090  Biso   1.000  H
  H12      1.0000 0.44230  0.01680  0.04910  Biso   1.000  H
  C21      1.0000 0.32850  0.42910  0.59700  Biso   1.000  C
  C22      1.0000 0.67150  0.92910  0.90300  Biso   1.000  C
  C23      1.0000 0.67150  0.57090  0.40300  Biso   1.000  C
  C24      1.0000 0.32850  0.07090  0.09700  Biso   1.000  C
  H13      1.0000 0.30050  0.37080  0.50880  Biso   1.000  H
  H14      1.0000 0.69950  0.87080  0.99120  Biso   1.000  H
  H15      1.0000 0.69950  0.62920  0.49120  Biso   1.000  H
  H16      1.0000 0.30050  0.12920  0.00880  Biso   1.000  H
  C25      1.0000 0.28820  0.55990  0.94960  Biso   1.000  C
  C26      1.0000 0.71180  0.05990  0.55040  Biso   1.000  C
  C27      1.0000 0.71180  0.44010  0.05040  Biso   1.000  C
  C28      1.0000 0.28820  0.94010  0.44960  Biso   1.000  C
  H17      1.0000 0.32410  0.61440  0.03480  Biso   1.000  H
  H18      1.0000 0.67590  0.11440  0.46520  Biso   1.000  H
  H19      1.0000 0.67590  0.38560  0.96520  Biso   1.000  H
  H20      1.0000 0.32410  0.88560  0.53480  Biso   1.000  H
  C29      1.0000 0.17890  0.55420  0.07530  Biso   1.000  C
  C30      1.0000 0.82110  0.05420  0.42470  Biso   1.000  C
  C31      1.0000 0.82110  0.44580  0.92470  Biso   1.000  C
  C32      1.0000 0.17890  0.94580  0.57530  Biso   1.000  C
  H21      1.0000 0.23060  0.58500  0.15740  Biso   1.000  H
  H22      1.0000 0.76940  0.08500  0.34260  Biso   1.000  H
  H23      1.0000 0.76940  0.41500  0.84260  Biso   1.000  H
  H24      1.0000 0.23060  0.91500  0.65740  Biso   1.000  H
  H25      1.0000 0.15040  0.44570  0.10120  Biso   1.000  H
  H26      1.0000 0.84960  0.94570  0.39880  Biso   1.000  H
  H27      1.0000 0.84960  0.55430  0.89880  Biso   1.000  H
  H28      1.0000 0.15040  0.05430  0.60120  Biso   1.000  H
  C33      1.0000 0.11250  0.71270  0.04420  Biso   1.000  C
  C34      1.0000 0.88750  0.21270  0.45580  Biso   1.000  C
  C35      1.0000 0.88750  0.28730  0.95580  Biso   1.000  C
  C36      1.0000 0.11250  0.78730  0.54420  Biso   1.000  C
  H29      1.0000 0.09070  0.72950  0.12870  Biso   1.000  H
  H30      1.0000 0.90930  0.22950  0.37130  Biso   1.000  H
  H31      1.0000 0.90930  0.27050  0.87130  Biso   1.000  H
  H32      1.0000 0.09070  0.77050  0.62870  Biso   1.000  H
  H33      1.0000 0.14470  0.82380  0.03340  Biso   1.000  H
  H34      1.0000 0.85530  0.32380  0.46660  Biso   1.000  H
  H35      1.0000 0.85530  0.17620  0.96660  Biso   1.000  H
  H36      1.0000 0.14470  0.67620  0.53340  Biso   1.000  H
  C37      1.0000 0.03230  0.69330  0.91160  Biso   1.000  C
  C38      1.0000 0.96770  0.19330  0.58840  Biso   1.000  C
  C39      1.0000 0.96770  0.30670  0.08840  Biso   1.000  C
  C40      1.0000 0.03230  0.80670  0.41160  Biso   1.000  C
  H37      1.0000 0.07700  0.10100  0.85500  Biso   1.000  H
  H38      1.0000 0.92300  0.60100  0.64500  Biso   1.000  H
  H39      1.0000 0.92300  0.89900  0.14500  Biso   1.000  H
  H40      1.0000 0.07700  0.39900  0.35500  Biso   1.000  H
  H41      1.0000 0.14500  0.13000  0.96500  Biso   1.000  H
  H42      1.0000 0.85500  0.63000  0.53500  Biso   1.000  H
  H43      1.0000 0.85500  0.87000  0.03500  Biso   1.000  H
  H44      1.0000 0.14500  0.37000  0.46500  Biso   1.000  H
