data_image0
_cell_length_a       8.6769
_cell_length_b       11.8993
_cell_length_c       17.4277
_cell_angle_alpha    91.794
_cell_angle_beta     91.232
_cell_angle_gamma    97.33

_symmetry_space_group_name_H-M    "P 1"
_symmetry_int_tables_number       1

loop_
  _symmetry_equiv_pos_as_xyz
  'x, y, z'

loop_
  _atom_site_label
  _atom_site_occupancy
  _atom_site_fract_x
  _atom_site_fract_y
  _atom_site_fract_z
  _atom_site_thermal_displace_type
  _atom_site_B_iso_or_equiv
  _atom_site_type_symbol
  O1       1.0000 0.36600  0.05320  0.78460  Biso   1.000  O
  O2       1.0000 0.63400  0.94680  0.21540  Biso   1.000  O
  O3       1.0000 0.58090  0.30340  0.12450  Biso   1.000  O
  O4       1.0000 0.41910  0.69660  0.87550  Biso   1.000  O
  O5       1.0000 0.64470  0.54630  0.95020  Biso   1.000  O
  O6       1.0000 0.35530  0.45370  0.04980  Biso   1.000  O
  O7       1.0000 0.45200  0.43570  0.44090  Biso   1.000  O
  O8       1.0000 0.54800  0.56430  0.55910  Biso   1.000  O
  H1       1.0000 0.41710  0.38930  0.39850  Biso   1.000  H
  H2       1.0000 0.58290  0.61070  0.60150  Biso   1.000  H
  O9       1.0000 0.45650  0.92620  0.94650  Biso   1.000  O
  O10      1.0000 0.54350  0.07380  0.05350  Biso   1.000  O
  H3       1.0000 0.42510  0.87250  0.90750  Biso   1.000  H
  H4       1.0000 0.57490  0.12750  0.09250  Biso   1.000  H
  Cu1      1.0000 0.35888  0.46047  0.54020  Biso   1.000  Cu
  Cu2      1.0000 0.64112  0.53953  0.45980  Biso   1.000  Cu
  Cu3      1.0000 0.69373  0.28006  0.78020  Biso   1.000  Cu
  Cu4      1.0000 0.30627  0.71994  0.21980  Biso   1.000  Cu
  Cu5      1.0000 0.64085  0.03437  0.96026  Biso   1.000  Cu
  Cu6      1.0000 0.35915  0.96563  0.03974  Biso   1.000  Cu
  O11      1.0000 0.41720  0.32300  0.61030  Biso   1.000  O
  O12      1.0000 0.58280  0.67700  0.38970  Biso   1.000  O
  O13      1.0000 0.61730  0.41970  0.67420  Biso   1.000  O
  O14      1.0000 0.38270  0.58030  0.32580  Biso   1.000  O
  O15      1.0000 0.50870  0.25460  0.71440  Biso   1.000  O
  O16      1.0000 0.49130  0.74540  0.28560  Biso   1.000  O
  O17      1.0000 0.60060  0.35290  0.86540  Biso   1.000  O
  O18      1.0000 0.39940  0.64710  0.13460  Biso   1.000  O
  O19      1.0000 0.58820  0.17190  0.88650  Biso   1.000  O
  O20      1.0000 0.41180  0.82810  0.11350  Biso   1.000  O
  O21      1.0000 0.51890  0.28930  0.97760  Biso   1.000  O
  O22      1.0000 0.48110  0.71070  0.02240  Biso   1.000  O
  N1       1.0000 0.23510  0.52700  0.62430  Biso   1.000  N
  N2       1.0000 0.76490  0.47300  0.37570  Biso   1.000  N
  N3       1.0000 0.14810  0.37470  0.51460  Biso   1.000  N
  N4       1.0000 0.85190  0.62530  0.48540  Biso   1.000  N
  N5       1.0000 0.80980  0.18630  0.70990  Biso   1.000  N
  N6       1.0000 0.19020  0.81370  0.29010  Biso   1.000  N
  N7       1.0000 0.91300  0.33520  0.81740  Biso   1.000  N
  N8       1.0000 0.08700  0.66480  0.18260  Biso   1.000  N
  N9       1.0000 0.85240  0.12190  0.98570  Biso   1.000  N
  N10      1.0000 0.14760  0.87810  0.01430  Biso   1.000  N
  N11      1.0000 0.76190  0.97060  0.87630  Biso   1.000  N
  N12      1.0000 0.23810  0.02940  0.12370  Biso   1.000  N
  C1       1.0000 0.51390  0.33310  0.66550  Biso   1.000  C
  C2       1.0000 0.48610  0.66690  0.33450  Biso   1.000  C
  C3       1.0000 0.03490  0.40190  0.56070  Biso   1.000  C
  C4       1.0000 0.96510  0.59810  0.43930  Biso   1.000  C
  C5       1.0000 0.08110  0.48610  0.62250  Biso   1.000  C
  C6       1.0000 0.91890  0.51390  0.37750  Biso   1.000  C
  C7       1.0000 0.56660  0.27090  0.91150  Biso   1.000  C
  C8       1.0000 0.43340  0.72910  0.08850  Biso   1.000  C
  C9       1.0000 0.96760  0.21080  0.71190  Biso   1.000  C
  C10      1.0000 0.03240  0.78920  0.28810  Biso   1.000  C
  C11      1.0000 0.95520  0.41100  0.87410  Biso   1.000  C
  C12      1.0000 0.04480  0.58900  0.12590  Biso   1.000  C
  H5       1.0000 0.87810  0.43900  0.90260  Biso   1.000  H
  H6       1.0000 0.12190  0.56100  0.09740  Biso   1.000  H
  C13      1.0000 0.18100  0.33190  0.79080  Biso   1.000  C
  C14      1.0000 0.81900  0.66810  0.20920  Biso   1.000  C
  H7       1.0000 0.25790  0.30430  0.76200  Biso   1.000  H
  H8       1.0000 0.74210  0.69570  0.23800  Biso   1.000  H
  C15      1.0000 0.96230  0.09710  0.93660  Biso   1.000  C
  C16      1.0000 0.03770  0.90290  0.06340  Biso   1.000  C
  C17      1.0000 0.11540  0.29670  0.45900  Biso   1.000  C
  C18      1.0000 0.88460  0.70330  0.54100  Biso   1.000  C
  H9       1.0000 0.19460  0.27840  0.42770  Biso   1.000  H
  H10      1.0000 0.80540  0.72160  0.57230  Biso   1.000  H
  C19      1.0000 0.02260  0.29440  0.77450  Biso   1.000  C
  C20      1.0000 0.97740  0.70560  0.22550  Biso   1.000  C
  C21      1.0000 0.96670  0.24180  0.44620  Biso   1.000  C
  C22      1.0000 0.03330  0.75820  0.55380  Biso   1.000  C
  H11      1.0000 0.94640  0.18600  0.40750  Biso   1.000  H
  H12      1.0000 0.05360  0.81400  0.59250  Biso   1.000  H
  C23      1.0000 0.74890  0.10850  0.65630  Biso   1.000  C
  C24      1.0000 0.25110  0.89150  0.34370  Biso   1.000  C
  H13      1.0000 0.64130  0.09170  0.65260  Biso   1.000  H
  H14      1.0000 0.35870  0.90830  0.34740  Biso   1.000  H
  C25      1.0000 0.83440  0.05350  0.60780  Biso   1.000  C
  C26      1.0000 0.16560  0.94650  0.39220  Biso   1.000  C
  H15      1.0000 0.78770  0.99840  0.57270  Biso   1.000  H
  H16      1.0000 0.21230  0.00160  0.42730  Biso   1.000  H
  C27      1.0000 0.10730  0.44950  0.89210  Biso   1.000  C
  C28      1.0000 0.89270  0.55050  0.10790  Biso   1.000  C
  H17      1.0000 0.13300  0.50190  0.93260  Biso   1.000  H
  H18      1.0000 0.86700  0.49810  0.06740  Biso   1.000  H
  C29      1.0000 0.05970  0.15850  0.66450  Biso   1.000  C
  C30      1.0000 0.94030  0.84150  0.33550  Biso   1.000  C
  H19      1.0000 0.16720  0.17580  0.66860  Biso   1.000  H
  H20      1.0000 0.83280  0.82420  0.33140  Biso   1.000  H
  C31      1.0000 0.98340  0.52510  0.67450  Biso   1.000  C
  C32      1.0000 0.01660  0.47490  0.32550  Biso   1.000  C
  H21      1.0000 0.87830  0.49680  0.67230  Biso   1.000  H
  H22      1.0000 0.12170  0.50320  0.32770  Biso   1.000  H
  C33      1.0000 0.99490  0.08180  0.61170  Biso   1.000  C
  C34      1.0000 0.00510  0.91820  0.38830  Biso   1.000  C
  H23      1.0000 0.05720  0.04750  0.57770  Biso   1.000  H
  H24      1.0000 0.94280  0.95250  0.42230  Biso   1.000  H
  C35      1.0000 0.29000  0.60430  0.67930  Biso   1.000  C
  C36      1.0000 0.71000  0.39570  0.32070  Biso   1.000  C
  H25      1.0000 0.39580  0.63010  0.68170  Biso   1.000  H
  H26      1.0000 0.60420  0.36990  0.31830  Biso   1.000  H
  C37      1.0000 0.19560  0.64620  0.73170  Biso   1.000  C
  C38      1.0000 0.80440  0.35380  0.26830  Biso   1.000  C
  H27      1.0000 0.23620  0.70130  0.76820  Biso   1.000  H
  H28      1.0000 0.76380  0.29870  0.23180  Biso   1.000  H
  C39      1.0000 0.91300  0.01390  0.87430  Biso   1.000  C
  C40      1.0000 0.08700  0.98610  0.12570  Biso   1.000  C
  C41      1.0000 0.88170  0.35080  0.54890  Biso   1.000  C
  C42      1.0000 0.11830  0.64920  0.45110  Biso   1.000  C
  H29      1.0000 0.80350  0.37160  0.57990  Biso   1.000  H
  H30      1.0000 0.19650  0.62840  0.42010  Biso   1.000  H
  C43      1.0000 0.84790  0.27110  0.49200  Biso   1.000  C
  C44      1.0000 0.15210  0.72890  0.50800  Biso   1.000  C
  H31      1.0000 0.74650  0.23620  0.48360  Biso   1.000  H
  H32      1.0000 0.25350  0.76380  0.51640  Biso   1.000  H
  C45      1.0000 0.00850  0.97900  0.81930  Biso   1.000  C
  C46      1.0000 0.99150  0.02100  0.18070  Biso   1.000  C
  H33      1.0000 0.11310  0.00820  0.82020  Biso   1.000  H
  H34      1.0000 0.88690  0.99180  0.17980  Biso   1.000  H
  C47      1.0000 0.03840  0.60570  0.72990  Biso   1.000  C
  C48      1.0000 0.96160  0.39430  0.27010  Biso   1.000  C
  H35      1.0000 0.97200  0.63240  0.76530  Biso   1.000  H
  H36      1.0000 0.02800  0.36760  0.23470  Biso   1.000  H
  C49      1.0000 0.14930  0.22770  0.00650  Biso   1.000  C
  C50      1.0000 0.85070  0.77230  0.99350  Biso   1.000  C
  H37      1.0000 0.25030  0.26330  0.01470  Biso   1.000  H
  H38      1.0000 0.74970  0.73670  0.98530  Biso   1.000  H
  C51      1.0000 0.88530  0.19600  0.04260  Biso   1.000  C
  C52      1.0000 0.11470  0.80400  0.95740  Biso   1.000  C
  H39      1.0000 0.80730  0.21020  0.07600  Biso   1.000  H
  H40      1.0000 0.19270  0.78980  0.92400  Biso   1.000  H
  C53      1.0000 0.70700  0.89380  0.82210  Biso   1.000  C
  C54      1.0000 0.29300  0.10620  0.17790  Biso   1.000  C
  H41      1.0000 0.60280  0.86340  0.82290  Biso   1.000  H
  H42      1.0000 0.39720  0.13660  0.17710  Biso   1.000  H
  C55      1.0000 0.03160  0.25310  0.05430  Biso   1.000  C
  C56      1.0000 0.96840  0.74690  0.94570  Biso   1.000  C
  H43      1.0000 0.05180  0.30790  0.09370  Biso   1.000  H
  H44      1.0000 0.94820  0.69210  0.90630  Biso   1.000  H
  C57      1.0000 0.21950  0.41040  0.85040  Biso   1.000  C
  C58      1.0000 0.78050  0.58960  0.14960  Biso   1.000  C
  H45      1.0000 0.32340  0.43640  0.86180  Biso   1.000  H
  H46      1.0000 0.67660  0.56360  0.13820  Biso   1.000  H
  C59      1.0000 0.95090  0.90130  0.76300  Biso   1.000  C
  C60      1.0000 0.04910  0.09870  0.23700  Biso   1.000  C
  H47      1.0000 0.01420  0.87920  0.72440  Biso   1.000  H
  H48      1.0000 0.98580  0.12080  0.27560  Biso   1.000  H
  C61      1.0000 0.11510  0.14990  0.94710  Biso   1.000  C
  C62      1.0000 0.88490  0.85010  0.05290  Biso   1.000  C
  H49      1.0000 0.19230  0.13240  0.91420  Biso   1.000  H
  H50      1.0000 0.80770  0.86760  0.08580  Biso   1.000  H
  C63      1.0000 0.79770  0.85720  0.76490  Biso   1.000  C
  C64      1.0000 0.20230  0.14280  0.23510  Biso   1.000  C
  H51      1.0000 0.75530  0.80320  0.72800  Biso   1.000  H
  H52      1.0000 0.24470  0.19680  0.27200  Biso   1.000  H
  O23      1.0000 0.47040  0.20180  0.41310  Biso   1.000  O
  O24      1.0000 0.52960  0.79820  0.58690  Biso   1.000  O
  H53      1.0000 0.48300  0.27400  0.42500  Biso   1.000  H
  H54      1.0000 0.51700  0.72600  0.57500  Biso   1.000  H
  O25      1.0000 0.31880  0.93130  0.65160  Biso   1.000  O
  O26      1.0000 0.68120  0.06870  0.34840  Biso   1.000  O
  H55      1.0000 0.37000  0.91300  0.64400  Biso   1.000  H
  H56      1.0000 0.63000  0.08700  0.35600  Biso   1.000  H
  O27      1.0000 0.36210  0.11040  0.54530  Biso   1.000  O
  O28      1.0000 0.63790  0.88960  0.45470  Biso   1.000  O
  H57      1.0000 0.39300  0.15600  0.57800  Biso   1.000  H
  H58      1.0000 0.60700  0.84400  0.42200  Biso   1.000  H
  H59      1.0000 0.34000  0.04700  0.58000  Biso   1.000  H
  H60      1.0000 0.66000  0.95300  0.42000  Biso   1.000  H
  O29      1.0000 0.63700  0.59800  0.77270  Biso   1.000  O
  O30      1.0000 0.36300  0.40200  0.22730  Biso   1.000  O
  H61      1.0000 0.42900  0.20100  0.40300  Biso   1.000  H
  H62      1.0000 0.57100  0.79900  0.59700  Biso   1.000  H
  O31      1.0000 0.57500  0.57700  0.91100  Biso   1.000  O
  O32      1.0000 0.42500  0.42300  0.08900  Biso   1.000  O
  O33      1.0000 0.38600  0.00620  0.80700  Biso   1.000  O
  O34      1.0000 0.61400  0.99380  0.19300  Biso   1.000  O
  O35      1.0000 0.67300  0.58700  0.80280  Biso   1.000  O
  O36      1.0000 0.32700  0.41300  0.19720  Biso   1.000  O
