data_image0
_cell_length_a       12.832
_cell_length_b       10.295
_cell_length_c       20.04
_cell_angle_alpha    90
_cell_angle_beta     102.178
_cell_angle_gamma    90

_symmetry_space_group_name_H-M    "P 1"
_symmetry_int_tables_number       1

loop_
  _symmetry_equiv_pos_as_xyz
  'x, y, z'

loop_
  _atom_site_label
  _atom_site_occupancy
  _atom_site_fract_x
  _atom_site_fract_y
  _atom_site_fract_z
  _atom_site_thermal_displace_type
  _atom_site_B_iso_or_equiv
  _atom_site_type_symbol
  Cu1      1.0000 0.46739  0.57345  0.12434  Biso   1.000  Cu
  Cu2      1.0000 0.53261  0.07345  0.37566  Biso   1.000  Cu
  Cu3      1.0000 0.53261  0.42655  0.87566  Biso   1.000  Cu
  Cu4      1.0000 0.46739  0.92655  0.62434  Biso   1.000  Cu
  Mn1      1.0000 0.88548  0.68105  0.23339  Biso   1.000  Mn
  Mn2      1.0000 0.11452  0.18105  0.26661  Biso   1.000  Mn
  Mn3      1.0000 0.11452  0.31895  0.76661  Biso   1.000  Mn
  Mn4      1.0000 0.88548  0.81895  0.73339  Biso   1.000  Mn
  C1       1.0000 0.40030  0.08630  0.17714  Biso   1.000  C
  C2       1.0000 0.59970  0.58630  0.32286  Biso   1.000  C
  C3       1.0000 0.59970  0.91370  0.82286  Biso   1.000  C
  C4       1.0000 0.40030  0.41370  0.67714  Biso   1.000  C
  H1       1.0000 0.36660  0.16630  0.17730  Biso   1.000  H
  H2       1.0000 0.63340  0.66630  0.32270  Biso   1.000  H
  H3       1.0000 0.63340  0.83370  0.82270  Biso   1.000  H
  H4       1.0000 0.36660  0.33370  0.67730  Biso   1.000  H
  C5       1.0000 0.34620  0.97330  0.18216  Biso   1.000  C
  C6       1.0000 0.65380  0.47330  0.31784  Biso   1.000  C
  C7       1.0000 0.65380  0.02670  0.81784  Biso   1.000  C
  C8       1.0000 0.34620  0.52670  0.68216  Biso   1.000  C
  H5       1.0000 0.27610  0.97850  0.18750  Biso   1.000  H
  H6       1.0000 0.72390  0.47850  0.31250  Biso   1.000  H
  H7       1.0000 0.72390  0.02150  0.81250  Biso   1.000  H
  H8       1.0000 0.27610  0.52150  0.68750  Biso   1.000  H
  C9       1.0000 0.39170  0.85000  0.17961  Biso   1.000  C
  C10      1.0000 0.60830  0.35000  0.32039  Biso   1.000  C
  C11      1.0000 0.60830  0.15000  0.82039  Biso   1.000  C
  C12      1.0000 0.39170  0.65000  0.67961  Biso   1.000  C
  C13      1.0000 0.49910  0.84440  0.17226  Biso   1.000  C
  C14      1.0000 0.50090  0.34440  0.32774  Biso   1.000  C
  C15      1.0000 0.50090  0.15560  0.82774  Biso   1.000  C
  C16      1.0000 0.49910  0.65560  0.67226  Biso   1.000  C
  C17      1.0000 0.55450  0.96020  0.16904  Biso   1.000  C
  C18      1.0000 0.44550  0.46020  0.33096  Biso   1.000  C
  C19      1.0000 0.44550  0.03980  0.83096  Biso   1.000  C
  C20      1.0000 0.55450  0.53980  0.66904  Biso   1.000  C
  H9       1.0000 0.62530  0.95700  0.16500  Biso   1.000  H
  H10      1.0000 0.37470  0.45700  0.33500  Biso   1.000  H
  H11      1.0000 0.37470  0.04300  0.83500  Biso   1.000  H
  H12      1.0000 0.62530  0.54300  0.66500  Biso   1.000  H
  C21      1.0000 0.50630  0.07940  0.17178  Biso   1.000  C
  C22      1.0000 0.49370  0.57940  0.32822  Biso   1.000  C
  C23      1.0000 0.49370  0.92060  0.82822  Biso   1.000  C
  C24      1.0000 0.50630  0.42060  0.67178  Biso   1.000  C
  H13      1.0000 0.54490  0.15530  0.17000  Biso   1.000  H
  H14      1.0000 0.45510  0.65530  0.33000  Biso   1.000  H
  H15      1.0000 0.45510  0.84470  0.83000  Biso   1.000  H
  H16      1.0000 0.54490  0.34470  0.67000  Biso   1.000  H
  C25      1.0000 0.23110  0.74890  0.21920  Biso   1.000  C
  C26      1.0000 0.76890  0.24890  0.28080  Biso   1.000  C
  C27      1.0000 0.76890  0.25110  0.78080  Biso   1.000  C
  C28      1.0000 0.23110  0.75110  0.71920  Biso   1.000  C
  H17      1.0000 0.16860  0.77770  0.18740  Biso   1.000  H
  H18      1.0000 0.83140  0.27770  0.31260  Biso   1.000  H
  H19      1.0000 0.83140  0.22230  0.81260  Biso   1.000  H
  H20      1.0000 0.16860  0.72230  0.68740  Biso   1.000  H
  H21      1.0000 0.24970  0.81140  0.25530  Biso   1.000  H
  H22      1.0000 0.75030  0.31140  0.24470  Biso   1.000  H
  H23      1.0000 0.75030  0.18860  0.74470  Biso   1.000  H
  H24      1.0000 0.24970  0.68860  0.75530  Biso   1.000  H
  H25      1.0000 0.21700  0.66660  0.23800  Biso   1.000  H
  H26      1.0000 0.78300  0.16660  0.26200  Biso   1.000  H
  H27      1.0000 0.78300  0.33340  0.76200  Biso   1.000  H
  H28      1.0000 0.21700  0.83340  0.73800  Biso   1.000  H
  C29      1.0000 0.32260  0.73460  0.18277  Biso   1.000  C
  C30      1.0000 0.67740  0.23460  0.31723  Biso   1.000  C
  C31      1.0000 0.67740  0.26540  0.81723  Biso   1.000  C
  C32      1.0000 0.32260  0.76540  0.68277  Biso   1.000  C
  C33      1.0000 0.26970  0.51280  0.15294  Biso   1.000  C
  C34      1.0000 0.73030  0.01280  0.34706  Biso   1.000  C
  C35      1.0000 0.73030  0.48720  0.84706  Biso   1.000  C
  C36      1.0000 0.26970  0.98720  0.65294  Biso   1.000  C
  H29      1.0000 0.19680  0.53970  0.15140  Biso   1.000  H
  H30      1.0000 0.80320  0.03970  0.34860  Biso   1.000  H
  H31      1.0000 0.80320  0.46030  0.84860  Biso   1.000  H
  H32      1.0000 0.19680  0.96030  0.65140  Biso   1.000  H
  H33      1.0000 0.29390  0.46130  0.19380  Biso   1.000  H
  H34      1.0000 0.70610  0.96130  0.30620  Biso   1.000  H
  H35      1.0000 0.70610  0.53870  0.80620  Biso   1.000  H
  H36      1.0000 0.29390  0.03870  0.69380  Biso   1.000  H
  C37      1.0000 0.27550  0.43320  0.08993  Biso   1.000  C
  C38      1.0000 0.72450  0.93320  0.41007  Biso   1.000  C
  C39      1.0000 0.72450  0.56680  0.91007  Biso   1.000  C
  C40      1.0000 0.27550  0.06680  0.58993  Biso   1.000  C
  H37      1.0000 0.24590  0.34740  0.09350  Biso   1.000  H
  H38      1.0000 0.75410  0.84740  0.40650  Biso   1.000  H
  H39      1.0000 0.75410  0.65260  0.90650  Biso   1.000  H
  H40      1.0000 0.24590  0.15260  0.59350  Biso   1.000  H
  H41      1.0000 0.23430  0.47500  0.04950  Biso   1.000  H
  H42      1.0000 0.76570  0.97500  0.45050  Biso   1.000  H
  H43      1.0000 0.76570  0.52500  0.95050  Biso   1.000  H
  H44      1.0000 0.23430  0.02500  0.54950  Biso   1.000  H
  C41      1.0000 0.33690  0.24900  0.00175  Biso   1.000  C
  C42      1.0000 0.66310  0.74900  0.49825  Biso   1.000  C
  C43      1.0000 0.66310  0.75100  0.99825  Biso   1.000  C
  C44      1.0000 0.33690  0.25100  0.50175  Biso   1.000  C
  H45      1.0000 0.33790  0.16470  0.02230  Biso   1.000  H
  H46      1.0000 0.66210  0.66470  0.47770  Biso   1.000  H
  H47      1.0000 0.66210  0.83530  0.97770  Biso   1.000  H
  H48      1.0000 0.33790  0.33530  0.52230  Biso   1.000  H
  H49      1.0000 0.35360  0.24090  0.95750  Biso   1.000  H
  H50      1.0000 0.64640  0.74090  0.54250  Biso   1.000  H
  H51      1.0000 0.64640  0.75910  0.04250  Biso   1.000  H
  H52      1.0000 0.35360  0.25910  0.45750  Biso   1.000  H
  H53      1.0000 0.26730  0.28660  0.99720  Biso   1.000  H
  H54      1.0000 0.73270  0.78660  0.50280  Biso   1.000  H
  H55      1.0000 0.73270  0.71340  0.00280  Biso   1.000  H
  H56      1.0000 0.26730  0.21340  0.49720  Biso   1.000  H
  C45      1.0000 0.41850  0.33550  0.04624  Biso   1.000  C
  C46      1.0000 0.58150  0.83550  0.45376  Biso   1.000  C
  C47      1.0000 0.58150  0.66450  0.95376  Biso   1.000  C
  C48      1.0000 0.41850  0.16450  0.54624  Biso   1.000  C
  C49      1.0000 0.53220  0.31610  0.04334  Biso   1.000  C
  C50      1.0000 0.46780  0.81610  0.45666  Biso   1.000  C
  C51      1.0000 0.46780  0.68390  0.95666  Biso   1.000  C
  C52      1.0000 0.53220  0.18390  0.54334  Biso   1.000  C
  C53      1.0000 0.55600  0.20860  0.00565  Biso   1.000  C
  C54      1.0000 0.44400  0.70860  0.49435  Biso   1.000  C
  C55      1.0000 0.44400  0.79140  0.99435  Biso   1.000  C
  C56      1.0000 0.55600  0.29140  0.50565  Biso   1.000  C
  H57      1.0000 0.50020  0.15590  0.98390  Biso   1.000  H
  H58      1.0000 0.49980  0.65590  0.51610  Biso   1.000  H
  H59      1.0000 0.49980  0.84410  0.01610  Biso   1.000  H
  H60      1.0000 0.50020  0.34410  0.48390  Biso   1.000  H
  C57      1.0000 0.65770  0.17800  0.99954  Biso   1.000  C
  C58      1.0000 0.34230  0.67800  0.50046  Biso   1.000  C
  C59      1.0000 0.34230  0.82200  0.00046  Biso   1.000  C
  C60      1.0000 0.65770  0.32200  0.49954  Biso   1.000  C
  H61      1.0000 0.67040  0.10590  0.97450  Biso   1.000  H
  H62      1.0000 0.32960  0.60590  0.52550  Biso   1.000  H
  H63      1.0000 0.32960  0.89410  0.02550  Biso   1.000  H
  H64      1.0000 0.67040  0.39410  0.47450  Biso   1.000  H
  C61      1.0000 0.74130  0.25680  0.03144  Biso   1.000  C
  C62      1.0000 0.25870  0.75680  0.46856  Biso   1.000  C
  C63      1.0000 0.25870  0.74320  0.96856  Biso   1.000  C
  C64      1.0000 0.74130  0.24320  0.53144  Biso   1.000  C
  H65      1.0000 0.81030  0.23870  0.02670  Biso   1.000  H
  H66      1.0000 0.18970  0.73870  0.47330  Biso   1.000  H
  H67      1.0000 0.18970  0.76130  0.97330  Biso   1.000  H
  H68      1.0000 0.81030  0.26130  0.52670  Biso   1.000  H
  C65      1.0000 0.72290  0.36070  0.06977  Biso   1.000  C
  C66      1.0000 0.27710  0.86070  0.43023  Biso   1.000  C
  C67      1.0000 0.27710  0.63930  0.93023  Biso   1.000  C
  C68      1.0000 0.72290  0.13930  0.56977  Biso   1.000  C
  H69      1.0000 0.78010  0.41180  0.09100  Biso   1.000  H
  H70      1.0000 0.21990  0.91180  0.40900  Biso   1.000  H
  H71      1.0000 0.21990  0.58820  0.90900  Biso   1.000  H
  H72      1.0000 0.78010  0.08820  0.59100  Biso   1.000  H
  C69      1.0000 0.61930  0.39260  0.07799  Biso   1.000  C
  C70      1.0000 0.38070  0.89260  0.42201  Biso   1.000  C
  C71      1.0000 0.38070  0.60740  0.92201  Biso   1.000  C
  C72      1.0000 0.61930  0.10740  0.57799  Biso   1.000  C
  C73      1.0000 0.68050  0.56380  0.15904  Biso   1.000  C
  C74      1.0000 0.31950  0.06380  0.34096  Biso   1.000  C
  C75      1.0000 0.31950  0.43620  0.84096  Biso   1.000  C
  C76      1.0000 0.68050  0.93620  0.65904  Biso   1.000  C
  C77      1.0000 0.64920  0.69970  0.18111  Biso   1.000  C
  C78      1.0000 0.35080  0.19970  0.31889  Biso   1.000  C
  C79      1.0000 0.35080  0.30030  0.81889  Biso   1.000  C
  C80      1.0000 0.64920  0.80030  0.68111  Biso   1.000  C
  C81      1.0000 0.93050  0.59930  0.36317  Biso   1.000  C
  C82      1.0000 0.06950  0.09930  0.13683  Biso   1.000  C
  C83      1.0000 0.06950  0.40070  0.63683  Biso   1.000  C
  C84      1.0000 0.93050  0.90070  0.86317  Biso   1.000  C
  C85      1.0000 0.96660  0.54450  0.43354  Biso   1.000  C
  C86      1.0000 0.03340  0.04450  0.06646  Biso   1.000  C
  C87      1.0000 0.03340  0.45550  0.56646  Biso   1.000  C
  C88      1.0000 0.96660  0.95550  0.93354  Biso   1.000  C
  C89      1.0000 0.06960  0.50040  0.45567  Biso   1.000  C
  C90      1.0000 0.93040  0.00040  0.04433  Biso   1.000  C
  C91      1.0000 0.93040  0.49960  0.54433  Biso   1.000  C
  C92      1.0000 0.06960  0.99960  0.95567  Biso   1.000  C
  H73      1.0000 0.11650  0.50040  0.42610  Biso   1.000  H
  H74      1.0000 0.88350  0.00040  0.07390  Biso   1.000  H
  H75      1.0000 0.88350  0.49960  0.57390  Biso   1.000  H
  H76      1.0000 0.11650  0.99960  0.92610  Biso   1.000  H
  C93      1.0000 0.10300  0.45630  0.52177  Biso   1.000  C
  C94      1.0000 0.89700  0.95630  0.97823  Biso   1.000  C
  C95      1.0000 0.89700  0.54370  0.47823  Biso   1.000  C
  C96      1.0000 0.10300  0.04370  0.02177  Biso   1.000  C
  H77      1.0000 0.17260  0.42680  0.53660  Biso   1.000  H
  H78      1.0000 0.82740  0.92680  0.96340  Biso   1.000  H
  H79      1.0000 0.82740  0.57320  0.46340  Biso   1.000  H
  H80      1.0000 0.17260  0.07320  0.03660  Biso   1.000  H
  C97      1.0000 0.95130  0.62380  0.11932  Biso   1.000  C
  C98      1.0000 0.04870  0.12380  0.38068  Biso   1.000  C
  C99      1.0000 0.04870  0.37620  0.88068  Biso   1.000  C
  C100     1.0000 0.95130  0.87620  0.61932  Biso   1.000  C
  C101     1.0000 0.97730  0.55950  0.05804  Biso   1.000  C
  C102     1.0000 0.02270  0.05950  0.44196  Biso   1.000  C
  C103     1.0000 0.02270  0.44050  0.94196  Biso   1.000  C
  C104     1.0000 0.97730  0.94050  0.55804  Biso   1.000  C
  C105     1.0000 0.00120  0.42770  0.05844  Biso   1.000  C
  C106     1.0000 0.99880  0.92770  0.44156  Biso   1.000  C
  C107     1.0000 0.99880  0.57230  0.94156  Biso   1.000  C
  C108     1.0000 0.00120  0.07230  0.55844  Biso   1.000  C
  H81      1.0000 0.00280  0.37890  0.09770  Biso   1.000  H
  H82      1.0000 0.99720  0.87890  0.40230  Biso   1.000  H
  H83      1.0000 0.99720  0.62110  0.90230  Biso   1.000  H
  H84      1.0000 0.00280  0.12110  0.59770  Biso   1.000  H
  C109     1.0000 0.97740  0.63120  0.99923  Biso   1.000  C
  C110     1.0000 0.02260  0.13120  0.50077  Biso   1.000  C
  C111     1.0000 0.02260  0.36880  0.00077  Biso   1.000  C
  C112     1.0000 0.97740  0.86880  0.49923  Biso   1.000  C
  H85      1.0000 0.96290  0.71970  0.99870  Biso   1.000  H
  H86      1.0000 0.03710  0.21970  0.50130  Biso   1.000  H
  H87      1.0000 0.03710  0.28030  0.00130  Biso   1.000  H
  H88      1.0000 0.96290  0.78030  0.49870  Biso   1.000  H
  N1       1.0000 0.33900  0.62830  0.15392  Biso   1.000  N
  N2       1.0000 0.66100  0.12830  0.34608  Biso   1.000  N
  N3       1.0000 0.66100  0.37170  0.84608  Biso   1.000  N
  N4       1.0000 0.33900  0.87170  0.65392  Biso   1.000  N
  N5       1.0000 0.38845  0.42230  0.08449  Biso   1.000  N
  N6       1.0000 0.61155  0.92230  0.41551  Biso   1.000  N
  N7       1.0000 0.61155  0.57770  0.91551  Biso   1.000  N
  N8       1.0000 0.38845  0.07770  0.58449  Biso   1.000  N
  N9       1.0000 0.60290  0.50410  0.11491  Biso   1.000  N
  N10      1.0000 0.39710  0.00410  0.38509  Biso   1.000  N
  N11      1.0000 0.39710  0.49590  0.88509  Biso   1.000  N
  N12      1.0000 0.60290  0.99590  0.61491  Biso   1.000  N
  N13      1.0000 0.54614  0.72360  0.16331  Biso   1.000  N
  N14      1.0000 0.45386  0.22360  0.33669  Biso   1.000  N
  N15      1.0000 0.45386  0.27640  0.83669  Biso   1.000  N
  N16      1.0000 0.54614  0.77640  0.66331  Biso   1.000  N
  O1       1.0000 0.72242  0.76901  0.21294  Biso   1.000  O
  O2       1.0000 0.27758  0.26901  0.28706  Biso   1.000  O
  O3       1.0000 0.27758  0.23099  0.78706  Biso   1.000  O
  O4       1.0000 0.72242  0.73099  0.71294  Biso   1.000  O
  O5       1.0000 0.77265  0.52729  0.18421  Biso   1.000  O
  O6       1.0000 0.22735  0.02729  0.31579  Biso   1.000  O
  O7       1.0000 0.22735  0.47271  0.81579  Biso   1.000  O
  O8       1.0000 0.77265  0.97271  0.68421  Biso   1.000  O
  O9       1.0000 0.85299  0.67560  0.34990  Biso   1.000  O
  O10      1.0000 0.14701  0.17560  0.15010  Biso   1.000  O
  O11      1.0000 0.14701  0.32440  0.65010  Biso   1.000  O
  O12      1.0000 0.85299  0.82440  0.84990  Biso   1.000  O
  O13      1.0000 0.98200  0.56930  0.31857  Biso   1.000  O
  O14      1.0000 0.01800  0.06930  0.18143  Biso   1.000  O
  O15      1.0000 0.01800  0.43070  0.68143  Biso   1.000  O
  O16      1.0000 0.98200  0.93070  0.81857  Biso   1.000  O
  O17      1.0000 0.88963  0.71906  0.11249  Biso   1.000  O
  O18      1.0000 0.11037  0.21906  0.38751  Biso   1.000  O
  O19      1.0000 0.11037  0.28094  0.88751  Biso   1.000  O
  O20      1.0000 0.88963  0.78094  0.61249  Biso   1.000  O
  O21      1.0000 0.99258  0.57620  0.17730  Biso   1.000  O
  O22      1.0000 0.00742  0.07620  0.32270  Biso   1.000  O
  O23      1.0000 0.00742  0.42380  0.82270  Biso   1.000  O
  O24      1.0000 0.99258  0.92380  0.67730  Biso   1.000  O
  O25      1.0000 0.95976  0.86340  0.24725  Biso   1.000  O
  O26      1.0000 0.04024  0.36340  0.25275  Biso   1.000  O
  O27      1.0000 0.04024  0.13660  0.75275  Biso   1.000  O
  O28      1.0000 0.95976  0.63660  0.74725  Biso   1.000  O
  H89      1.0000 0.97100  0.90700  0.21340  Biso   1.000  H
  H90      1.0000 0.02900  0.40700  0.28660  Biso   1.000  H
  H91      1.0000 0.02900  0.09300  0.78660  Biso   1.000  H
  H92      1.0000 0.97100  0.59300  0.71340  Biso   1.000  H
  H93      1.0000 0.96600  0.91100  0.27970  Biso   1.000  H
  H94      1.0000 0.03400  0.41100  0.22030  Biso   1.000  H
  H95      1.0000 0.03400  0.08900  0.72030  Biso   1.000  H
  H96      1.0000 0.96600  0.58900  0.77970  Biso   1.000  H
