data_image0
_cell_length_a       11.681
_cell_length_b       16.994
_cell_length_c       24.444
_cell_angle_alpha    90
_cell_angle_beta     90
_cell_angle_gamma    90

_symmetry_space_group_name_H-M    "P 1"
_symmetry_int_tables_number       1

loop_
  _symmetry_equiv_pos_as_xyz
  'x, y, z'

loop_
  _atom_site_label
  _atom_site_occupancy
  _atom_site_fract_x
  _atom_site_fract_y
  _atom_site_fract_z
  _atom_site_thermal_displace_type
  _atom_site_B_iso_or_equiv
  _atom_site_type_symbol
  Mn1      1.0000 0.86211  0.20391  0.54875  Biso   1.000  Mn
  Mn2      1.0000 0.63789  0.79609  0.04875  Biso   1.000  Mn
  Mn3      1.0000 0.13789  0.70391  0.95125  Biso   1.000  Mn
  Mn4      1.0000 0.36211  0.29609  0.45125  Biso   1.000  Mn
  Mn5      1.0000 0.13789  0.79609  0.45125  Biso   1.000  Mn
  Mn6      1.0000 0.36211  0.20391  0.95125  Biso   1.000  Mn
  Mn7      1.0000 0.86211  0.29609  0.04875  Biso   1.000  Mn
  Mn8      1.0000 0.63789  0.70391  0.54875  Biso   1.000  Mn
  Cu1      1.0000 0.90068  0.12435  0.76148  Biso   1.000  Cu
  Cu2      1.0000 0.59932  0.87565  0.26148  Biso   1.000  Cu
  Cu3      1.0000 0.09932  0.62435  0.73852  Biso   1.000  Cu
  Cu4      1.0000 0.40068  0.37565  0.23852  Biso   1.000  Cu
  Cu5      1.0000 0.09932  0.87565  0.23852  Biso   1.000  Cu
  Cu6      1.0000 0.40068  0.12435  0.73852  Biso   1.000  Cu
  Cu7      1.0000 0.90068  0.37565  0.26148  Biso   1.000  Cu
  Cu8      1.0000 0.59932  0.62435  0.76148  Biso   1.000  Cu
  C1       1.0000 0.50100  0.30920  0.77110  Biso   1.000  C
  C2       1.0000 0.99900  0.69080  0.27110  Biso   1.000  C
  C3       1.0000 0.49900  0.80920  0.72890  Biso   1.000  C
  C4       1.0000 0.00100  0.19080  0.22890  Biso   1.000  C
  C5       1.0000 0.49900  0.69080  0.22890  Biso   1.000  C
  C6       1.0000 0.00100  0.30920  0.72890  Biso   1.000  C
  C7       1.0000 0.50100  0.19080  0.27110  Biso   1.000  C
  C8       1.0000 0.99900  0.80920  0.77110  Biso   1.000  C
  H1       1.0000 0.43470  0.33410  0.78310  Biso   1.000  H
  H2       1.0000 0.06530  0.66590  0.28310  Biso   1.000  H
  H3       1.0000 0.56530  0.83410  0.71690  Biso   1.000  H
  H4       1.0000 0.93470  0.16590  0.21690  Biso   1.000  H
  H5       1.0000 0.56530  0.66590  0.21690  Biso   1.000  H
  H6       1.0000 0.93470  0.33410  0.71690  Biso   1.000  H
  H7       1.0000 0.43470  0.16590  0.28310  Biso   1.000  H
  H8       1.0000 0.06530  0.83410  0.78310  Biso   1.000  H
  C9       1.0000 0.52430  0.30480  0.71620  Biso   1.000  C
  C10      1.0000 0.97570  0.69520  0.21620  Biso   1.000  C
  C11      1.0000 0.47570  0.80480  0.78380  Biso   1.000  C
  C12      1.0000 0.02430  0.19520  0.28380  Biso   1.000  C
  C13      1.0000 0.47570  0.69520  0.28380  Biso   1.000  C
  C14      1.0000 0.02430  0.30480  0.78380  Biso   1.000  C
  C15      1.0000 0.52430  0.19520  0.21620  Biso   1.000  C
  C16      1.0000 0.97570  0.80480  0.71620  Biso   1.000  C
  H9       1.0000 0.47650  0.32900  0.69090  Biso   1.000  H
  H10      1.0000 0.02350  0.67100  0.19090  Biso   1.000  H
  H11      1.0000 0.52350  0.82900  0.80910  Biso   1.000  H
  H12      1.0000 0.97650  0.17100  0.30910  Biso   1.000  H
  H13      1.0000 0.52350  0.67100  0.30910  Biso   1.000  H
  H14      1.0000 0.97650  0.32900  0.80910  Biso   1.000  H
  H15      1.0000 0.47650  0.17100  0.19090  Biso   1.000  H
  H16      1.0000 0.02350  0.82900  0.69090  Biso   1.000  H
  C17      1.0000 0.62010  0.26370  0.69920  Biso   1.000  C
  C18      1.0000 0.87990  0.73630  0.19920  Biso   1.000  C
  C19      1.0000 0.37990  0.76370  0.80080  Biso   1.000  C
  C20      1.0000 0.12010  0.23630  0.30080  Biso   1.000  C
  C21      1.0000 0.37990  0.73630  0.30080  Biso   1.000  C
  C22      1.0000 0.12010  0.26370  0.80080  Biso   1.000  C
  C23      1.0000 0.62010  0.23630  0.19920  Biso   1.000  C
  C24      1.0000 0.87990  0.76370  0.69920  Biso   1.000  C
  H17      1.0000 0.63430  0.25960  0.66180  Biso   1.000  H
  H18      1.0000 0.86570  0.74040  0.16180  Biso   1.000  H
  H19      1.0000 0.36570  0.75960  0.83820  Biso   1.000  H
  H20      1.0000 0.13430  0.24040  0.33820  Biso   1.000  H
  H21      1.0000 0.36570  0.74040  0.33820  Biso   1.000  H
  H22      1.0000 0.13430  0.25960  0.83820  Biso   1.000  H
  H23      1.0000 0.63430  0.24040  0.16180  Biso   1.000  H
  H24      1.0000 0.86570  0.75960  0.66180  Biso   1.000  H
  C25      1.0000 0.69730  0.22750  0.73570  Biso   1.000  C
  C26      1.0000 0.80270  0.77250  0.23570  Biso   1.000  C
  C27      1.0000 0.30270  0.72750  0.76430  Biso   1.000  C
  C28      1.0000 0.19730  0.27250  0.26430  Biso   1.000  C
  C29      1.0000 0.30270  0.77250  0.26430  Biso   1.000  C
  C30      1.0000 0.19730  0.22750  0.76430  Biso   1.000  C
  C31      1.0000 0.69730  0.27250  0.23570  Biso   1.000  C
  C32      1.0000 0.80270  0.72750  0.73570  Biso   1.000  C
  C33      1.0000 0.67490  0.23730  0.79270  Biso   1.000  C
  C34      1.0000 0.82510  0.76270  0.29270  Biso   1.000  C
  C35      1.0000 0.32510  0.73730  0.70730  Biso   1.000  C
  C36      1.0000 0.17490  0.26270  0.20730  Biso   1.000  C
  C37      1.0000 0.32510  0.76270  0.20730  Biso   1.000  C
  C38      1.0000 0.17490  0.23730  0.70730  Biso   1.000  C
  C39      1.0000 0.67490  0.26270  0.29270  Biso   1.000  C
  C40      1.0000 0.82510  0.73730  0.79270  Biso   1.000  C
  C41      1.0000 0.57470  0.27740  0.80790  Biso   1.000  C
  C42      1.0000 0.92530  0.72260  0.30790  Biso   1.000  C
  C43      1.0000 0.42530  0.77740  0.69210  Biso   1.000  C
  C44      1.0000 0.07470  0.22260  0.19210  Biso   1.000  C
  C45      1.0000 0.42530  0.72260  0.19210  Biso   1.000  C
  C46      1.0000 0.07470  0.27740  0.69210  Biso   1.000  C
  C47      1.0000 0.57470  0.22260  0.30790  Biso   1.000  C
  C48      1.0000 0.92530  0.77740  0.80790  Biso   1.000  C
  H25      1.0000 0.55810  0.28250  0.84490  Biso   1.000  H
  H26      1.0000 0.94190  0.71750  0.34490  Biso   1.000  H
  H27      1.0000 0.44190  0.78250  0.65510  Biso   1.000  H
  H28      1.0000 0.05810  0.21750  0.15510  Biso   1.000  H
  H29      1.0000 0.44190  0.71750  0.15510  Biso   1.000  H
  H30      1.0000 0.05810  0.28250  0.65510  Biso   1.000  H
  H31      1.0000 0.55810  0.21750  0.34490  Biso   1.000  H
  H32      1.0000 0.94190  0.78250  0.84490  Biso   1.000  H
  C49      1.0000 0.73120  0.24590  0.89350  Biso   1.000  C
  C50      1.0000 0.76880  0.75410  0.39350  Biso   1.000  C
  C51      1.0000 0.26880  0.74590  0.60650  Biso   1.000  C
  C52      1.0000 0.23120  0.25410  0.10650  Biso   1.000  C
  C53      1.0000 0.26880  0.75410  0.10650  Biso   1.000  C
  C54      1.0000 0.23120  0.24590  0.60650  Biso   1.000  C
  C55      1.0000 0.73120  0.25410  0.39350  Biso   1.000  C
  C56      1.0000 0.76880  0.74590  0.89350  Biso   1.000  C
  H33      1.0000 0.68770  0.29360  0.89020  Biso   1.000  H
  H34      1.0000 0.81230  0.70640  0.39020  Biso   1.000  H
  H35      1.0000 0.31230  0.79360  0.60980  Biso   1.000  H
  H36      1.0000 0.18770  0.20640  0.10980  Biso   1.000  H
  H37      1.0000 0.31230  0.70640  0.10980  Biso   1.000  H
  H38      1.0000 0.18770  0.29360  0.60980  Biso   1.000  H
  H39      1.0000 0.68770  0.20640  0.39020  Biso   1.000  H
  H40      1.0000 0.81230  0.79360  0.89020  Biso   1.000  H
  H41      1.0000 0.80330  0.25720  0.91070  Biso   1.000  H
  H42      1.0000 0.69670  0.74280  0.41070  Biso   1.000  H
  H43      1.0000 0.19670  0.75720  0.58930  Biso   1.000  H
  H44      1.0000 0.30330  0.24280  0.08930  Biso   1.000  H
  H45      1.0000 0.19670  0.74280  0.08930  Biso   1.000  H
  H46      1.0000 0.30330  0.25720  0.58930  Biso   1.000  H
  H47      1.0000 0.80330  0.24280  0.41070  Biso   1.000  H
  H48      1.0000 0.69670  0.75720  0.91070  Biso   1.000  H
  H49      1.0000 0.68940  0.20880  0.91540  Biso   1.000  H
  H50      1.0000 0.81060  0.79120  0.41540  Biso   1.000  H
  H51      1.0000 0.31060  0.70880  0.58460  Biso   1.000  H
  H52      1.0000 0.18940  0.29120  0.08460  Biso   1.000  H
  H53      1.0000 0.31060  0.79120  0.08460  Biso   1.000  H
  H54      1.0000 0.18940  0.20880  0.58460  Biso   1.000  H
  H55      1.0000 0.68940  0.29120  0.41540  Biso   1.000  H
  H56      1.0000 0.81060  0.70880  0.91540  Biso   1.000  H
  C57      1.0000 0.75190  0.21160  0.83720  Biso   1.000  C
  C58      1.0000 0.74810  0.78840  0.33720  Biso   1.000  C
  C59      1.0000 0.24810  0.71160  0.66280  Biso   1.000  C
  C60      1.0000 0.25190  0.28840  0.16280  Biso   1.000  C
  C61      1.0000 0.24810  0.78840  0.16280  Biso   1.000  C
  C62      1.0000 0.25190  0.21160  0.66280  Biso   1.000  C
  C63      1.0000 0.75190  0.28840  0.33720  Biso   1.000  C
  C64      1.0000 0.74810  0.71160  0.83720  Biso   1.000  C
  C65      1.0000 0.91220  0.14680  0.87610  Biso   1.000  C
  C66      1.0000 0.58780  0.85320  0.37610  Biso   1.000  C
  C67      1.0000 0.08780  0.64680  0.62390  Biso   1.000  C
  C68      1.0000 0.41220  0.35320  0.12390  Biso   1.000  C
  C69      1.0000 0.08780  0.85320  0.12390  Biso   1.000  C
  C70      1.0000 0.41220  0.14680  0.62390  Biso   1.000  C
  C71      1.0000 0.91220  0.35320  0.37610  Biso   1.000  C
  C72      1.0000 0.58780  0.64680  0.87610  Biso   1.000  C
  H57      1.0000 0.86540  0.13490  0.90780  Biso   1.000  H
  H58      1.0000 0.63460  0.86510  0.40780  Biso   1.000  H
  H59      1.0000 0.13460  0.63490  0.59220  Biso   1.000  H
  H60      1.0000 0.36540  0.36510  0.09220  Biso   1.000  H
  H61      1.0000 0.13460  0.86510  0.09220  Biso   1.000  H
  H62      1.0000 0.36540  0.13490  0.59220  Biso   1.000  H
  H63      1.0000 0.86540  0.36510  0.40780  Biso   1.000  H
  H64      1.0000 0.63460  0.63490  0.90780  Biso   1.000  H
  H65      1.0000 0.95800  0.19280  0.88470  Biso   1.000  H
  H66      1.0000 0.54200  0.80720  0.38470  Biso   1.000  H
  H67      1.0000 0.04200  0.69280  0.61530  Biso   1.000  H
  H68      1.0000 0.45800  0.30720  0.11530  Biso   1.000  H
  H69      1.0000 0.04200  0.80720  0.11530  Biso   1.000  H
  H70      1.0000 0.45800  0.19280  0.61530  Biso   1.000  H
  H71      1.0000 0.95800  0.30720  0.38470  Biso   1.000  H
  H72      1.0000 0.54200  0.69280  0.88470  Biso   1.000  H
  C73      1.0000 0.98980  0.07870  0.86460  Biso   1.000  C
  C74      1.0000 0.51020  0.92130  0.36460  Biso   1.000  C
  C75      1.0000 0.01020  0.57870  0.63540  Biso   1.000  C
  C76      1.0000 0.48980  0.42130  0.13540  Biso   1.000  C
  C77      1.0000 0.01020  0.92130  0.13540  Biso   1.000  C
  C78      1.0000 0.48980  0.07870  0.63540  Biso   1.000  C
  C79      1.0000 0.98980  0.42130  0.36460  Biso   1.000  C
  C80      1.0000 0.51020  0.57870  0.86460  Biso   1.000  C
  H73      1.0000 0.06090  0.08610  0.88440  Biso   1.000  H
  H74      1.0000 0.43910  0.91390  0.38440  Biso   1.000  H
  H75      1.0000 0.93910  0.58610  0.61560  Biso   1.000  H
  H76      1.0000 0.56090  0.41390  0.11560  Biso   1.000  H
  H77      1.0000 0.93910  0.91390  0.11560  Biso   1.000  H
  H78      1.0000 0.56090  0.08610  0.61560  Biso   1.000  H
  H79      1.0000 0.06090  0.41390  0.38440  Biso   1.000  H
  H80      1.0000 0.43910  0.58610  0.88440  Biso   1.000  H
  H81      1.0000 0.95430  0.03090  0.87810  Biso   1.000  H
  H82      1.0000 0.54570  0.96910  0.37810  Biso   1.000  H
  H83      1.0000 0.04570  0.53090  0.62190  Biso   1.000  H
  H84      1.0000 0.45430  0.46910  0.12190  Biso   1.000  H
  H85      1.0000 0.04570  0.96910  0.12190  Biso   1.000  H
  H86      1.0000 0.45430  0.03090  0.62190  Biso   1.000  H
  H87      1.0000 0.95430  0.46910  0.37810  Biso   1.000  H
  H88      1.0000 0.54570  0.53090  0.87810  Biso   1.000  H
  C81      1.0000 0.16880  0.98360  0.83460  Biso   1.000  C
  C82      1.0000 0.33120  0.01640  0.33460  Biso   1.000  C
  C83      1.0000 0.83120  0.48360  0.66540  Biso   1.000  C
  C84      1.0000 0.66880  0.51640  0.16540  Biso   1.000  C
  C85      1.0000 0.83120  0.01640  0.16540  Biso   1.000  C
  C86      1.0000 0.66880  0.98360  0.66540  Biso   1.000  C
  C87      1.0000 0.16880  0.51640  0.33460  Biso   1.000  C
  C88      1.0000 0.33120  0.48360  0.83460  Biso   1.000  C
  H89      1.0000 0.22020  0.94690  0.81770  Biso   1.000  H
  H90      1.0000 0.27980  0.05310  0.31770  Biso   1.000  H
  H91      1.0000 0.77980  0.44690  0.68230  Biso   1.000  H
  H92      1.0000 0.72020  0.55310  0.18230  Biso   1.000  H
  H93      1.0000 0.77980  0.05310  0.18230  Biso   1.000  H
  H94      1.0000 0.72020  0.94690  0.68230  Biso   1.000  H
  H95      1.0000 0.22020  0.55310  0.31770  Biso   1.000  H
  H96      1.0000 0.27980  0.44690  0.81770  Biso   1.000  H
  H97      1.0000 0.11840  0.95610  0.85900  Biso   1.000  H
  H98      1.0000 0.38160  0.04390  0.35900  Biso   1.000  H
  H99      1.0000 0.88160  0.45610  0.64100  Biso   1.000  H
  H100     1.0000 0.61840  0.54390  0.14100  Biso   1.000  H
  H101     1.0000 0.88160  0.04390  0.14100  Biso   1.000  H
  H102     1.0000 0.61840  0.95610  0.64100  Biso   1.000  H
  H103     1.0000 0.11840  0.54390  0.35900  Biso   1.000  H
  H104     1.0000 0.38160  0.45610  0.85900  Biso   1.000  H
  H105     1.0000 0.21210  0.02190  0.85490  Biso   1.000  H
  H106     1.0000 0.28790  0.97810  0.35490  Biso   1.000  H
  H107     1.0000 0.78790  0.52190  0.64510  Biso   1.000  H
  H108     1.0000 0.71210  0.47810  0.14510  Biso   1.000  H
  H109     1.0000 0.78790  0.97810  0.14510  Biso   1.000  H
  H110     1.0000 0.71210  0.02190  0.64510  Biso   1.000  H
  H111     1.0000 0.21210  0.47810  0.35490  Biso   1.000  H
  H112     1.0000 0.28790  0.52190  0.85490  Biso   1.000  H
  C89      1.0000 0.09960  0.02450  0.79130  Biso   1.000  C
  C90      1.0000 0.40040  0.97550  0.29130  Biso   1.000  C
  C91      1.0000 0.90040  0.52450  0.70870  Biso   1.000  C
  C92      1.0000 0.59960  0.47550  0.20870  Biso   1.000  C
  C93      1.0000 0.90040  0.97550  0.20870  Biso   1.000  C
  C94      1.0000 0.59960  0.02450  0.70870  Biso   1.000  C
  C95      1.0000 0.09960  0.47550  0.29130  Biso   1.000  C
  C96      1.0000 0.40040  0.52450  0.79130  Biso   1.000  C
  C97      1.0000 0.12960  0.01220  0.73310  Biso   1.000  C
  C98      1.0000 0.37040  0.98780  0.23310  Biso   1.000  C
  C99      1.0000 0.87040  0.51220  0.76690  Biso   1.000  C
  C100     1.0000 0.62960  0.48780  0.26690  Biso   1.000  C
  C101     1.0000 0.87040  0.98780  0.26690  Biso   1.000  C
  C102     1.0000 0.62960  0.01220  0.76690  Biso   1.000  C
  C103     1.0000 0.12960  0.48780  0.23310  Biso   1.000  C
  C104     1.0000 0.37040  0.51220  0.73310  Biso   1.000  C
  C105     1.0000 0.22980  0.96790  0.72310  Biso   1.000  C
  C106     1.0000 0.27020  0.03210  0.22310  Biso   1.000  C
  C107     1.0000 0.77020  0.46790  0.77690  Biso   1.000  C
  C108     1.0000 0.72980  0.53210  0.27690  Biso   1.000  C
  C109     1.0000 0.77020  0.03210  0.27690  Biso   1.000  C
  C110     1.0000 0.72980  0.96790  0.77690  Biso   1.000  C
  C111     1.0000 0.22980  0.53210  0.22310  Biso   1.000  C
  C112     1.0000 0.27020  0.46790  0.72310  Biso   1.000  C
  H113     1.0000 0.27290  0.95070  0.75280  Biso   1.000  H
  H114     1.0000 0.22710  0.04930  0.25280  Biso   1.000  H
  H115     1.0000 0.72710  0.45070  0.74720  Biso   1.000  H
  H116     1.0000 0.77290  0.54930  0.24720  Biso   1.000  H
  H117     1.0000 0.72710  0.04930  0.24720  Biso   1.000  H
  H118     1.0000 0.77290  0.95070  0.74720  Biso   1.000  H
  H119     1.0000 0.27290  0.54930  0.25280  Biso   1.000  H
  H120     1.0000 0.22710  0.45070  0.75280  Biso   1.000  H
  C113     1.0000 0.26610  0.94910  0.67090  Biso   1.000  C
  C114     1.0000 0.23390  0.05090  0.17090  Biso   1.000  C
  C115     1.0000 0.73390  0.44910  0.82910  Biso   1.000  C
  C116     1.0000 0.76610  0.55090  0.32910  Biso   1.000  C
  C117     1.0000 0.73390  0.05090  0.32910  Biso   1.000  C
  C118     1.0000 0.76610  0.94910  0.82910  Biso   1.000  C
  C119     1.0000 0.26610  0.55090  0.17090  Biso   1.000  C
  C120     1.0000 0.23390  0.44910  0.67090  Biso   1.000  C
  H121     1.0000 0.33350  0.92100  0.66570  Biso   1.000  H
  H122     1.0000 0.16650  0.07900  0.16570  Biso   1.000  H
  H123     1.0000 0.66650  0.42100  0.83430  Biso   1.000  H
  H124     1.0000 0.83350  0.57900  0.33430  Biso   1.000  H
  H125     1.0000 0.66650  0.07900  0.33430  Biso   1.000  H
  H126     1.0000 0.83350  0.92100  0.83430  Biso   1.000  H
  H127     1.0000 0.33350  0.57900  0.16570  Biso   1.000  H
  H128     1.0000 0.16650  0.42100  0.66570  Biso   1.000  H
  C121     1.0000 0.20220  0.97230  0.62710  Biso   1.000  C
  C122     1.0000 0.29780  0.02770  0.12710  Biso   1.000  C
  C123     1.0000 0.79780  0.47230  0.87290  Biso   1.000  C
  C124     1.0000 0.70220  0.52770  0.37290  Biso   1.000  C
  C125     1.0000 0.79780  0.02770  0.37290  Biso   1.000  C
  C126     1.0000 0.70220  0.97230  0.87290  Biso   1.000  C
  C127     1.0000 0.20220  0.52770  0.12710  Biso   1.000  C
  C128     1.0000 0.29780  0.47230  0.62710  Biso   1.000  C
  H129     1.0000 0.22370  0.95750  0.59190  Biso   1.000  H
  H130     1.0000 0.27630  0.04250  0.09190  Biso   1.000  H
  H131     1.0000 0.77630  0.45750  0.90810  Biso   1.000  H
  H132     1.0000 0.72370  0.54250  0.40810  Biso   1.000  H
  H133     1.0000 0.77630  0.04250  0.40810  Biso   1.000  H
  H134     1.0000 0.72370  0.95750  0.90810  Biso   1.000  H
  H135     1.0000 0.22370  0.54250  0.09190  Biso   1.000  H
  H136     1.0000 0.27630  0.45750  0.59190  Biso   1.000  H
  C129     1.0000 0.10620  0.01730  0.63490  Biso   1.000  C
  C130     1.0000 0.39380  0.98270  0.13490  Biso   1.000  C
  C131     1.0000 0.89380  0.51730  0.86510  Biso   1.000  C
  C132     1.0000 0.60620  0.48270  0.36510  Biso   1.000  C
  C133     1.0000 0.89380  0.98270  0.36510  Biso   1.000  C
  C134     1.0000 0.60620  0.01730  0.86510  Biso   1.000  C
  C135     1.0000 0.10620  0.48270  0.13490  Biso   1.000  C
  C136     1.0000 0.39380  0.51730  0.63490  Biso   1.000  C
  H137     1.0000 0.06470  0.03370  0.60440  Biso   1.000  H
  H138     1.0000 0.43530  0.96630  0.10440  Biso   1.000  H
  H139     1.0000 0.93530  0.53370  0.89560  Biso   1.000  H
  H140     1.0000 0.56470  0.46630  0.39560  Biso   1.000  H
  H141     1.0000 0.93530  0.96630  0.39560  Biso   1.000  H
  H142     1.0000 0.56470  0.03370  0.89560  Biso   1.000  H
  H143     1.0000 0.06470  0.46630  0.10440  Biso   1.000  H
  H144     1.0000 0.43530  0.53370  0.60440  Biso   1.000  H
  C137     1.0000 0.06800  0.03960  0.68720  Biso   1.000  C
  C138     1.0000 0.43200  0.96040  0.18720  Biso   1.000  C
  C139     1.0000 0.93200  0.53960  0.81280  Biso   1.000  C
  C140     1.0000 0.56800  0.46040  0.31280  Biso   1.000  C
  C141     1.0000 0.93200  0.96040  0.31280  Biso   1.000  C
  C142     1.0000 0.56800  0.03960  0.81280  Biso   1.000  C
  C143     1.0000 0.06800  0.46040  0.18720  Biso   1.000  C
  C144     1.0000 0.43200  0.53960  0.68720  Biso   1.000  C
  C145     1.0000 0.82280  0.18120  0.66450  Biso   1.000  C
  C146     1.0000 0.67720  0.81880  0.16450  Biso   1.000  C
  C147     1.0000 0.17720  0.68120  0.83550  Biso   1.000  C
  C148     1.0000 0.32280  0.31880  0.33550  Biso   1.000  C
  C149     1.0000 0.17720  0.81880  0.33550  Biso   1.000  C
  C150     1.0000 0.32280  0.18120  0.83550  Biso   1.000  C
  C151     1.0000 0.82280  0.31880  0.16450  Biso   1.000  C
  C152     1.0000 0.67720  0.68120  0.66450  Biso   1.000  C
  C153     1.0000 0.92310  0.12660  0.65130  Biso   1.000  C
  C154     1.0000 0.57690  0.87340  0.15130  Biso   1.000  C
  C155     1.0000 0.07690  0.62660  0.84870  Biso   1.000  C
  C156     1.0000 0.42310  0.37340  0.34870  Biso   1.000  C
  C157     1.0000 0.07690  0.87340  0.34870  Biso   1.000  C
  C158     1.0000 0.42310  0.12660  0.84870  Biso   1.000  C
  C159     1.0000 0.92310  0.37340  0.15130  Biso   1.000  C
  C160     1.0000 0.57690  0.62660  0.65130  Biso   1.000  C
  C161     1.0000 0.88870  0.48660  0.51590  Biso   1.000  C
  C162     1.0000 0.61130  0.51340  0.01590  Biso   1.000  C
  C163     1.0000 0.11130  0.98660  0.98410  Biso   1.000  C
  C164     1.0000 0.38870  0.01340  0.48410  Biso   1.000  C
  C165     1.0000 0.11130  0.51340  0.48410  Biso   1.000  C
  C166     1.0000 0.38870  0.48660  0.98410  Biso   1.000  C
  C167     1.0000 0.88870  0.01340  0.01590  Biso   1.000  C
  C168     1.0000 0.61130  0.98660  0.51590  Biso   1.000  C
  H145     1.0000 0.81330  0.47700  0.52630  Biso   1.000  H
  H146     1.0000 0.68670  0.52300  0.02630  Biso   1.000  H
  H147     1.0000 0.18670  0.97700  0.97370  Biso   1.000  H
  H148     1.0000 0.31330  0.02300  0.47370  Biso   1.000  H
  H149     1.0000 0.18670  0.52300  0.47370  Biso   1.000  H
  H150     1.0000 0.31330  0.47700  0.97370  Biso   1.000  H
  H151     1.0000 0.81330  0.02300  0.02630  Biso   1.000  H
  H152     1.0000 0.68670  0.97700  0.52630  Biso   1.000  H
  C169     1.0000 0.96420  0.42430  0.51290  Biso   1.000  C
  C170     1.0000 0.53580  0.57570  0.01290  Biso   1.000  C
  C171     1.0000 0.03580  0.92430  0.98710  Biso   1.000  C
  C172     1.0000 0.46420  0.07570  0.48710  Biso   1.000  C
  C173     1.0000 0.03580  0.57570  0.48710  Biso   1.000  C
  C174     1.0000 0.46420  0.42430  0.98710  Biso   1.000  C
  C175     1.0000 0.96420  0.07570  0.01290  Biso   1.000  C
  C176     1.0000 0.53580  0.92430  0.51290  Biso   1.000  C
  C177     1.0000 0.92400  0.34360  0.53090  Biso   1.000  C
  C178     1.0000 0.57600  0.65640  0.03090  Biso   1.000  C
  C179     1.0000 0.07600  0.84360  0.96910  Biso   1.000  C
  C180     1.0000 0.42400  0.15640  0.46910  Biso   1.000  C
  C181     1.0000 0.07600  0.65640  0.46910  Biso   1.000  C
  C182     1.0000 0.42400  0.34360  0.96910  Biso   1.000  C
  C183     1.0000 0.92400  0.15640  0.03090  Biso   1.000  C
  C184     1.0000 0.57600  0.84360  0.53090  Biso   1.000  C
  C185     1.0000 0.92220  0.56320  0.50390  Biso   1.000  C
  C186     1.0000 0.57780  0.43680  0.00390  Biso   1.000  C
  C187     1.0000 0.07780  0.06320  0.99610  Biso   1.000  C
  C188     1.0000 0.42220  0.93680  0.49610  Biso   1.000  C
  C189     1.0000 0.07780  0.43680  0.49610  Biso   1.000  C
  C190     1.0000 0.42220  0.56320  0.99610  Biso   1.000  C
  C191     1.0000 0.92220  0.93680  0.00390  Biso   1.000  C
  C192     1.0000 0.57780  0.06320  0.50390  Biso   1.000  C
  C193     1.0000 0.84020  0.63010  0.51670  Biso   1.000  C
  C194     1.0000 0.65980  0.36990  0.01670  Biso   1.000  C
  C195     1.0000 0.15980  0.13010  0.98330  Biso   1.000  C
  C196     1.0000 0.34020  0.86990  0.48330  Biso   1.000  C
  C197     1.0000 0.15980  0.36990  0.48330  Biso   1.000  C
  C198     1.0000 0.34020  0.63010  0.98330  Biso   1.000  C
  C199     1.0000 0.84020  0.86990  0.01670  Biso   1.000  C
  C200     1.0000 0.65980  0.13010  0.51670  Biso   1.000  C
  C201     1.0000 0.04630  0.10840  0.48250  Biso   1.000  C
  C202     1.0000 0.45370  0.89160  0.98250  Biso   1.000  C
  C203     1.0000 0.95370  0.60840  0.01750  Biso   1.000  C
  C204     1.0000 0.54630  0.39160  0.51750  Biso   1.000  C
  C205     1.0000 0.95370  0.89160  0.51750  Biso   1.000  C
  C206     1.0000 0.54630  0.10840  0.01750  Biso   1.000  C
  C207     1.0000 0.04630  0.39160  0.98250  Biso   1.000  C
  C208     1.0000 0.45370  0.60840  0.48250  Biso   1.000  C
  H153     1.0000 0.99160  0.06590  0.48660  Biso   1.000  H
  H154     1.0000 0.50840  0.93410  0.98660  Biso   1.000  H
  H155     1.0000 0.00840  0.56590  0.01340  Biso   1.000  H
  H156     1.0000 0.49160  0.43410  0.51340  Biso   1.000  H
  H157     1.0000 0.00840  0.93410  0.51340  Biso   1.000  H
  H158     1.0000 0.49160  0.06590  0.01340  Biso   1.000  H
  H159     1.0000 0.99160  0.43410  0.98660  Biso   1.000  H
  H160     1.0000 0.50840  0.56590  0.48660  Biso   1.000  H
  H161     1.0000 0.10480  0.10220  0.51030  Biso   1.000  H
  H162     1.0000 0.39520  0.89780  0.01030  Biso   1.000  H
  H163     1.0000 0.89520  0.60220  0.98970  Biso   1.000  H
  H164     1.0000 0.60480  0.39780  0.48970  Biso   1.000  H
  H165     1.0000 0.89520  0.89780  0.48970  Biso   1.000  H
  H166     1.0000 0.60480  0.10220  0.98970  Biso   1.000  H
  H167     1.0000 0.10480  0.39780  0.01030  Biso   1.000  H
  H168     1.0000 0.39520  0.60220  0.51030  Biso   1.000  H
  C209     1.0000 0.10030  0.10400  0.42710  Biso   1.000  C
  C210     1.0000 0.39970  0.89600  0.92710  Biso   1.000  C
  C211     1.0000 0.89970  0.60400  0.07290  Biso   1.000  C
  C212     1.0000 0.60030  0.39600  0.57290  Biso   1.000  C
  C213     1.0000 0.89970  0.89600  0.57290  Biso   1.000  C
  C214     1.0000 0.60030  0.10400  0.07290  Biso   1.000  C
  C215     1.0000 0.10030  0.39600  0.92710  Biso   1.000  C
  C216     1.0000 0.39970  0.60400  0.42710  Biso   1.000  C
  H169     1.0000 0.04300  0.11250  0.39960  Biso   1.000  H
  H170     1.0000 0.45700  0.88750  0.89960  Biso   1.000  H
  H171     1.0000 0.95700  0.61250  0.10040  Biso   1.000  H
  H172     1.0000 0.54300  0.38750  0.60040  Biso   1.000  H
  H173     1.0000 0.95700  0.88750  0.60040  Biso   1.000  H
  H174     1.0000 0.54300  0.11250  0.10040  Biso   1.000  H
  H175     1.0000 0.04300  0.38750  0.89960  Biso   1.000  H
  H176     1.0000 0.45700  0.61250  0.39960  Biso   1.000  H
  H177     1.0000 0.13400  0.05290  0.42220  Biso   1.000  H
  H178     1.0000 0.36600  0.94710  0.92220  Biso   1.000  H
  H179     1.0000 0.86600  0.55290  0.07780  Biso   1.000  H
  H180     1.0000 0.63400  0.44710  0.57780  Biso   1.000  H
  H181     1.0000 0.86600  0.94710  0.57780  Biso   1.000  H
  H182     1.0000 0.63400  0.05290  0.07780  Biso   1.000  H
  H183     1.0000 0.13400  0.44710  0.92220  Biso   1.000  H
  H184     1.0000 0.36600  0.55290  0.42220  Biso   1.000  H
  H185     1.0000 0.15850  0.14360  0.42410  Biso   1.000  H
  H186     1.0000 0.34150  0.85640  0.92410  Biso   1.000  H
  H187     1.0000 0.84150  0.64360  0.07590  Biso   1.000  H
  H188     1.0000 0.65850  0.35640  0.57590  Biso   1.000  H
  H189     1.0000 0.84150  0.85640  0.57590  Biso   1.000  H
  H190     1.0000 0.65850  0.14360  0.07590  Biso   1.000  H
  H191     1.0000 0.15850  0.35640  0.92410  Biso   1.000  H
  H192     1.0000 0.34150  0.64360  0.42410  Biso   1.000  H
  N1       1.0000 0.83760  0.16460  0.82950  Biso   1.000  N
  N2       1.0000 0.66240  0.83540  0.32950  Biso   1.000  N
  N3       1.0000 0.16240  0.66460  0.67050  Biso   1.000  N
  N4       1.0000 0.33760  0.33540  0.17050  Biso   1.000  N
  N5       1.0000 0.16240  0.83540  0.17050  Biso   1.000  N
  N6       1.0000 0.33760  0.16460  0.67050  Biso   1.000  N
  N7       1.0000 0.83760  0.33540  0.32950  Biso   1.000  N
  N8       1.0000 0.66240  0.66460  0.82950  Biso   1.000  N
  N9       1.0000 0.01570  0.06900  0.80610  Biso   1.000  N
  N10      1.0000 0.48430  0.93100  0.30610  Biso   1.000  N
  N11      1.0000 0.98430  0.56900  0.69390  Biso   1.000  N
  N12      1.0000 0.51570  0.43100  0.19390  Biso   1.000  N
  N13      1.0000 0.98430  0.93100  0.19390  Biso   1.000  N
  N14      1.0000 0.51570  0.06900  0.69390  Biso   1.000  N
  N15      1.0000 0.01570  0.43100  0.30610  Biso   1.000  N
  N16      1.0000 0.48430  0.56900  0.80610  Biso   1.000  N
  N17      1.0000 0.96940  0.08860  0.69320  Biso   1.000  N
  N18      1.0000 0.53060  0.91140  0.19320  Biso   1.000  N
  N19      1.0000 0.03060  0.58860  0.80680  Biso   1.000  N
  N20      1.0000 0.46940  0.41140  0.30680  Biso   1.000  N
  N21      1.0000 0.03060  0.91140  0.30680  Biso   1.000  N
  N22      1.0000 0.46940  0.08860  0.80680  Biso   1.000  N
  N23      1.0000 0.96940  0.41140  0.19320  Biso   1.000  N
  N24      1.0000 0.53060  0.58860  0.69320  Biso   1.000  N
  N25      1.0000 0.79110  0.18280  0.71700  Biso   1.000  N
  N26      1.0000 0.70890  0.81720  0.21700  Biso   1.000  N
  N27      1.0000 0.20890  0.68280  0.78300  Biso   1.000  N
  N28      1.0000 0.29110  0.31720  0.28300  Biso   1.000  N
  N29      1.0000 0.20890  0.81720  0.28300  Biso   1.000  N
  N30      1.0000 0.29110  0.18280  0.78300  Biso   1.000  N
  N31      1.0000 0.79110  0.31720  0.21700  Biso   1.000  N
  N32      1.0000 0.70890  0.68280  0.71700  Biso   1.000  N
  O1       1.0000 0.94810  0.12350  0.60166  Biso   1.000  O
  O2       1.0000 0.55190  0.87650  0.10166  Biso   1.000  O
  O3       1.0000 0.05190  0.62350  0.89834  Biso   1.000  O
  O4       1.0000 0.44810  0.37650  0.39834  Biso   1.000  O
  O5       1.0000 0.05190  0.87650  0.39834  Biso   1.000  O
  O6       1.0000 0.44810  0.12350  0.89834  Biso   1.000  O
  O7       1.0000 0.94810  0.37650  0.10166  Biso   1.000  O
  O8       1.0000 0.55190  0.62350  0.60166  Biso   1.000  O
  O9       1.0000 0.78320  0.21960  0.62540  Biso   1.000  O
  O10      1.0000 0.71680  0.78040  0.12540  Biso   1.000  O
  O11      1.0000 0.21680  0.71960  0.87460  Biso   1.000  O
  O12      1.0000 0.28320  0.28040  0.37460  Biso   1.000  O
  O13      1.0000 0.21680  0.78040  0.37460  Biso   1.000  O
  O14      1.0000 0.28320  0.21960  0.87460  Biso   1.000  O
  O15      1.0000 0.78320  0.28040  0.12540  Biso   1.000  O
  O16      1.0000 0.71680  0.71960  0.62540  Biso   1.000  O
  O17      1.0000 0.97190  0.31040  0.57070  Biso   1.000  O
  O18      1.0000 0.52810  0.68960  0.07070  Biso   1.000  O
  O19      1.0000 0.02810  0.81040  0.92930  Biso   1.000  O
  O20      1.0000 0.47190  0.18960  0.42930  Biso   1.000  O
  O21      1.0000 0.02810  0.68960  0.42930  Biso   1.000  O
  O22      1.0000 0.47190  0.31040  0.92930  Biso   1.000  O
  O23      1.0000 0.97190  0.18960  0.07070  Biso   1.000  O
  O24      1.0000 0.52810  0.81040  0.57070  Biso   1.000  O
  O25      1.0000 0.83880  0.31280  0.50760  Biso   1.000  O
  O26      1.0000 0.66120  0.68720  0.00760  Biso   1.000  O
  O27      1.0000 0.16120  0.81280  0.99240  Biso   1.000  O
  O28      1.0000 0.33880  0.18720  0.49240  Biso   1.000  O
  O29      1.0000 0.16120  0.68720  0.49240  Biso   1.000  O
  O30      1.0000 0.33880  0.31280  0.99240  Biso   1.000  O
  O31      1.0000 0.83880  0.18720  0.00760  Biso   1.000  O
  O32      1.0000 0.66120  0.81280  0.50760  Biso   1.000  O
  O33      1.0000 0.87960  0.69460  0.53070  Biso   1.000  O
  O34      1.0000 0.62040  0.30540  0.03070  Biso   1.000  O
  O35      1.0000 0.12040  0.19460  0.96930  Biso   1.000  O
  O36      1.0000 0.37960  0.80540  0.46930  Biso   1.000  O
  O37      1.0000 0.12040  0.30540  0.46930  Biso   1.000  O
  O38      1.0000 0.37960  0.69460  0.96930  Biso   1.000  O
  O39      1.0000 0.87960  0.80540  0.03070  Biso   1.000  O
  O40      1.0000 0.62040  0.19460  0.53070  Biso   1.000  O
  O41      1.0000 0.73460  0.61420  0.51630  Biso   1.000  O
  O42      1.0000 0.76540  0.38580  0.01630  Biso   1.000  O
  O43      1.0000 0.26540  0.11420  0.98370  Biso   1.000  O
  O44      1.0000 0.23460  0.88580  0.48370  Biso   1.000  O
  O45      1.0000 0.26540  0.38580  0.48370  Biso   1.000  O
  O46      1.0000 0.23460  0.61420  0.98370  Biso   1.000  O
  O47      1.0000 0.73460  0.88580  0.01630  Biso   1.000  O
  O48      1.0000 0.76540  0.11420  0.51630  Biso   1.000  O
  O49      1.0000 0.98950  0.18210  0.49000  Biso   1.000  O
  O50      1.0000 0.51050  0.81790  0.99000  Biso   1.000  O
  O51      1.0000 0.01050  0.68210  0.01000  Biso   1.000  O
  O52      1.0000 0.48950  0.31790  0.51000  Biso   1.000  O
  O53      1.0000 0.01050  0.81790  0.51000  Biso   1.000  O
  O54      1.0000 0.48950  0.18210  0.01000  Biso   1.000  O
  O55      1.0000 0.98950  0.31790  0.99000  Biso   1.000  O
  O56      1.0000 0.51050  0.68210  0.49000  Biso   1.000  O
  H193     1.0000 0.05300  0.24100  0.48300  Biso   1.000  H
  H194     1.0000 0.44700  0.75900  0.98300  Biso   1.000  H
  H195     1.0000 0.94700  0.74100  0.01700  Biso   1.000  H
  H196     1.0000 0.55300  0.25900  0.51700  Biso   1.000  H
  H197     1.0000 0.94700  0.75900  0.51700  Biso   1.000  H
  H198     1.0000 0.55300  0.24100  0.01700  Biso   1.000  H
  H199     1.0000 0.05300  0.25900  0.98300  Biso   1.000  H
  H200     1.0000 0.44700  0.74100  0.48300  Biso   1.000  H
