data_image0
_cell_length_a       16.4943
_cell_length_b       16.4943
_cell_length_c       16.4943
_cell_angle_alpha    90
_cell_angle_beta     90
_cell_angle_gamma    90

_symmetry_space_group_name_H-M    "P 1"
_symmetry_int_tables_number       1

loop_
  _symmetry_equiv_pos_as_xyz
  'x, y, z'

loop_
  _atom_site_label
  _atom_site_occupancy
  _atom_site_fract_x
  _atom_site_fract_y
  _atom_site_fract_z
  _atom_site_thermal_displace_type
  _atom_site_B_iso_or_equiv
  _atom_site_type_symbol
  Cu1      1.0000 0.75000  0.25000  0.25000  Biso   1.000  Cu
  Cu2      1.0000 0.25000  0.75000  0.25000  Biso   1.000  Cu
  Cu3      1.0000 0.25000  0.25000  0.75000  Biso   1.000  Cu
  Cu4      1.0000 0.25000  0.75000  0.75000  Biso   1.000  Cu
  Cu5      1.0000 0.75000  0.25000  0.75000  Biso   1.000  Cu
  Cu6      1.0000 0.75000  0.75000  0.25000  Biso   1.000  Cu
  V1       1.0000 0.51442  0.25000  0.25000  Biso   1.000  V
  V2       1.0000 0.25000  0.51442  0.25000  Biso   1.000  V
  V3       1.0000 0.25000  0.98558  0.25000  Biso   1.000  V
  V4       1.0000 0.25000  0.25000  0.51442  Biso   1.000  V
  V5       1.0000 0.25000  0.25000  0.98558  Biso   1.000  V
  V6       1.0000 0.98558  0.25000  0.25000  Biso   1.000  V
  V7       1.0000 0.48558  0.75000  0.75000  Biso   1.000  V
  V8       1.0000 0.75000  0.48558  0.75000  Biso   1.000  V
  V9       1.0000 0.75000  0.01442  0.75000  Biso   1.000  V
  V10      1.0000 0.75000  0.75000  0.48558  Biso   1.000  V
  V11      1.0000 0.75000  0.75000  0.01442  Biso   1.000  V
  V12      1.0000 0.01442  0.75000  0.75000  Biso   1.000  V
  V13      1.0000 0.25000  0.25000  0.25000  Biso   1.000  V
  V14      1.0000 0.75000  0.75000  0.75000  Biso   1.000  V
  F1       1.0000 0.49362  0.36289  0.24372  Biso   1.000  F
  F2       1.0000 0.13711  0.49362  0.24372  Biso   1.000  F
  F3       1.0000 0.36289  0.49362  0.25628  Biso   1.000  F
  F4       1.0000 0.36289  0.00638  0.24372  Biso   1.000  F
  F5       1.0000 0.36289  0.24372  0.49362  Biso   1.000  F
  F6       1.0000 0.25628  0.36289  0.49362  Biso   1.000  F
  F7       1.0000 0.24372  0.13711  0.49362  Biso   1.000  F
  F8       1.0000 0.24372  0.36289  0.00638  Biso   1.000  F
  F9       1.0000 0.24372  0.49362  0.36289  Biso   1.000  F
  F10      1.0000 0.00638  0.24372  0.36289  Biso   1.000  F
  F11      1.0000 0.49362  0.25628  0.36289  Biso   1.000  F
  F12      1.0000 0.49362  0.24372  0.13711  Biso   1.000  F
  F13      1.0000 0.49362  0.13711  0.25628  Biso   1.000  F
  F14      1.0000 0.00638  0.13711  0.24372  Biso   1.000  F
  F15      1.0000 0.00638  0.36289  0.25628  Biso   1.000  F
  F16      1.0000 0.13711  0.00638  0.25628  Biso   1.000  F
  F17      1.0000 0.13711  0.25628  0.49362  Biso   1.000  F
  F18      1.0000 0.36289  0.25628  0.00638  Biso   1.000  F
  F19      1.0000 0.13711  0.24372  0.00638  Biso   1.000  F
  F20      1.0000 0.25628  0.13711  0.00638  Biso   1.000  F
  F21      1.0000 0.25628  0.49362  0.13711  Biso   1.000  F
  F22      1.0000 0.25628  0.00638  0.36289  Biso   1.000  F
  F23      1.0000 0.24372  0.00638  0.13711  Biso   1.000  F
  F24      1.0000 0.00638  0.25628  0.13711  Biso   1.000  F
  F25      1.0000 0.50638  0.63711  0.75628  Biso   1.000  F
  F26      1.0000 0.86289  0.50638  0.75628  Biso   1.000  F
  F27      1.0000 0.63711  0.50638  0.74372  Biso   1.000  F
  F28      1.0000 0.63711  0.99362  0.75628  Biso   1.000  F
  F29      1.0000 0.63711  0.75628  0.50638  Biso   1.000  F
  F30      1.0000 0.74372  0.63711  0.50638  Biso   1.000  F
  F31      1.0000 0.75628  0.86289  0.50638  Biso   1.000  F
  F32      1.0000 0.75628  0.63711  0.99362  Biso   1.000  F
  F33      1.0000 0.75628  0.50638  0.63711  Biso   1.000  F
  F34      1.0000 0.99362  0.75628  0.63711  Biso   1.000  F
  F35      1.0000 0.50638  0.74372  0.63711  Biso   1.000  F
  F36      1.0000 0.50638  0.75628  0.86289  Biso   1.000  F
  F37      1.0000 0.50638  0.86289  0.74372  Biso   1.000  F
  F38      1.0000 0.99362  0.86289  0.75628  Biso   1.000  F
  F39      1.0000 0.99362  0.63711  0.74372  Biso   1.000  F
  F40      1.0000 0.86289  0.99362  0.74372  Biso   1.000  F
  F41      1.0000 0.86289  0.74372  0.50638  Biso   1.000  F
  F42      1.0000 0.63711  0.74372  0.99362  Biso   1.000  F
  F43      1.0000 0.86289  0.75628  0.99362  Biso   1.000  F
  F44      1.0000 0.74372  0.86289  0.99362  Biso   1.000  F
  F45      1.0000 0.74372  0.50638  0.86289  Biso   1.000  F
  F46      1.0000 0.74372  0.99362  0.63711  Biso   1.000  F
  F47      1.0000 0.75628  0.99362  0.86289  Biso   1.000  F
  F48      1.0000 0.99362  0.74372  0.86289  Biso   1.000  F
  F49      1.0000 0.36780  0.25000  0.25000  Biso   1.000  F
  F50      1.0000 0.25000  0.36780  0.25000  Biso   1.000  F
  F51      1.0000 0.25000  0.13220  0.25000  Biso   1.000  F
  F52      1.0000 0.25000  0.25000  0.36780  Biso   1.000  F
  F53      1.0000 0.25000  0.25000  0.13220  Biso   1.000  F
  F54      1.0000 0.13220  0.25000  0.25000  Biso   1.000  F
  F55      1.0000 0.63220  0.75000  0.75000  Biso   1.000  F
  F56      1.0000 0.75000  0.63220  0.75000  Biso   1.000  F
  F57      1.0000 0.75000  0.86780  0.75000  Biso   1.000  F
  F58      1.0000 0.75000  0.75000  0.63220  Biso   1.000  F
  F59      1.0000 0.75000  0.75000  0.86780  Biso   1.000  F
  F60      1.0000 0.86780  0.75000  0.75000  Biso   1.000  F
  O1       1.0000 0.61408  0.25000  0.25000  Biso   1.000  O
  O2       1.0000 0.25000  0.61408  0.25000  Biso   1.000  O
  O3       1.0000 0.25000  0.88592  0.25000  Biso   1.000  O
  O4       1.0000 0.25000  0.25000  0.61408  Biso   1.000  O
  O5       1.0000 0.25000  0.25000  0.88592  Biso   1.000  O
  O6       1.0000 0.88592  0.25000  0.25000  Biso   1.000  O
  O7       1.0000 0.38592  0.75000  0.75000  Biso   1.000  O
  O8       1.0000 0.75000  0.38592  0.75000  Biso   1.000  O
  O9       1.0000 0.75000  0.11408  0.75000  Biso   1.000  O
  O10      1.0000 0.75000  0.75000  0.38592  Biso   1.000  O
  O11      1.0000 0.75000  0.75000  0.11408  Biso   1.000  O
  O12      1.0000 0.11408  0.75000  0.75000  Biso   1.000  O
  N1       1.0000 0.75000  0.33729  0.16271  Biso   1.000  N
  N2       1.0000 0.16271  0.75000  0.16271  Biso   1.000  N
  N3       1.0000 0.33729  0.75000  0.33729  Biso   1.000  N
  N4       1.0000 0.33729  0.75000  0.16271  Biso   1.000  N
  N5       1.0000 0.33729  0.16271  0.75000  Biso   1.000  N
  N6       1.0000 0.33729  0.33729  0.75000  Biso   1.000  N
  N7       1.0000 0.16271  0.16271  0.75000  Biso   1.000  N
  N8       1.0000 0.16271  0.33729  0.75000  Biso   1.000  N
  N9       1.0000 0.16271  0.75000  0.33729  Biso   1.000  N
  N10      1.0000 0.75000  0.16271  0.33729  Biso   1.000  N
  N11      1.0000 0.75000  0.33729  0.33729  Biso   1.000  N
  N12      1.0000 0.75000  0.16271  0.16271  Biso   1.000  N
  N13      1.0000 0.25000  0.66271  0.83729  Biso   1.000  N
  N14      1.0000 0.83729  0.25000  0.83729  Biso   1.000  N
  N15      1.0000 0.66271  0.25000  0.66271  Biso   1.000  N
  N16      1.0000 0.66271  0.25000  0.83729  Biso   1.000  N
  N17      1.0000 0.66271  0.83729  0.25000  Biso   1.000  N
  N18      1.0000 0.66271  0.66271  0.25000  Biso   1.000  N
  N19      1.0000 0.83729  0.83729  0.25000  Biso   1.000  N
  N20      1.0000 0.83729  0.66271  0.25000  Biso   1.000  N
  N21      1.0000 0.83729  0.25000  0.66271  Biso   1.000  N
  N22      1.0000 0.25000  0.83729  0.66271  Biso   1.000  N
  N23      1.0000 0.25000  0.66271  0.66271  Biso   1.000  N
  N24      1.0000 0.25000  0.83729  0.83729  Biso   1.000  N
  N25      1.0000 0.38118  0.38118  0.11882  Biso   1.000  N
  N26      1.0000 0.11882  0.38118  0.11882  Biso   1.000  N
  N27      1.0000 0.38118  0.38118  0.38118  Biso   1.000  N
  N28      1.0000 0.38118  0.11882  0.11882  Biso   1.000  N
  N29      1.0000 0.38118  0.11882  0.38118  Biso   1.000  N
  N30      1.0000 0.11882  0.11882  0.38118  Biso   1.000  N
  N31      1.0000 0.11882  0.38118  0.38118  Biso   1.000  N
  N32      1.0000 0.11882  0.11882  0.11882  Biso   1.000  N
  N33      1.0000 0.61882  0.61882  0.88118  Biso   1.000  N
  N34      1.0000 0.88118  0.61882  0.88118  Biso   1.000  N
  N35      1.0000 0.61882  0.61882  0.61882  Biso   1.000  N
  N36      1.0000 0.61882  0.88118  0.88118  Biso   1.000  N
  N37      1.0000 0.61882  0.88118  0.61882  Biso   1.000  N
  N38      1.0000 0.88118  0.88118  0.61882  Biso   1.000  N
  N39      1.0000 0.88118  0.61882  0.61882  Biso   1.000  N
  N40      1.0000 0.88118  0.88118  0.88118  Biso   1.000  N
  C1       1.0000 0.69232  0.39545  0.04315  Biso   1.000  C
  C2       1.0000 0.10455  0.69232  0.04315  Biso   1.000  C
  C3       1.0000 0.39545  0.69232  0.45685  Biso   1.000  C
  C4       1.0000 0.39545  0.80768  0.04315  Biso   1.000  C
  C5       1.0000 0.39545  0.04315  0.69232  Biso   1.000  C
  C6       1.0000 0.45685  0.39545  0.69232  Biso   1.000  C
  C7       1.0000 0.04315  0.10455  0.69232  Biso   1.000  C
  C8       1.0000 0.04315  0.39545  0.80768  Biso   1.000  C
  C9       1.0000 0.04315  0.69232  0.39545  Biso   1.000  C
  C10      1.0000 0.80768  0.04315  0.39545  Biso   1.000  C
  C11      1.0000 0.69232  0.45685  0.39545  Biso   1.000  C
  C12      1.0000 0.69232  0.04315  0.10455  Biso   1.000  C
  C13      1.0000 0.69232  0.10455  0.45685  Biso   1.000  C
  C14      1.0000 0.80768  0.10455  0.04315  Biso   1.000  C
  C15      1.0000 0.80768  0.39545  0.45685  Biso   1.000  C
  C16      1.0000 0.10455  0.80768  0.45685  Biso   1.000  C
  C17      1.0000 0.10455  0.45685  0.69232  Biso   1.000  C
  C18      1.0000 0.39545  0.45685  0.80768  Biso   1.000  C
  C19      1.0000 0.10455  0.04315  0.80768  Biso   1.000  C
  C20      1.0000 0.45685  0.10455  0.80768  Biso   1.000  C
  C21      1.0000 0.45685  0.69232  0.10455  Biso   1.000  C
  C22      1.0000 0.45685  0.80768  0.39545  Biso   1.000  C
  C23      1.0000 0.04315  0.80768  0.10455  Biso   1.000  C
  C24      1.0000 0.80768  0.45685  0.10455  Biso   1.000  C
  C25      1.0000 0.30768  0.60455  0.95685  Biso   1.000  C
  C26      1.0000 0.89545  0.30768  0.95685  Biso   1.000  C
  C27      1.0000 0.60455  0.30768  0.54315  Biso   1.000  C
  C28      1.0000 0.60455  0.19232  0.95685  Biso   1.000  C
  C29      1.0000 0.60455  0.95685  0.30768  Biso   1.000  C
  C30      1.0000 0.54315  0.60455  0.30768  Biso   1.000  C
  C31      1.0000 0.95685  0.89545  0.30768  Biso   1.000  C
  C32      1.0000 0.95685  0.60455  0.19232  Biso   1.000  C
  C33      1.0000 0.95685  0.30768  0.60455  Biso   1.000  C
  C34      1.0000 0.19232  0.95685  0.60455  Biso   1.000  C
  C35      1.0000 0.30768  0.54315  0.60455  Biso   1.000  C
  C36      1.0000 0.30768  0.95685  0.89545  Biso   1.000  C
  C37      1.0000 0.30768  0.89545  0.54315  Biso   1.000  C
  C38      1.0000 0.19232  0.89545  0.95685  Biso   1.000  C
  C39      1.0000 0.19232  0.60455  0.54315  Biso   1.000  C
  C40      1.0000 0.89545  0.19232  0.54315  Biso   1.000  C
  C41      1.0000 0.89545  0.54315  0.30768  Biso   1.000  C
  C42      1.0000 0.60455  0.54315  0.19232  Biso   1.000  C
  C43      1.0000 0.89545  0.95685  0.19232  Biso   1.000  C
  C44      1.0000 0.54315  0.89545  0.19232  Biso   1.000  C
  C45      1.0000 0.54315  0.30768  0.89545  Biso   1.000  C
  C46      1.0000 0.54315  0.19232  0.60455  Biso   1.000  C
  C47      1.0000 0.95685  0.19232  0.89545  Biso   1.000  C
  C48      1.0000 0.19232  0.54315  0.89545  Biso   1.000  C
  H1       1.0000 0.65330  0.39310  0.00250  Biso   1.000  H
  H2       1.0000 0.10690  0.65330  0.00250  Biso   1.000  H
  H3       1.0000 0.39310  0.65330  0.49750  Biso   1.000  H
  H4       1.0000 0.39310  0.84670  0.00250  Biso   1.000  H
  H5       1.0000 0.39310  0.00250  0.65330  Biso   1.000  H
  H6       1.0000 0.49750  0.39310  0.65330  Biso   1.000  H
  H7       1.0000 0.00250  0.10690  0.65330  Biso   1.000  H
  H8       1.0000 0.00250  0.39310  0.84670  Biso   1.000  H
  H9       1.0000 0.00250  0.65330  0.39310  Biso   1.000  H
  H10      1.0000 0.84670  0.00250  0.39310  Biso   1.000  H
  H11      1.0000 0.65330  0.49750  0.39310  Biso   1.000  H
  H12      1.0000 0.65330  0.00250  0.10690  Biso   1.000  H
  H13      1.0000 0.65330  0.10690  0.49750  Biso   1.000  H
  H14      1.0000 0.84670  0.10690  0.00250  Biso   1.000  H
  H15      1.0000 0.84670  0.39310  0.49750  Biso   1.000  H
  H16      1.0000 0.10690  0.84670  0.49750  Biso   1.000  H
  H17      1.0000 0.10690  0.49750  0.65330  Biso   1.000  H
  H18      1.0000 0.39310  0.49750  0.84670  Biso   1.000  H
  H19      1.0000 0.10690  0.00250  0.84670  Biso   1.000  H
  H20      1.0000 0.49750  0.10690  0.84670  Biso   1.000  H
  H21      1.0000 0.49750  0.65330  0.10690  Biso   1.000  H
  H22      1.0000 0.49750  0.84670  0.39310  Biso   1.000  H
  H23      1.0000 0.00250  0.84670  0.10690  Biso   1.000  H
  H24      1.0000 0.84670  0.49750  0.10690  Biso   1.000  H
  H25      1.0000 0.34670  0.60690  0.99750  Biso   1.000  H
  H26      1.0000 0.89310  0.34670  0.99750  Biso   1.000  H
  H27      1.0000 0.60690  0.34670  0.50250  Biso   1.000  H
  H28      1.0000 0.60690  0.15330  0.99750  Biso   1.000  H
  H29      1.0000 0.60690  0.99750  0.34670  Biso   1.000  H
  H30      1.0000 0.50250  0.60690  0.34670  Biso   1.000  H
  H31      1.0000 0.99750  0.89310  0.34670  Biso   1.000  H
  H32      1.0000 0.99750  0.60690  0.15330  Biso   1.000  H
  H33      1.0000 0.99750  0.34670  0.60690  Biso   1.000  H
  H34      1.0000 0.15330  0.99750  0.60690  Biso   1.000  H
  H35      1.0000 0.34670  0.50250  0.60690  Biso   1.000  H
  H36      1.0000 0.34670  0.99750  0.89310  Biso   1.000  H
  H37      1.0000 0.34670  0.89310  0.50250  Biso   1.000  H
  H38      1.0000 0.15330  0.89310  0.99750  Biso   1.000  H
  H39      1.0000 0.15330  0.60690  0.50250  Biso   1.000  H
  H40      1.0000 0.89310  0.15330  0.50250  Biso   1.000  H
  H41      1.0000 0.89310  0.50250  0.34670  Biso   1.000  H
  H42      1.0000 0.60690  0.50250  0.15330  Biso   1.000  H
  H43      1.0000 0.89310  0.99750  0.15330  Biso   1.000  H
  H44      1.0000 0.50250  0.89310  0.15330  Biso   1.000  H
  H45      1.0000 0.50250  0.34670  0.89310  Biso   1.000  H
  H46      1.0000 0.50250  0.15330  0.60690  Biso   1.000  H
  H47      1.0000 0.99750  0.15330  0.89310  Biso   1.000  H
  H48      1.0000 0.15330  0.50250  0.89310  Biso   1.000  H
  C49      1.0000 0.69331  0.33759  0.10439  Biso   1.000  C
  C50      1.0000 0.16241  0.69331  0.10439  Biso   1.000  C
  C51      1.0000 0.33759  0.69331  0.39561  Biso   1.000  C
  C52      1.0000 0.33759  0.80669  0.10439  Biso   1.000  C
  C53      1.0000 0.33759  0.10439  0.69331  Biso   1.000  C
  C54      1.0000 0.39561  0.33759  0.69331  Biso   1.000  C
  C55      1.0000 0.10439  0.16241  0.69331  Biso   1.000  C
  C56      1.0000 0.10439  0.33759  0.80669  Biso   1.000  C
  C57      1.0000 0.10439  0.69331  0.33759  Biso   1.000  C
  C58      1.0000 0.80669  0.10439  0.33759  Biso   1.000  C
  C59      1.0000 0.69331  0.39561  0.33759  Biso   1.000  C
  C60      1.0000 0.69331  0.10439  0.16241  Biso   1.000  C
  C61      1.0000 0.69331  0.16241  0.39561  Biso   1.000  C
  C62      1.0000 0.80669  0.16241  0.10439  Biso   1.000  C
  C63      1.0000 0.80669  0.33759  0.39561  Biso   1.000  C
  C64      1.0000 0.16241  0.80669  0.39561  Biso   1.000  C
  C65      1.0000 0.16241  0.39561  0.69331  Biso   1.000  C
  C66      1.0000 0.33759  0.39561  0.80669  Biso   1.000  C
  C67      1.0000 0.16241  0.10439  0.80669  Biso   1.000  C
  C68      1.0000 0.39561  0.16241  0.80669  Biso   1.000  C
  C69      1.0000 0.39561  0.69331  0.16241  Biso   1.000  C
  C70      1.0000 0.39561  0.80669  0.33759  Biso   1.000  C
  C71      1.0000 0.10439  0.80669  0.16241  Biso   1.000  C
  C72      1.0000 0.80669  0.39561  0.16241  Biso   1.000  C
  C73      1.0000 0.30669  0.66241  0.89561  Biso   1.000  C
  C74      1.0000 0.83759  0.30669  0.89561  Biso   1.000  C
  C75      1.0000 0.66241  0.30669  0.60439  Biso   1.000  C
  C76      1.0000 0.66241  0.19331  0.89561  Biso   1.000  C
  C77      1.0000 0.66241  0.89561  0.30669  Biso   1.000  C
  C78      1.0000 0.60439  0.66241  0.30669  Biso   1.000  C
  C79      1.0000 0.89561  0.83759  0.30669  Biso   1.000  C
  C80      1.0000 0.89561  0.66241  0.19331  Biso   1.000  C
  C81      1.0000 0.89561  0.30669  0.66241  Biso   1.000  C
  C82      1.0000 0.19331  0.89561  0.66241  Biso   1.000  C
  C83      1.0000 0.30669  0.60439  0.66241  Biso   1.000  C
  C84      1.0000 0.30669  0.89561  0.83759  Biso   1.000  C
  C85      1.0000 0.30669  0.83759  0.60439  Biso   1.000  C
  C86      1.0000 0.19331  0.83759  0.89561  Biso   1.000  C
  C87      1.0000 0.19331  0.66241  0.60439  Biso   1.000  C
  C88      1.0000 0.83759  0.19331  0.60439  Biso   1.000  C
  C89      1.0000 0.83759  0.60439  0.30669  Biso   1.000  C
  C90      1.0000 0.66241  0.60439  0.19331  Biso   1.000  C
  C91      1.0000 0.83759  0.89561  0.19331  Biso   1.000  C
  C92      1.0000 0.60439  0.83759  0.19331  Biso   1.000  C
  C93      1.0000 0.60439  0.30669  0.83759  Biso   1.000  C
  C94      1.0000 0.60439  0.19331  0.66241  Biso   1.000  C
  C95      1.0000 0.89561  0.19331  0.83759  Biso   1.000  C
  C96      1.0000 0.19331  0.60439  0.83759  Biso   1.000  C
  H49      1.0000 0.65340  0.29780  0.10500  Biso   1.000  H
  H50      1.0000 0.20220  0.65340  0.10500  Biso   1.000  H
  H51      1.0000 0.29780  0.65340  0.39500  Biso   1.000  H
  H52      1.0000 0.29780  0.84660  0.10500  Biso   1.000  H
  H53      1.0000 0.29780  0.10500  0.65340  Biso   1.000  H
  H54      1.0000 0.39500  0.29780  0.65340  Biso   1.000  H
  H55      1.0000 0.10500  0.20220  0.65340  Biso   1.000  H
  H56      1.0000 0.10500  0.29780  0.84660  Biso   1.000  H
  H57      1.0000 0.10500  0.65340  0.29780  Biso   1.000  H
  H58      1.0000 0.84660  0.10500  0.29780  Biso   1.000  H
  H59      1.0000 0.65340  0.39500  0.29780  Biso   1.000  H
  H60      1.0000 0.65340  0.10500  0.20220  Biso   1.000  H
  H61      1.0000 0.65340  0.20220  0.39500  Biso   1.000  H
  H62      1.0000 0.84660  0.20220  0.10500  Biso   1.000  H
  H63      1.0000 0.84660  0.29780  0.39500  Biso   1.000  H
  H64      1.0000 0.20220  0.84660  0.39500  Biso   1.000  H
  H65      1.0000 0.20220  0.39500  0.65340  Biso   1.000  H
  H66      1.0000 0.29780  0.39500  0.84660  Biso   1.000  H
  H67      1.0000 0.20220  0.10500  0.84660  Biso   1.000  H
  H68      1.0000 0.39500  0.20220  0.84660  Biso   1.000  H
  H69      1.0000 0.39500  0.65340  0.20220  Biso   1.000  H
  H70      1.0000 0.39500  0.84660  0.29780  Biso   1.000  H
  H71      1.0000 0.10500  0.84660  0.20220  Biso   1.000  H
  H72      1.0000 0.84660  0.39500  0.20220  Biso   1.000  H
  H73      1.0000 0.34660  0.70220  0.89500  Biso   1.000  H
  H74      1.0000 0.79780  0.34660  0.89500  Biso   1.000  H
  H75      1.0000 0.70220  0.34660  0.60500  Biso   1.000  H
  H76      1.0000 0.70220  0.15340  0.89500  Biso   1.000  H
  H77      1.0000 0.70220  0.89500  0.34660  Biso   1.000  H
  H78      1.0000 0.60500  0.70220  0.34660  Biso   1.000  H
  H79      1.0000 0.89500  0.79780  0.34660  Biso   1.000  H
  H80      1.0000 0.89500  0.70220  0.15340  Biso   1.000  H
  H81      1.0000 0.89500  0.34660  0.70220  Biso   1.000  H
  H82      1.0000 0.15340  0.89500  0.70220  Biso   1.000  H
  H83      1.0000 0.34660  0.60500  0.70220  Biso   1.000  H
  H84      1.0000 0.34660  0.89500  0.79780  Biso   1.000  H
  H85      1.0000 0.34660  0.79780  0.60500  Biso   1.000  H
  H86      1.0000 0.15340  0.79780  0.89500  Biso   1.000  H
  H87      1.0000 0.15340  0.70220  0.60500  Biso   1.000  H
  H88      1.0000 0.79780  0.15340  0.60500  Biso   1.000  H
  H89      1.0000 0.79780  0.60500  0.34660  Biso   1.000  H
  H90      1.0000 0.70220  0.60500  0.15340  Biso   1.000  H
  H91      1.0000 0.79780  0.89500  0.15340  Biso   1.000  H
  H92      1.0000 0.60500  0.79780  0.15340  Biso   1.000  H
  H93      1.0000 0.60500  0.34660  0.79780  Biso   1.000  H
  H94      1.0000 0.60500  0.15340  0.70220  Biso   1.000  H
  H95      1.0000 0.89500  0.15340  0.79780  Biso   1.000  H
  H96      1.0000 0.15340  0.60500  0.79780  Biso   1.000  H
  C97      1.0000 0.75000  0.45678  0.04322  Biso   1.000  C
  C98      1.0000 0.04322  0.75000  0.04322  Biso   1.000  C
  C99      1.0000 0.45678  0.75000  0.45678  Biso   1.000  C
  C100     1.0000 0.45678  0.75000  0.04322  Biso   1.000  C
  C101     1.0000 0.45678  0.04322  0.75000  Biso   1.000  C
  C102     1.0000 0.45678  0.45678  0.75000  Biso   1.000  C
  C103     1.0000 0.04322  0.04322  0.75000  Biso   1.000  C
  C104     1.0000 0.04322  0.45678  0.75000  Biso   1.000  C
  C105     1.0000 0.04322  0.75000  0.45678  Biso   1.000  C
  C106     1.0000 0.75000  0.04322  0.45678  Biso   1.000  C
  C107     1.0000 0.75000  0.45678  0.45678  Biso   1.000  C
  C108     1.0000 0.75000  0.04322  0.04322  Biso   1.000  C
  C109     1.0000 0.25000  0.54322  0.95678  Biso   1.000  C
  C110     1.0000 0.95678  0.25000  0.95678  Biso   1.000  C
  C111     1.0000 0.54322  0.25000  0.54322  Biso   1.000  C
  C112     1.0000 0.54322  0.25000  0.95678  Biso   1.000  C
  C113     1.0000 0.54322  0.95678  0.25000  Biso   1.000  C
  C114     1.0000 0.54322  0.54322  0.25000  Biso   1.000  C
  C115     1.0000 0.95678  0.95678  0.25000  Biso   1.000  C
  C116     1.0000 0.95678  0.54322  0.25000  Biso   1.000  C
  C117     1.0000 0.95678  0.25000  0.54322  Biso   1.000  C
  C118     1.0000 0.25000  0.95678  0.54322  Biso   1.000  C
  C119     1.0000 0.25000  0.54322  0.54322  Biso   1.000  C
  C120     1.0000 0.25000  0.95678  0.95678  Biso   1.000  C
  H97      1.0000 0.75000  0.49660  0.00340  Biso   1.000  H
  H98      1.0000 0.00340  0.75000  0.00340  Biso   1.000  H
  H99      1.0000 0.49660  0.75000  0.49660  Biso   1.000  H
  H100     1.0000 0.49660  0.75000  0.00340  Biso   1.000  H
  H101     1.0000 0.49660  0.00340  0.75000  Biso   1.000  H
  H102     1.0000 0.49660  0.49660  0.75000  Biso   1.000  H
  H103     1.0000 0.00340  0.00340  0.75000  Biso   1.000  H
  H104     1.0000 0.00340  0.49660  0.75000  Biso   1.000  H
  H105     1.0000 0.00340  0.75000  0.49660  Biso   1.000  H
  H106     1.0000 0.75000  0.00340  0.49660  Biso   1.000  H
  H107     1.0000 0.75000  0.49660  0.49660  Biso   1.000  H
  H108     1.0000 0.75000  0.00340  0.00340  Biso   1.000  H
  H109     1.0000 0.25000  0.50340  0.99660  Biso   1.000  H
  H110     1.0000 0.99660  0.25000  0.99660  Biso   1.000  H
  H111     1.0000 0.50340  0.25000  0.50340  Biso   1.000  H
  H112     1.0000 0.50340  0.25000  0.99660  Biso   1.000  H
  H113     1.0000 0.50340  0.99660  0.25000  Biso   1.000  H
  H114     1.0000 0.50340  0.50340  0.25000  Biso   1.000  H
  H115     1.0000 0.99660  0.99660  0.25000  Biso   1.000  H
  H116     1.0000 0.99660  0.50340  0.25000  Biso   1.000  H
  H117     1.0000 0.99660  0.25000  0.50340  Biso   1.000  H
  H118     1.0000 0.25000  0.99660  0.50340  Biso   1.000  H
  H119     1.0000 0.25000  0.50340  0.50340  Biso   1.000  H
  H120     1.0000 0.25000  0.99660  0.99660  Biso   1.000  H
  C121     1.0000 0.43250  0.43250  0.06750  Biso   1.000  C
  C122     1.0000 0.06750  0.43250  0.06750  Biso   1.000  C
  C123     1.0000 0.43250  0.43250  0.43250  Biso   1.000  C
  C124     1.0000 0.43250  0.06750  0.06750  Biso   1.000  C
  C125     1.0000 0.43250  0.06750  0.43250  Biso   1.000  C
  C126     1.0000 0.06750  0.06750  0.43250  Biso   1.000  C
  C127     1.0000 0.06750  0.43250  0.43250  Biso   1.000  C
  C128     1.0000 0.06750  0.06750  0.06750  Biso   1.000  C
  C129     1.0000 0.56750  0.56750  0.93250  Biso   1.000  C
  C130     1.0000 0.93250  0.56750  0.93250  Biso   1.000  C
  C131     1.0000 0.56750  0.56750  0.56750  Biso   1.000  C
  C132     1.0000 0.56750  0.93250  0.93250  Biso   1.000  C
  C133     1.0000 0.56750  0.93250  0.56750  Biso   1.000  C
  C134     1.0000 0.93250  0.93250  0.56750  Biso   1.000  C
  C135     1.0000 0.93250  0.56750  0.56750  Biso   1.000  C
  C136     1.0000 0.93250  0.93250  0.93250  Biso   1.000  C
  H121     1.0000 0.40040  0.37050  0.16330  Biso   1.000  H
  H122     1.0000 0.12950  0.40040  0.16330  Biso   1.000  H
  H123     1.0000 0.37050  0.40040  0.33670  Biso   1.000  H
  H124     1.0000 0.37050  0.09960  0.16330  Biso   1.000  H
  H125     1.0000 0.37050  0.16330  0.40040  Biso   1.000  H
  H126     1.0000 0.33670  0.37050  0.40040  Biso   1.000  H
  H127     1.0000 0.16330  0.12950  0.40040  Biso   1.000  H
  H128     1.0000 0.16330  0.37050  0.09960  Biso   1.000  H
  H129     1.0000 0.16330  0.40040  0.37050  Biso   1.000  H
  H130     1.0000 0.09960  0.16330  0.37050  Biso   1.000  H
  H131     1.0000 0.40040  0.33670  0.37050  Biso   1.000  H
  H132     1.0000 0.40040  0.16330  0.12950  Biso   1.000  H
  H133     1.0000 0.40040  0.12950  0.33670  Biso   1.000  H
  H134     1.0000 0.09960  0.12950  0.16330  Biso   1.000  H
  H135     1.0000 0.09960  0.37050  0.33670  Biso   1.000  H
  H136     1.0000 0.12950  0.09960  0.33670  Biso   1.000  H
  H137     1.0000 0.12950  0.33670  0.40040  Biso   1.000  H
  H138     1.0000 0.37050  0.33670  0.09960  Biso   1.000  H
  H139     1.0000 0.12950  0.16330  0.09960  Biso   1.000  H
  H140     1.0000 0.33670  0.12950  0.09960  Biso   1.000  H
  H141     1.0000 0.33670  0.40040  0.12950  Biso   1.000  H
  H142     1.0000 0.33670  0.09960  0.37050  Biso   1.000  H
  H143     1.0000 0.16330  0.09960  0.12950  Biso   1.000  H
  H144     1.0000 0.09960  0.33670  0.12950  Biso   1.000  H
  H145     1.0000 0.59960  0.62950  0.83670  Biso   1.000  H
  H146     1.0000 0.87050  0.59960  0.83670  Biso   1.000  H
  H147     1.0000 0.62950  0.59960  0.66330  Biso   1.000  H
  H148     1.0000 0.62950  0.90040  0.83670  Biso   1.000  H
  H149     1.0000 0.62950  0.83670  0.59960  Biso   1.000  H
  H150     1.0000 0.66330  0.62950  0.59960  Biso   1.000  H
  H151     1.0000 0.83670  0.87050  0.59960  Biso   1.000  H
  H152     1.0000 0.83670  0.62950  0.90040  Biso   1.000  H
  H153     1.0000 0.83670  0.59960  0.62950  Biso   1.000  H
  H154     1.0000 0.90040  0.83670  0.62950  Biso   1.000  H
  H155     1.0000 0.59960  0.66330  0.62950  Biso   1.000  H
  H156     1.0000 0.59960  0.83670  0.87050  Biso   1.000  H
  H157     1.0000 0.59960  0.87050  0.66330  Biso   1.000  H
  H158     1.0000 0.90040  0.87050  0.83670  Biso   1.000  H
  H159     1.0000 0.90040  0.62950  0.66330  Biso   1.000  H
  H160     1.0000 0.87050  0.90040  0.66330  Biso   1.000  H
  H161     1.0000 0.87050  0.66330  0.59960  Biso   1.000  H
  H162     1.0000 0.62950  0.66330  0.90040  Biso   1.000  H
  H163     1.0000 0.87050  0.83670  0.90040  Biso   1.000  H
  H164     1.0000 0.66330  0.87050  0.90040  Biso   1.000  H
  H165     1.0000 0.66330  0.59960  0.87050  Biso   1.000  H
  H166     1.0000 0.66330  0.90040  0.62950  Biso   1.000  H
  H167     1.0000 0.83670  0.90040  0.87050  Biso   1.000  H
  H168     1.0000 0.90040  0.66330  0.87050  Biso   1.000  H
  H169     1.0000 0.40700  0.43700  0.01350  Biso   1.000  H
  H170     1.0000 0.06300  0.40700  0.01350  Biso   1.000  H
  H171     1.0000 0.43700  0.40700  0.48650  Biso   1.000  H
  H172     1.0000 0.43700  0.09300  0.01350  Biso   1.000  H
  H173     1.0000 0.43700  0.01350  0.40700  Biso   1.000  H
  H174     1.0000 0.48650  0.43700  0.40700  Biso   1.000  H
  H175     1.0000 0.01350  0.06300  0.40700  Biso   1.000  H
  H176     1.0000 0.01350  0.43700  0.09300  Biso   1.000  H
  H177     1.0000 0.01350  0.40700  0.43700  Biso   1.000  H
  H178     1.0000 0.09300  0.01350  0.43700  Biso   1.000  H
  H179     1.0000 0.40700  0.48650  0.43700  Biso   1.000  H
  H180     1.0000 0.40700  0.01350  0.06300  Biso   1.000  H
  H181     1.0000 0.40700  0.06300  0.48650  Biso   1.000  H
  H182     1.0000 0.09300  0.06300  0.01350  Biso   1.000  H
  H183     1.0000 0.09300  0.43700  0.48650  Biso   1.000  H
  H184     1.0000 0.06300  0.09300  0.48650  Biso   1.000  H
  H185     1.0000 0.06300  0.48650  0.40700  Biso   1.000  H
  H186     1.0000 0.43700  0.48650  0.09300  Biso   1.000  H
  H187     1.0000 0.06300  0.01350  0.09300  Biso   1.000  H
  H188     1.0000 0.48650  0.06300  0.09300  Biso   1.000  H
  H189     1.0000 0.48650  0.40700  0.06300  Biso   1.000  H
  H190     1.0000 0.48650  0.09300  0.43700  Biso   1.000  H
  H191     1.0000 0.01350  0.09300  0.06300  Biso   1.000  H
  H192     1.0000 0.09300  0.48650  0.06300  Biso   1.000  H
  H193     1.0000 0.59300  0.56300  0.98650  Biso   1.000  H
  H194     1.0000 0.93700  0.59300  0.98650  Biso   1.000  H
  H195     1.0000 0.56300  0.59300  0.51350  Biso   1.000  H
  H196     1.0000 0.56300  0.90700  0.98650  Biso   1.000  H
  H197     1.0000 0.56300  0.98650  0.59300  Biso   1.000  H
  H198     1.0000 0.51350  0.56300  0.59300  Biso   1.000  H
  H199     1.0000 0.98650  0.93700  0.59300  Biso   1.000  H
  H200     1.0000 0.98650  0.56300  0.90700  Biso   1.000  H
  H201     1.0000 0.98650  0.59300  0.56300  Biso   1.000  H
  H202     1.0000 0.90700  0.98650  0.56300  Biso   1.000  H
  H203     1.0000 0.59300  0.51350  0.56300  Biso   1.000  H
  H204     1.0000 0.59300  0.98650  0.93700  Biso   1.000  H
  H205     1.0000 0.59300  0.93700  0.51350  Biso   1.000  H
  H206     1.0000 0.90700  0.93700  0.98650  Biso   1.000  H
  H207     1.0000 0.90700  0.56300  0.51350  Biso   1.000  H
  H208     1.0000 0.93700  0.90700  0.51350  Biso   1.000  H
  H209     1.0000 0.93700  0.51350  0.59300  Biso   1.000  H
  H210     1.0000 0.56300  0.51350  0.90700  Biso   1.000  H
  H211     1.0000 0.93700  0.98650  0.90700  Biso   1.000  H
  H212     1.0000 0.51350  0.93700  0.90700  Biso   1.000  H
  H213     1.0000 0.51350  0.59300  0.93700  Biso   1.000  H
  H214     1.0000 0.51350  0.90700  0.56300  Biso   1.000  H
  H215     1.0000 0.98650  0.90700  0.93700  Biso   1.000  H
  H216     1.0000 0.90700  0.51350  0.93700  Biso   1.000  H
