data_image0
_cell_length_a       28.1588
_cell_length_b       18.5342
_cell_length_c       32.102
_cell_angle_alpha    90
_cell_angle_beta     112.335
_cell_angle_gamma    90

_symmetry_space_group_name_H-M    "P 1"
_symmetry_int_tables_number       1

loop_
  _symmetry_equiv_pos_as_xyz
  'x, y, z'

loop_
  _atom_site_label
  _atom_site_occupancy
  _atom_site_fract_x
  _atom_site_fract_y
  _atom_site_fract_z
  _atom_site_thermal_displace_type
  _atom_site_B_iso_or_equiv
  _atom_site_type_symbol
  Cu1      1.0000 0.29483  0.31082  0.53063  Biso   1.000  Cu
  Cu2      1.0000 0.70517  0.81082  0.96937  Biso   1.000  Cu
  Cu3      1.0000 0.70517  0.68918  0.46937  Biso   1.000  Cu
  Cu4      1.0000 0.29483  0.18918  0.03063  Biso   1.000  Cu
  Cu5      1.0000 0.20956  0.23742  0.52551  Biso   1.000  Cu
  Cu6      1.0000 0.79044  0.73742  0.97449  Biso   1.000  Cu
  Cu7      1.0000 0.79044  0.76258  0.47449  Biso   1.000  Cu
  Cu8      1.0000 0.20956  0.26258  0.02551  Biso   1.000  Cu
  Cu9      1.0000 0.28622  0.50621  0.30657  Biso   1.000  Cu
  Cu10     1.0000 0.71378  0.00621  0.19343  Biso   1.000  Cu
  Cu11     1.0000 0.71378  0.49379  0.69343  Biso   1.000  Cu
  Cu12     1.0000 0.28622  0.99379  0.80657  Biso   1.000  Cu
  Cu13     1.0000 0.20265  0.50263  0.23125  Biso   1.000  Cu
  Cu14     1.0000 0.79735  0.00263  0.26875  Biso   1.000  Cu
  Cu15     1.0000 0.79735  0.49737  0.76875  Biso   1.000  Cu
  Cu16     1.0000 0.20265  0.99737  0.73125  Biso   1.000  Cu
  Cu17     1.0000 0.78809  0.31553  0.99194  Biso   1.000  Cu
  Cu18     1.0000 0.21191  0.81553  0.50806  Biso   1.000  Cu
  Cu19     1.0000 0.21191  0.68447  0.00806  Biso   1.000  Cu
  Cu20     1.0000 0.78809  0.18447  0.49194  Biso   1.000  Cu
  Cu21     1.0000 0.70478  0.24451  0.98867  Biso   1.000  Cu
  Cu22     1.0000 0.29522  0.74451  0.51133  Biso   1.000  Cu
  Cu23     1.0000 0.29522  0.75549  0.01133  Biso   1.000  Cu
  Cu24     1.0000 0.70478  0.25549  0.48867  Biso   1.000  Cu
  O1       1.0000 0.18590  0.25032  0.46196  Biso   1.000  O
  O2       1.0000 0.81410  0.75032  0.03804  Biso   1.000  O
  O3       1.0000 0.81410  0.74968  0.53804  Biso   1.000  O
  O4       1.0000 0.18590  0.24968  0.96196  Biso   1.000  O
  O5       1.0000 0.25220  0.32030  0.46446  Biso   1.000  O
  O6       1.0000 0.74780  0.82030  0.03554  Biso   1.000  O
  O7       1.0000 0.74780  0.67970  0.53554  Biso   1.000  O
  O8       1.0000 0.25220  0.17970  0.96446  Biso   1.000  O
  O9       1.0000 0.17871  0.43560  0.26559  Biso   1.000  O
  O10      1.0000 0.82129  0.93560  0.23441  Biso   1.000  O
  O11      1.0000 0.82129  0.56440  0.73441  Biso   1.000  O
  O12      1.0000 0.17871  0.06440  0.76559  Biso   1.000  O
  O13      1.0000 0.24766  0.43920  0.32821  Biso   1.000  O
  O14      1.0000 0.75234  0.93920  0.17179  Biso   1.000  O
  O15      1.0000 0.75234  0.56080  0.67179  Biso   1.000  O
  O16      1.0000 0.24766  0.06080  0.82821  Biso   1.000  O
  O17      1.0000 0.81221  0.30030  0.05653  Biso   1.000  O
  O18      1.0000 0.18779  0.80030  0.44347  Biso   1.000  O
  O19      1.0000 0.18779  0.69970  0.94347  Biso   1.000  O
  O20      1.0000 0.81221  0.19970  0.55653  Biso   1.000  O
  O21      1.0000 0.74427  0.23109  0.05253  Biso   1.000  O
  O22      1.0000 0.25573  0.73109  0.44747  Biso   1.000  O
  O23      1.0000 0.25573  0.76891  0.94747  Biso   1.000  O
  O24      1.0000 0.74427  0.26891  0.55253  Biso   1.000  O
  O25      1.0000 0.75069  0.08737  0.17845  Biso   1.000  O
  O26      1.0000 0.24931  0.58737  0.32155  Biso   1.000  O
  O27      1.0000 0.24931  0.91263  0.82155  Biso   1.000  O
  O28      1.0000 0.75069  0.41263  0.67845  Biso   1.000  O
  O29      1.0000 0.82011  0.08260  0.24178  Biso   1.000  O
  O30      1.0000 0.17989  0.58260  0.25822  Biso   1.000  O
  O31      1.0000 0.17989  0.91740  0.75822  Biso   1.000  O
  O32      1.0000 0.82011  0.41740  0.74178  Biso   1.000  O
  O33      1.0000 0.02650  0.34570  0.24670  Biso   1.000  O
  O34      1.0000 0.97350  0.84570  0.25330  Biso   1.000  O
  O35      1.0000 0.97350  0.65430  0.75330  Biso   1.000  O
  O36      1.0000 0.02650  0.15430  0.74670  Biso   1.000  O
  O37      1.0000 0.96630  0.20060  0.27650  Biso   1.000  O
  O38      1.0000 0.03370  0.70060  0.22350  Biso   1.000  O
  O39      1.0000 0.03370  0.79940  0.72350  Biso   1.000  O
  O40      1.0000 0.96630  0.29940  0.77650  Biso   1.000  O
  O41      1.0000 0.31251  0.27992  0.59402  Biso   1.000  O
  O42      1.0000 0.68749  0.77992  0.90598  Biso   1.000  O
  O43      1.0000 0.68749  0.72008  0.40598  Biso   1.000  O
  O44      1.0000 0.31251  0.22008  0.09402  Biso   1.000  O
  O45      1.0000 0.23992  0.22620  0.59021  Biso   1.000  O
  O46      1.0000 0.76008  0.72620  0.90979  Biso   1.000  O
  O47      1.0000 0.76008  0.77380  0.40979  Biso   1.000  O
  O48      1.0000 0.23992  0.27380  0.09021  Biso   1.000  O
  O49      1.0000 0.23851  0.07626  0.71498  Biso   1.000  O
  O50      1.0000 0.76149  0.57626  0.78502  Biso   1.000  O
  O51      1.0000 0.76149  0.92374  0.28502  Biso   1.000  O
  O52      1.0000 0.23851  0.42374  0.21498  Biso   1.000  O
  O53      1.0000 0.30809  0.07380  0.77870  Biso   1.000  O
  O54      1.0000 0.69191  0.57380  0.72130  Biso   1.000  O
  O55      1.0000 0.69191  0.92620  0.22130  Biso   1.000  O
  O56      1.0000 0.30809  0.42620  0.27870  Biso   1.000  O
  O57      1.0000 0.68659  0.42680  0.72594  Biso   1.000  O
  O58      1.0000 0.31341  0.92680  0.77406  Biso   1.000  O
  O59      1.0000 0.31341  0.57320  0.27406  Biso   1.000  O
  O60      1.0000 0.68659  0.07320  0.22594  Biso   1.000  O
  O61      1.0000 0.75766  0.42965  0.79043  Biso   1.000  O
  O62      1.0000 0.24234  0.92965  0.70957  Biso   1.000  O
  O63      1.0000 0.24234  0.57035  0.20957  Biso   1.000  O
  O64      1.0000 0.75766  0.07035  0.29043  Biso   1.000  O
  O65      1.0000 0.75183  0.31991  0.92594  Biso   1.000  O
  O66      1.0000 0.24817  0.81991  0.57406  Biso   1.000  O
  O67      1.0000 0.24817  0.68009  0.07406  Biso   1.000  O
  O68      1.0000 0.75183  0.18009  0.42594  Biso   1.000  O
  O69      1.0000 0.67880  0.26890  0.92487  Biso   1.000  O
  O70      1.0000 0.32120  0.76890  0.57513  Biso   1.000  O
  O71      1.0000 0.32120  0.73110  0.07513  Biso   1.000  O
  O72      1.0000 0.67880  0.23110  0.42487  Biso   1.000  O
  O73      1.0000 0.46430  0.26110  0.70300  Biso   1.000  O
  O74      1.0000 0.53570  0.76110  0.79700  Biso   1.000  O
  O75      1.0000 0.53570  0.73890  0.29700  Biso   1.000  O
  O76      1.0000 0.46430  0.23890  0.20300  Biso   1.000  O
  O77      1.0000 0.52520  0.27850  0.81680  Biso   1.000  O
  O78      1.0000 0.47480  0.77850  0.68320  Biso   1.000  O
  O79      1.0000 0.47480  0.72150  0.18320  Biso   1.000  O
  O80      1.0000 0.52520  0.22150  0.31680  Biso   1.000  O
  O81      1.0000 0.32107  0.22160  0.51930  Biso   1.000  O
  O82      1.0000 0.67893  0.72160  0.98070  Biso   1.000  O
  O83      1.0000 0.67893  0.77840  0.48070  Biso   1.000  O
  O84      1.0000 0.32107  0.27840  0.01930  Biso   1.000  O
  O85      1.0000 0.25531  0.15705  0.52033  Biso   1.000  O
  O86      1.0000 0.74469  0.65705  0.97967  Biso   1.000  O
  O87      1.0000 0.74469  0.84295  0.47967  Biso   1.000  O
  O88      1.0000 0.25531  0.34295  0.02033  Biso   1.000  O
  O89      1.0000 0.25155  0.89945  0.50304  Biso   1.000  O
  O90      1.0000 0.74845  0.39945  0.99696  Biso   1.000  O
  O91      1.0000 0.74845  0.10055  0.49696  Biso   1.000  O
  O92      1.0000 0.25155  0.60055  0.00304  Biso   1.000  O
  O93      1.0000 0.31869  0.83927  0.49943  Biso   1.000  O
  O94      1.0000 0.68131  0.33927  0.00057  Biso   1.000  O
  O95      1.0000 0.68131  0.16073  0.50057  Biso   1.000  O
  O96      1.0000 0.31869  0.66073  0.99943  Biso   1.000  O
  O97      1.0000 0.46450  0.92340  0.49870  Biso   1.000  O
  O98      1.0000 0.53550  0.42340  0.00130  Biso   1.000  O
  O99      1.0000 0.53550  0.07660  0.50130  Biso   1.000  O
  O100     1.0000 0.46450  0.57660  0.99870  Biso   1.000  O
  O101     1.0000 0.26278  0.39713  0.53995  Biso   1.000  O
  O102     1.0000 0.73722  0.89713  0.96005  Biso   1.000  O
  O103     1.0000 0.73722  0.60287  0.46005  Biso   1.000  O
  O104     1.0000 0.26278  0.10287  0.03995  Biso   1.000  O
  O105     1.0000 0.18920  0.33945  0.53224  Biso   1.000  O
  O106     1.0000 0.81080  0.83945  0.96776  Biso   1.000  O
  O107     1.0000 0.81080  0.66055  0.46776  Biso   1.000  O
  O108     1.0000 0.18920  0.16055  0.03224  Biso   1.000  O
  O109     1.0000 0.25980  0.66018  0.52414  Biso   1.000  O
  O110     1.0000 0.74020  0.16018  0.97586  Biso   1.000  O
  O111     1.0000 0.74020  0.33982  0.47586  Biso   1.000  O
  O112     1.0000 0.25980  0.83982  0.02414  Biso   1.000  O
  O113     1.0000 0.18732  0.72135  0.51444  Biso   1.000  O
  O114     1.0000 0.81268  0.22135  0.98556  Biso   1.000  O
  O115     1.0000 0.81268  0.27865  0.48556  Biso   1.000  O
  O116     1.0000 0.18732  0.77865  0.01444  Biso   1.000  O
  O117     1.0000 0.03358  0.43000  0.49020  Biso   1.000  O
  O118     1.0000 0.96642  0.93000  0.00980  Biso   1.000  O
  O119     1.0000 0.96642  0.57000  0.50980  Biso   1.000  O
  O120     1.0000 0.03358  0.07000  0.99020  Biso   1.000  O
  C1       1.0000 0.20744  0.29090  0.44550  Biso   1.000  C
  C2       1.0000 0.79256  0.79090  0.05450  Biso   1.000  C
  C3       1.0000 0.79256  0.70910  0.55450  Biso   1.000  C
  C4       1.0000 0.20744  0.20910  0.94550  Biso   1.000  C
  C5       1.0000 0.18260  0.30750  0.39564  Biso   1.000  C
  C6       1.0000 0.81740  0.80750  0.10436  Biso   1.000  C
  C7       1.0000 0.81740  0.69250  0.60436  Biso   1.000  C
  C8       1.0000 0.18260  0.19250  0.89564  Biso   1.000  C
  C9       1.0000 0.13380  0.27920  0.37230  Biso   1.000  C
  C10      1.0000 0.86620  0.77920  0.12770  Biso   1.000  C
  C11      1.0000 0.86620  0.72080  0.62770  Biso   1.000  C
  C12      1.0000 0.13380  0.22080  0.87230  Biso   1.000  C
  H1       1.0000 0.11890  0.24880  0.38700  Biso   1.000  H
  H2       1.0000 0.88110  0.74880  0.11300  Biso   1.000  H
  H3       1.0000 0.88110  0.75120  0.61300  Biso   1.000  H
  H4       1.0000 0.11890  0.25120  0.88700  Biso   1.000  H
  C13      1.0000 0.10680  0.29630  0.32650  Biso   1.000  C
  C14      1.0000 0.89320  0.79630  0.17350  Biso   1.000  C
  C15      1.0000 0.89320  0.70370  0.67350  Biso   1.000  C
  C16      1.0000 0.10680  0.20370  0.82650  Biso   1.000  C
  C17      1.0000 0.13110  0.34000  0.30528  Biso   1.000  C
  C18      1.0000 0.86890  0.84000  0.19472  Biso   1.000  C
  C19      1.0000 0.86890  0.66000  0.69472  Biso   1.000  C
  C20      1.0000 0.13110  0.16000  0.80528  Biso   1.000  C
  H5       1.0000 0.11450  0.35030  0.27480  Biso   1.000  H
  H6       1.0000 0.88550  0.85030  0.22520  Biso   1.000  H
  H7       1.0000 0.88550  0.64970  0.72520  Biso   1.000  H
  H8       1.0000 0.11450  0.14970  0.77480  Biso   1.000  H
  C21      1.0000 0.18037  0.36880  0.32920  Biso   1.000  C
  C22      1.0000 0.81963  0.86880  0.17080  Biso   1.000  C
  C23      1.0000 0.81963  0.63120  0.67080  Biso   1.000  C
  C24      1.0000 0.18037  0.13120  0.82920  Biso   1.000  C
  C25      1.0000 0.20543  0.35060  0.37384  Biso   1.000  C
  C26      1.0000 0.79457  0.85060  0.12616  Biso   1.000  C
  C27      1.0000 0.79457  0.64940  0.62616  Biso   1.000  C
  C28      1.0000 0.20543  0.14940  0.87384  Biso   1.000  C
  H9       1.0000 0.23850  0.36790  0.38950  Biso   1.000  H
  H10      1.0000 0.76150  0.86790  0.11050  Biso   1.000  H
  H11      1.0000 0.76150  0.63210  0.61050  Biso   1.000  H
  H12      1.0000 0.23850  0.13210  0.88950  Biso   1.000  H
  C29      1.0000 0.20413  0.42090  0.30607  Biso   1.000  C
  C30      1.0000 0.79587  0.92090  0.19393  Biso   1.000  C
  C31      1.0000 0.79587  0.57910  0.69393  Biso   1.000  C
  C32      1.0000 0.20413  0.07910  0.80607  Biso   1.000  C
  C33      1.0000 0.02150  0.29080  0.26940  Biso   1.000  C
  C34      1.0000 0.97850  0.79080  0.23060  Biso   1.000  C
  C35      1.0000 0.97850  0.70920  0.73060  Biso   1.000  C
  C36      1.0000 0.02150  0.20920  0.76940  Biso   1.000  C
  C37      1.0000 0.97200  0.25160  0.25370  Biso   1.000  C
  C38      1.0000 0.02800  0.75160  0.24630  Biso   1.000  C
  C39      1.0000 0.02800  0.74840  0.74630  Biso   1.000  C
  C40      1.0000 0.97200  0.24840  0.75370  Biso   1.000  C
  C41      1.0000 0.88760  0.24390  0.19160  Biso   1.000  C
  C42      1.0000 0.11240  0.74390  0.30840  Biso   1.000  C
  C43      1.0000 0.11240  0.75610  0.80840  Biso   1.000  C
  C44      1.0000 0.88760  0.25610  0.69160  Biso   1.000  C
  C45      1.0000 0.86190  0.26770  0.14780  Biso   1.000  C
  C46      1.0000 0.13810  0.76770  0.35220  Biso   1.000  C
  C47      1.0000 0.13810  0.73230  0.85220  Biso   1.000  C
  C48      1.0000 0.86190  0.23230  0.64780  Biso   1.000  C
  H13      1.0000 0.87680  0.30260  0.13580  Biso   1.000  H
  H14      1.0000 0.12320  0.80260  0.36420  Biso   1.000  H
  H15      1.0000 0.12320  0.69740  0.86420  Biso   1.000  H
  H16      1.0000 0.87680  0.19740  0.63580  Biso   1.000  H
  C49      1.0000 0.81360  0.23940  0.12140  Biso   1.000  C
  C50      1.0000 0.18640  0.73940  0.37860  Biso   1.000  C
  C51      1.0000 0.18640  0.76060  0.87860  Biso   1.000  C
  C52      1.0000 0.81360  0.26060  0.62140  Biso   1.000  C
  C53      1.0000 0.79120  0.18990  0.14082  Biso   1.000  C
  C54      1.0000 0.20880  0.68990  0.35918  Biso   1.000  C
  C55      1.0000 0.20880  0.81010  0.85918  Biso   1.000  C
  C56      1.0000 0.79120  0.31010  0.64082  Biso   1.000  C
  H17      1.0000 0.75850  0.17250  0.12430  Biso   1.000  H
  H18      1.0000 0.24150  0.67250  0.37570  Biso   1.000  H
  H19      1.0000 0.24150  0.82750  0.87570  Biso   1.000  H
  H20      1.0000 0.75850  0.32750  0.62430  Biso   1.000  H
  C57      1.0000 0.81781  0.16550  0.18579  Biso   1.000  C
  C58      1.0000 0.18219  0.66550  0.31421  Biso   1.000  C
  C59      1.0000 0.18219  0.83450  0.81421  Biso   1.000  C
  C60      1.0000 0.81781  0.33450  0.68579  Biso   1.000  C
  C61      1.0000 0.86610  0.19320  0.21050  Biso   1.000  C
  C62      1.0000 0.13390  0.69320  0.28950  Biso   1.000  C
  C63      1.0000 0.13390  0.80680  0.78950  Biso   1.000  C
  C64      1.0000 0.86610  0.30680  0.71050  Biso   1.000  C
  H21      1.0000 0.88390  0.17770  0.23980  Biso   1.000  H
  H22      1.0000 0.11610  0.67770  0.26020  Biso   1.000  H
  H23      1.0000 0.11610  0.82230  0.76020  Biso   1.000  H
  H24      1.0000 0.88390  0.32230  0.73980  Biso   1.000  H
  C65      1.0000 0.79339  0.10610  0.20309  Biso   1.000  C
  C66      1.0000 0.20661  0.60610  0.29691  Biso   1.000  C
  C67      1.0000 0.20661  0.89390  0.79691  Biso   1.000  C
  C68      1.0000 0.79339  0.39390  0.70309  Biso   1.000  C
  C69      1.0000 0.78770  0.25940  0.07404  Biso   1.000  C
  C70      1.0000 0.21230  0.75940  0.42596  Biso   1.000  C
  C71      1.0000 0.21230  0.74060  0.92596  Biso   1.000  C
  C72      1.0000 0.78770  0.24060  0.57404  Biso   1.000  C
  C73      1.0000 0.28419  0.24450  0.60980  Biso   1.000  C
  C74      1.0000 0.71581  0.74450  0.89020  Biso   1.000  C
  C75      1.0000 0.71581  0.75550  0.39020  Biso   1.000  C
  C76      1.0000 0.28419  0.25550  0.10980  Biso   1.000  C
  C77      1.0000 0.30923  0.22360  0.65808  Biso   1.000  C
  C78      1.0000 0.69077  0.72360  0.84192  Biso   1.000  C
  C79      1.0000 0.69077  0.77640  0.34192  Biso   1.000  C
  C80      1.0000 0.30923  0.27640  0.15808  Biso   1.000  C
  C81      1.0000 0.28418  0.17580  0.67796  Biso   1.000  C
  C82      1.0000 0.71582  0.67580  0.82204  Biso   1.000  C
  C83      1.0000 0.71582  0.82420  0.32204  Biso   1.000  C
  C84      1.0000 0.28418  0.32420  0.17796  Biso   1.000  C
  H25      1.0000 0.25120  0.15980  0.66080  Biso   1.000  H
  H26      1.0000 0.74880  0.65980  0.83920  Biso   1.000  H
  H27      1.0000 0.74880  0.84020  0.33920  Biso   1.000  H
  H28      1.0000 0.25120  0.34020  0.16080  Biso   1.000  H
  C85      1.0000 0.30706  0.15310  0.72111  Biso   1.000  C
  C86      1.0000 0.69294  0.65310  0.77889  Biso   1.000  C
  C87      1.0000 0.69294  0.84690  0.27889  Biso   1.000  C
  C88      1.0000 0.30706  0.34690  0.22111  Biso   1.000  C
  C89      1.0000 0.35680  0.17860  0.74726  Biso   1.000  C
  C90      1.0000 0.64320  0.67860  0.75274  Biso   1.000  C
  C91      1.0000 0.64320  0.82140  0.25274  Biso   1.000  C
  C92      1.0000 0.35680  0.32140  0.24726  Biso   1.000  C
  H29      1.0000 0.37250  0.16410  0.77710  Biso   1.000  H
  H30      1.0000 0.62750  0.66410  0.72290  Biso   1.000  H
  H31      1.0000 0.62750  0.83590  0.22290  Biso   1.000  H
  H32      1.0000 0.37250  0.33590  0.27710  Biso   1.000  H
  C93      1.0000 0.38220  0.22400  0.72950  Biso   1.000  C
  C94      1.0000 0.61780  0.72400  0.77050  Biso   1.000  C
  C95      1.0000 0.61780  0.77600  0.27050  Biso   1.000  C
  C96      1.0000 0.38220  0.27600  0.22950  Biso   1.000  C
  C97      1.0000 0.35850  0.24780  0.68510  Biso   1.000  C
  C98      1.0000 0.64150  0.74780  0.81490  Biso   1.000  C
  C99      1.0000 0.64150  0.75220  0.31490  Biso   1.000  C
  C100     1.0000 0.35850  0.25220  0.18510  Biso   1.000  C
  H33      1.0000 0.37540  0.28000  0.67330  Biso   1.000  H
  H34      1.0000 0.62460  0.78000  0.82670  Biso   1.000  H
  H35      1.0000 0.62460  0.72000  0.32670  Biso   1.000  H
  H36      1.0000 0.37540  0.22000  0.17330  Biso   1.000  H
  C101     1.0000 0.28400  0.09360  0.73940  Biso   1.000  C
  C102     1.0000 0.71600  0.59360  0.76060  Biso   1.000  C
  C103     1.0000 0.71600  0.90640  0.26060  Biso   1.000  C
  C104     1.0000 0.28400  0.40640  0.23940  Biso   1.000  C
  C105     1.0000 0.46800  0.26470  0.74260  Biso   1.000  C
  C106     1.0000 0.53200  0.76470  0.75740  Biso   1.000  C
  C107     1.0000 0.53200  0.73530  0.25740  Biso   1.000  C
  C108     1.0000 0.46800  0.23530  0.24260  Biso   1.000  C
  C109     1.0000 0.51930  0.28080  0.77890  Biso   1.000  C
  C110     1.0000 0.48070  0.78080  0.72110  Biso   1.000  C
  C111     1.0000 0.48070  0.71920  0.22110  Biso   1.000  C
  C112     1.0000 0.51930  0.21920  0.27890  Biso   1.000  C
  C113     1.0000 0.60830  0.31210  0.78960  Biso   1.000  C
  C114     1.0000 0.39170  0.81210  0.71040  Biso   1.000  C
  C115     1.0000 0.39170  0.68790  0.21040  Biso   1.000  C
  C116     1.0000 0.60830  0.18790  0.28960  Biso   1.000  C
  C117     1.0000 0.63330  0.34530  0.76630  Biso   1.000  C
  C118     1.0000 0.36670  0.84530  0.73370  Biso   1.000  C
  C119     1.0000 0.36670  0.65470  0.23370  Biso   1.000  C
  C120     1.0000 0.63330  0.15470  0.26630  Biso   1.000  C
  H37      1.0000 0.61720  0.35310  0.73550  Biso   1.000  H
  H38      1.0000 0.38280  0.85310  0.76450  Biso   1.000  H
  H39      1.0000 0.38280  0.64690  0.26450  Biso   1.000  H
  H40      1.0000 0.61720  0.14690  0.23550  Biso   1.000  H
  C121     1.0000 0.68520  0.36820  0.79068  Biso   1.000  C
  C122     1.0000 0.31480  0.86820  0.70932  Biso   1.000  C
  C123     1.0000 0.31480  0.63180  0.20932  Biso   1.000  C
  C124     1.0000 0.68520  0.13180  0.29068  Biso   1.000  C
  C125     1.0000 0.70916  0.34970  0.83504  Biso   1.000  C
  C126     1.0000 0.29084  0.84970  0.66496  Biso   1.000  C
  C127     1.0000 0.29084  0.65030  0.16496  Biso   1.000  C
  C128     1.0000 0.70916  0.15030  0.33504  Biso   1.000  C
  H41      1.0000 0.74360  0.36120  0.85050  Biso   1.000  H
  H42      1.0000 0.25640  0.86120  0.64950  Biso   1.000  H
  H43      1.0000 0.25640  0.63880  0.14950  Biso   1.000  H
  H44      1.0000 0.74360  0.13880  0.35050  Biso   1.000  H
  C129     1.0000 0.68190  0.31340  0.85722  Biso   1.000  C
  C130     1.0000 0.31810  0.81340  0.64278  Biso   1.000  C
  C131     1.0000 0.31810  0.68660  0.14278  Biso   1.000  C
  C132     1.0000 0.68190  0.18660  0.35722  Biso   1.000  C
  C133     1.0000 0.62950  0.29460  0.83360  Biso   1.000  C
  C134     1.0000 0.37050  0.79460  0.66640  Biso   1.000  C
  C135     1.0000 0.37050  0.70540  0.16640  Biso   1.000  C
  C136     1.0000 0.62950  0.20540  0.33360  Biso   1.000  C
  H45      1.0000 0.61060  0.27130  0.84790  Biso   1.000  H
  H46      1.0000 0.38940  0.77130  0.65210  Biso   1.000  H
  H47      1.0000 0.38940  0.72870  0.15210  Biso   1.000  H
  H48      1.0000 0.61060  0.22870  0.34790  Biso   1.000  H
  C137     1.0000 0.70782  0.29990  0.90724  Biso   1.000  C
  C138     1.0000 0.29218  0.79990  0.59276  Biso   1.000  C
  C139     1.0000 0.29218  0.70010  0.09276  Biso   1.000  C
  C140     1.0000 0.70782  0.20010  0.40724  Biso   1.000  C
  C141     1.0000 0.71244  0.41250  0.76670  Biso   1.000  C
  C142     1.0000 0.28756  0.91250  0.73330  Biso   1.000  C
  C143     1.0000 0.28756  0.58750  0.23330  Biso   1.000  C
  C144     1.0000 0.71244  0.08750  0.26670  Biso   1.000  C
  C145     1.0000 0.29707  0.16420  0.51685  Biso   1.000  C
  C146     1.0000 0.70293  0.66420  0.98315  Biso   1.000  C
  C147     1.0000 0.70293  0.83580  0.48315  Biso   1.000  C
  C148     1.0000 0.29707  0.33580  0.01685  Biso   1.000  C
  C149     1.0000 0.32145  0.09530  0.50904  Biso   1.000  C
  C150     1.0000 0.67855  0.59530  0.99096  Biso   1.000  C
  C151     1.0000 0.67855  0.90470  0.49096  Biso   1.000  C
  C152     1.0000 0.32145  0.40470  0.00904  Biso   1.000  C
  C153     1.0000 0.37000  0.09810  0.50620  Biso   1.000  C
  C154     1.0000 0.63000  0.59810  0.99380  Biso   1.000  C
  C155     1.0000 0.63000  0.90190  0.49380  Biso   1.000  C
  C156     1.0000 0.37000  0.40190  0.00620  Biso   1.000  C
  H49      1.0000 0.38610  0.14220  0.50730  Biso   1.000  H
  H50      1.0000 0.61390  0.64220  0.99270  Biso   1.000  H
  H51      1.0000 0.61390  0.85780  0.49270  Biso   1.000  H
  H52      1.0000 0.38610  0.35780  0.00730  Biso   1.000  H
  C157     1.0000 0.39350  0.03520  0.50180  Biso   1.000  C
  C158     1.0000 0.60650  0.53520  0.99820  Biso   1.000  C
  C159     1.0000 0.60650  0.96480  0.49820  Biso   1.000  C
  C160     1.0000 0.39350  0.46480  0.00180  Biso   1.000  C
  C161     1.0000 0.36850  0.96730  0.49940  Biso   1.000  C
  C162     1.0000 0.63150  0.46730  0.00060  Biso   1.000  C
  C163     1.0000 0.63150  0.03270  0.50060  Biso   1.000  C
  C164     1.0000 0.36850  0.53270  0.99940  Biso   1.000  C
  H53      1.0000 0.38470  0.92480  0.49660  Biso   1.000  H
  H54      1.0000 0.61530  0.42480  0.00340  Biso   1.000  H
  H55      1.0000 0.61530  0.07520  0.50340  Biso   1.000  H
  H56      1.0000 0.38470  0.57520  0.99660  Biso   1.000  H
  C165     1.0000 0.32076  0.96480  0.50112  Biso   1.000  C
  C166     1.0000 0.67924  0.46480  0.99888  Biso   1.000  C
  C167     1.0000 0.67924  0.03520  0.49888  Biso   1.000  C
  C168     1.0000 0.32076  0.53520  0.00112  Biso   1.000  C
  C169     1.0000 0.29725  0.02990  0.50652  Biso   1.000  C
  C170     1.0000 0.70275  0.52990  0.99348  Biso   1.000  C
  C171     1.0000 0.70275  0.97010  0.49348  Biso   1.000  C
  C172     1.0000 0.29725  0.47010  0.00652  Biso   1.000  C
  H57      1.0000 0.26510  0.02840  0.50840  Biso   1.000  H
  H58      1.0000 0.73490  0.52840  0.99160  Biso   1.000  H
  H59      1.0000 0.73490  0.97160  0.49160  Biso   1.000  H
  H60      1.0000 0.26510  0.47160  0.00840  Biso   1.000  H
  C173     1.0000 0.29468  0.89620  0.50061  Biso   1.000  C
  C174     1.0000 0.70532  0.39620  0.99939  Biso   1.000  C
  C175     1.0000 0.70532  0.10380  0.49939  Biso   1.000  C
  C176     1.0000 0.29468  0.60380  0.00061  Biso   1.000  C
  C177     1.0000 0.47420  0.98870  0.50040  Biso   1.000  C
  C178     1.0000 0.52580  0.48870  0.99960  Biso   1.000  C
  C179     1.0000 0.52580  0.01130  0.49960  Biso   1.000  C
  C180     1.0000 0.47420  0.51130  0.00040  Biso   1.000  C
  C181     1.0000 0.21692  0.39450  0.53564  Biso   1.000  C
  C182     1.0000 0.78308  0.89450  0.96436  Biso   1.000  C
  C183     1.0000 0.78308  0.60550  0.46436  Biso   1.000  C
  C184     1.0000 0.21692  0.10550  0.03564  Biso   1.000  C
  C185     1.0000 0.19080  0.46580  0.53350  Biso   1.000  C
  C186     1.0000 0.80920  0.96580  0.96650  Biso   1.000  C
  C187     1.0000 0.80920  0.53420  0.46650  Biso   1.000  C
  C188     1.0000 0.19080  0.03420  0.03350  Biso   1.000  C
  C189     1.0000 0.21472  0.53110  0.53134  Biso   1.000  C
  C190     1.0000 0.78528  0.03110  0.96866  Biso   1.000  C
  C191     1.0000 0.78528  0.46890  0.46866  Biso   1.000  C
  C192     1.0000 0.21472  0.96890  0.03134  Biso   1.000  C
  H61      1.0000 0.24850  0.53150  0.53320  Biso   1.000  H
  H62      1.0000 0.75150  0.03150  0.96680  Biso   1.000  H
  H63      1.0000 0.75150  0.46850  0.46680  Biso   1.000  H
  H64      1.0000 0.24850  0.96850  0.03320  Biso   1.000  H
  C193     1.0000 0.18780  0.59500  0.52640  Biso   1.000  C
  C194     1.0000 0.81220  0.09500  0.97360  Biso   1.000  C
  C195     1.0000 0.81220  0.40500  0.47360  Biso   1.000  C
  C196     1.0000 0.18780  0.90500  0.02640  Biso   1.000  C
  C197     1.0000 0.13840  0.59660  0.52220  Biso   1.000  C
  C198     1.0000 0.86160  0.09660  0.97780  Biso   1.000  C
  C199     1.0000 0.86160  0.40340  0.47780  Biso   1.000  C
  C200     1.0000 0.13840  0.90340  0.02220  Biso   1.000  C
  H65      1.0000 0.12080  0.64010  0.51800  Biso   1.000  H
  H66      1.0000 0.87920  0.14010  0.98200  Biso   1.000  H
  H67      1.0000 0.87920  0.35990  0.48200  Biso   1.000  H
  H68      1.0000 0.12080  0.85990  0.01800  Biso   1.000  H
  C201     1.0000 0.11440  0.53240  0.52430  Biso   1.000  C
  C202     1.0000 0.88560  0.03240  0.97570  Biso   1.000  C
  C203     1.0000 0.88560  0.46760  0.47570  Biso   1.000  C
  C204     1.0000 0.11440  0.96760  0.02430  Biso   1.000  C
  C205     1.0000 0.13800  0.46740  0.52880  Biso   1.000  C
  C206     1.0000 0.86200  0.96740  0.97120  Biso   1.000  C
  C207     1.0000 0.86200  0.53260  0.47120  Biso   1.000  C
  C208     1.0000 0.13800  0.03260  0.02880  Biso   1.000  C
  H69      1.0000 0.12040  0.42500  0.52880  Biso   1.000  H
  H70      1.0000 0.87960  0.92500  0.97120  Biso   1.000  H
  H71      1.0000 0.87960  0.57500  0.47120  Biso   1.000  H
  H72      1.0000 0.12040  0.07500  0.02880  Biso   1.000  H
  C209     1.0000 0.21350  0.66430  0.52120  Biso   1.000  C
  C210     1.0000 0.78650  0.16430  0.97880  Biso   1.000  C
  C211     1.0000 0.78650  0.33570  0.47880  Biso   1.000  C
  C212     1.0000 0.21350  0.83570  0.02120  Biso   1.000  C
  C213     1.0000 0.02570  0.48950  0.50260  Biso   1.000  C
  C214     1.0000 0.97430  0.98950  0.99740  Biso   1.000  C
  C215     1.0000 0.97430  0.51050  0.49740  Biso   1.000  C
  C216     1.0000 0.02570  0.01050  0.00260  Biso   1.000  C
  N1       1.0000 0.05730  0.26820  0.30421  Biso   1.000  N
  N2       1.0000 0.94270  0.76820  0.19579  Biso   1.000  N
  N3       1.0000 0.94270  0.73180  0.69579  Biso   1.000  N
  N4       1.0000 0.05730  0.23180  0.80421  Biso   1.000  N
  H73      1.0000 0.05050  0.23000  0.31600  Biso   1.000  H
  H74      1.0000 0.94950  0.73000  0.18400  Biso   1.000  H
  H75      1.0000 0.94950  0.77000  0.68400  Biso   1.000  H
  H76      1.0000 0.05050  0.27000  0.81600  Biso   1.000  H
  N5       1.0000 0.93670  0.27260  0.21409  Biso   1.000  N
  N6       1.0000 0.06330  0.77260  0.28591  Biso   1.000  N
  N7       1.0000 0.06330  0.72740  0.78591  Biso   1.000  N
  N8       1.0000 0.93670  0.22740  0.71409  Biso   1.000  N
  H77      1.0000 0.94520  0.30790  0.20100  Biso   1.000  H
  H78      1.0000 0.05480  0.80790  0.29900  Biso   1.000  H
  H79      1.0000 0.05480  0.69210  0.79900  Biso   1.000  H
  H80      1.0000 0.94520  0.19210  0.70100  Biso   1.000  H
  N9       1.0000 0.43209  0.24690  0.75612  Biso   1.000  N
  N10      1.0000 0.56791  0.74690  0.74388  Biso   1.000  N
  N11      1.0000 0.56791  0.75310  0.24388  Biso   1.000  N
  N12      1.0000 0.43209  0.25310  0.25612  Biso   1.000  N
  H81      1.0000 0.43950  0.24910  0.78470  Biso   1.000  H
  H82      1.0000 0.56050  0.74910  0.71530  Biso   1.000  H
  H83      1.0000 0.56050  0.75090  0.21530  Biso   1.000  H
  H84      1.0000 0.43950  0.25090  0.28470  Biso   1.000  H
  N13      1.0000 0.55640  0.29120  0.76290  Biso   1.000  N
  N14      1.0000 0.44360  0.79120  0.73710  Biso   1.000  N
  N15      1.0000 0.44360  0.70880  0.23710  Biso   1.000  N
  N16      1.0000 0.55640  0.20880  0.26290  Biso   1.000  N
  H85      1.0000 0.54850  0.28490  0.73450  Biso   1.000  H
  H86      1.0000 0.45150  0.78490  0.76550  Biso   1.000  H
  H87      1.0000 0.45150  0.71510  0.26550  Biso   1.000  H
  H88      1.0000 0.54850  0.21510  0.23450  Biso   1.000  H
  N17      1.0000 0.06130  0.53840  0.51870  Biso   1.000  N
  N18      1.0000 0.93870  0.03840  0.98130  Biso   1.000  N
  N19      1.0000 0.93870  0.46160  0.48130  Biso   1.000  N
  N20      1.0000 0.06130  0.96160  0.01870  Biso   1.000  N
  H89      1.0000 0.05220  0.57850  0.52690  Biso   1.000  H
  H90      1.0000 0.94780  0.07850  0.97310  Biso   1.000  H
  H91      1.0000 0.94780  0.42150  0.47310  Biso   1.000  H
  H92      1.0000 0.05220  0.92150  0.02690  Biso   1.000  H
  N21      1.0000 0.44221  0.03890  0.49920  Biso   1.000  N
  N22      1.0000 0.55779  0.53890  0.00080  Biso   1.000  N
  N23      1.0000 0.55779  0.96110  0.50080  Biso   1.000  N
  N24      1.0000 0.44221  0.46110  0.99920  Biso   1.000  N
  H93      1.0000 0.45220  0.08180  0.49640  Biso   1.000  H
  H94      1.0000 0.54780  0.58180  0.00360  Biso   1.000  H
  H95      1.0000 0.54780  0.91820  0.50360  Biso   1.000  H
  H96      1.0000 0.45220  0.41820  0.99640  Biso   1.000  H
  O121     1.0000 0.36691  0.36290  0.54241  Biso   1.000  O
  O122     1.0000 0.63309  0.86290  0.95759  Biso   1.000  O
  O123     1.0000 0.63309  0.63710  0.45759  Biso   1.000  O
  O124     1.0000 0.36691  0.13710  0.04241  Biso   1.000  O
  O125     1.0000 0.13863  0.18800  0.52007  Biso   1.000  O
  O126     1.0000 0.86137  0.68800  0.97993  Biso   1.000  O
  O127     1.0000 0.86137  0.81200  0.47993  Biso   1.000  O
  O128     1.0000 0.13863  0.31200  0.02007  Biso   1.000  O
  O129     1.0000 0.35509  0.50650  0.36458  Biso   1.000  O
  O130     1.0000 0.64491  0.00650  0.13542  Biso   1.000  O
  O131     1.0000 0.64491  0.49350  0.63542  Biso   1.000  O
  O132     1.0000 0.35509  0.99350  0.86458  Biso   1.000  O
  O133     1.0000 0.13740  0.50120  0.16895  Biso   1.000  O
  O134     1.0000 0.86260  0.00120  0.33105  Biso   1.000  O
  O135     1.0000 0.86260  0.49880  0.83105  Biso   1.000  O
  O136     1.0000 0.13740  0.99880  0.66895  Biso   1.000  O
  O137     1.0000 0.85570  0.37310  0.99529  Biso   1.000  O
  O138     1.0000 0.14430  0.87310  0.50471  Biso   1.000  O
  O139     1.0000 0.14430  0.62690  0.00471  Biso   1.000  O
  O140     1.0000 0.85570  0.12690  0.49529  Biso   1.000  O
  O141     1.0000 0.64061  0.18320  0.98870  Biso   1.000  O
  O142     1.0000 0.35939  0.68320  0.51130  Biso   1.000  O
  O143     1.0000 0.35939  0.81680  0.01130  Biso   1.000  O
  O144     1.0000 0.64061  0.31680  0.48870  Biso   1.000  O
