data_image0
_cell_length_a       10.901
_cell_length_b       13.265
_cell_length_c       13.411
_cell_angle_alpha    99.282
_cell_angle_beta     95.646
_cell_angle_gamma    113.544

_symmetry_space_group_name_H-M    "P 1"
_symmetry_int_tables_number       1

loop_
  _symmetry_equiv_pos_as_xyz
  'x, y, z'

loop_
  _atom_site_label
  _atom_site_occupancy
  _atom_site_fract_x
  _atom_site_fract_y
  _atom_site_fract_z
  _atom_site_thermal_displace_type
  _atom_site_B_iso_or_equiv
  _atom_site_type_symbol
  Cu1      1.0000 0.50000  0.50000  0.50000  Biso   1.000  Cu
  O1       1.0000 0.36400  0.47025  0.37554  Biso   1.000  O
  O2       1.0000 0.63600  0.52975  0.62446  Biso   1.000  O
  C1       1.0000 0.20260  0.48560  0.25860  Biso   1.000  C
  C2       1.0000 0.79740  0.51440  0.74140  Biso   1.000  C
  F1       1.0000 0.28530  0.54190  0.20290  Biso   1.000  F
  F2       1.0000 0.71470  0.45810  0.79710  Biso   1.000  F
  F3       1.0000 0.11500  0.51400  0.24600  Biso   1.000  F
  F4       1.0000 0.88500  0.48600  0.75400  Biso   1.000  F
  F5       1.0000 0.15800  0.38250  0.20960  Biso   1.000  F
  F6       1.0000 0.84200  0.61750  0.79040  Biso   1.000  F
  F7       1.0000 0.29770  0.53240  0.20150  Biso   1.000  F
  F8       1.0000 0.70230  0.46760  0.79850  Biso   1.000  F
  F9       1.0000 0.09800  0.52800  0.25460  Biso   1.000  F
  F10      1.0000 0.90200  0.47200  0.74540  Biso   1.000  F
  F11      1.0000 0.13800  0.37290  0.22130  Biso   1.000  F
  F12      1.0000 0.86200  0.62710  0.77870  Biso   1.000  F
  C3       1.0000 0.27250  0.50610  0.36820  Biso   1.000  C
  C4       1.0000 0.72750  0.49390  0.63180  Biso   1.000  C
  C5       1.0000 0.23330  0.56200  0.44630  Biso   1.000  C
  C6       1.0000 0.76670  0.43800  0.55370  Biso   1.000  C
  H1       1.0000 0.16270  0.58440  0.42910  Biso   1.000  H
  H2       1.0000 0.83730  0.41560  0.57090  Biso   1.000  H
  C7       1.0000 0.29300  0.58660  0.54850  Biso   1.000  C
  C8       1.0000 0.70700  0.41340  0.45150  Biso   1.000  C
  C9       1.0000 0.24660  0.65530  0.62700  Biso   1.000  C
  C10      1.0000 0.75340  0.34470  0.37300  Biso   1.000  C
  F13      1.0000 0.15400  0.68540  0.59600  Biso   1.000  F
  F14      1.0000 0.84600  0.31460  0.40400  Biso   1.000  F
  F15      1.0000 0.36280  0.75320  0.67090  Biso   1.000  F
  F16      1.0000 0.63720  0.24680  0.32910  Biso   1.000  F
  F17      1.0000 0.21740  0.60500  0.70110  Biso   1.000  F
  F18      1.0000 0.78260  0.39500  0.29890  Biso   1.000  F
  F19      1.0000 0.24300  0.62800  0.71930  Biso   1.000  F
  F20      1.0000 0.75700  0.37200  0.28070  Biso   1.000  F
  F21      1.0000 0.30750  0.75980  0.63880  Biso   1.000  F
  F22      1.0000 0.69250  0.24020  0.36120  Biso   1.000  F
  F23      1.0000 0.11400  0.63040  0.59240  Biso   1.000  F
  F24      1.0000 0.88600  0.36960  0.40760  Biso   1.000  F
  O3       1.0000 0.38280  0.56090  0.58646  Biso   1.000  O
  O4       1.0000 0.61720  0.43910  0.41354  Biso   1.000  O
  Cu2      1.0000 0.00000  0.00000  0.00000  Biso   1.000  Cu
  O5       1.0000 0.96890  0.85823  0.04370  Biso   1.000  O
  O6       1.0000 0.03110  0.14177  0.95630  Biso   1.000  O
  C11      1.0000 0.96940  0.68220  0.04470  Biso   1.000  C
  C12      1.0000 0.03060  0.31780  0.95530  Biso   1.000  C
  F25      1.0000 0.84100  0.64420  0.05780  Biso   1.000  F
  F26      1.0000 0.15900  0.35580  0.94220  Biso   1.000  F
  F27      1.0000 0.98770  0.60490  0.98350  Biso   1.000  F
  F28      1.0000 0.01230  0.39510  0.01650  Biso   1.000  F
  F29      1.0000 0.03500  0.69600  0.13900  Biso   1.000  F
  F30      1.0000 0.96500  0.30400  0.86100  Biso   1.000  F
  F31      1.0000 0.00500  0.69500  0.14200  Biso   1.000  F
  F32      1.0000 0.99500  0.30500  0.85800  Biso   1.000  F
  F33      1.0000 0.83200  0.63500  0.01940  Biso   1.000  F
  F34      1.0000 0.16800  0.36500  0.98060  Biso   1.000  F
  F35      1.0000 0.00900  0.60640  0.00040  Biso   1.000  F
  F36      1.0000 0.99100  0.39360  0.99960  Biso   1.000  F
  C13      1.0000 0.02320  0.79490  0.01120  Biso   1.000  C
  C14      1.0000 0.97680  0.20510  0.98880  Biso   1.000  C
  C15      1.0000 0.12850  0.81740  0.95370  Biso   1.000  C
  C16      1.0000 0.87150  0.18260  0.04630  Biso   1.000  C
  H3       1.0000 0.16020  0.76130  0.93410  Biso   1.000  H
  H4       1.0000 0.83980  0.23870  0.06590  Biso   1.000  H
  C17      1.0000 0.18620  0.91790  0.92550  Biso   1.000  C
  C18      1.0000 0.81380  0.08210  0.07450  Biso   1.000  C
  C19      1.0000 0.30950  0.94240  0.86990  Biso   1.000  C
  C20      1.0000 0.69050  0.05760  0.13010  Biso   1.000  C
  F37      1.0000 0.27000  0.94700  0.78100  Biso   1.000  F
  F38      1.0000 0.73000  0.05300  0.21900  Biso   1.000  F
  F39      1.0000 0.40500  0.04120  0.90900  Biso   1.000  F
  F40      1.0000 0.59500  0.95880  0.09100  Biso   1.000  F
  F41      1.0000 0.36100  0.86700  0.87600  Biso   1.000  F
  F42      1.0000 0.63900  0.13300  0.12400  Biso   1.000  F
  F43      1.0000 0.34800  0.85900  0.85300  Biso   1.000  F
  F44      1.0000 0.65200  0.14100  0.14700  Biso   1.000  F
  F45      1.0000 0.28400  0.95500  0.77020  Biso   1.000  F
  F46      1.0000 0.71600  0.04500  0.22980  Biso   1.000  F
  F47      1.0000 0.41900  0.03500  0.92700  Biso   1.000  F
  F48      1.0000 0.58100  0.96500  0.07300  Biso   1.000  F
  O7       1.0000 0.15440  0.00033  0.93927  Biso   1.000  O
  O8       1.0000 0.84560  0.99967  0.06073  Biso   1.000  O
  O9       1.0000 0.58720  0.66970  0.48406  Biso   1.000  O
  O10      1.0000 0.41280  0.33030  0.51594  Biso   1.000  O
  N1       1.0000 0.71460  0.72360  0.47550  Biso   1.000  N
  N2       1.0000 0.28540  0.27640  0.52450  Biso   1.000  N
  C21      1.0000 0.75420  0.74240  0.37310  Biso   1.000  C
  C22      1.0000 0.24580  0.25760  0.62690  Biso   1.000  C
  C23      1.0000 0.68110  0.63520  0.28960  Biso   1.000  C
  C24      1.0000 0.31890  0.36480  0.71040  Biso   1.000  C
  H5       1.0000 0.58440  0.61880  0.27400  Biso   1.000  H
  H6       1.0000 0.41560  0.38120  0.72600  Biso   1.000  H
  H7       1.0000 0.69080  0.57230  0.31350  Biso   1.000  H
  H8       1.0000 0.30920  0.42770  0.68650  Biso   1.000  H
  H9       1.0000 0.72090  0.64550  0.22760  Biso   1.000  H
  H10      1.0000 0.27910  0.35450  0.77240  Biso   1.000  H
  C25      1.0000 0.71210  0.83390  0.34880  Biso   1.000  C
  C26      1.0000 0.28790  0.16610  0.65120  Biso   1.000  C
  H11      1.0000 0.61290  0.80220  0.32970  Biso   1.000  H
  H12      1.0000 0.38710  0.19780  0.67030  Biso   1.000  H
  H13      1.0000 0.75370  0.86240  0.29170  Biso   1.000  H
  H14      1.0000 0.24630  0.13760  0.70830  Biso   1.000  H
  H15      1.0000 0.74280  0.89590  0.40950  Biso   1.000  H
  H16      1.0000 0.25720  0.10410  0.59050  Biso   1.000  H
  C27      1.0000 0.91090  0.78280  0.40080  Biso   1.000  C
  C28      1.0000 0.08910  0.21720  0.59920  Biso   1.000  C
  C29      1.0000 0.95770  0.68820  0.39130  Biso   1.000  C
  C30      1.0000 0.04230  0.31180  0.60870  Biso   1.000  C
  H17      1.0000 0.05660  0.72030  0.41330  Biso   1.000  H
  H18      1.0000 0.94340  0.27970  0.58670  Biso   1.000  H
  H19      1.0000 0.93330  0.64660  0.31960  Biso   1.000  H
  H20      1.0000 0.06670  0.35340  0.68040  Biso   1.000  H
  H21      1.0000 0.91330  0.63680  0.43480  Biso   1.000  H
  H22      1.0000 0.08670  0.36320  0.56520  Biso   1.000  H
  C31      1.0000 0.99480  0.87440  0.35000  Biso   1.000  C
  C32      1.0000 0.00520  0.12560  0.65000  Biso   1.000  C
  H23      1.0000 0.09160  0.89510  0.37250  Biso   1.000  H
  H24      1.0000 0.90840  0.10490  0.62750  Biso   1.000  H
  H25      1.0000 0.97610  0.94070  0.36910  Biso   1.000  H
  H26      1.0000 0.02390  0.05930  0.63090  Biso   1.000  H
  H27      1.0000 0.97110  0.84700  0.27520  Biso   1.000  H
  H28      1.0000 0.02890  0.15300  0.72480  Biso   1.000  H
  N3       1.0000 0.93320  0.82960  0.51490  Biso   1.000  N
  N4       1.0000 0.06680  0.17040  0.48510  Biso   1.000  N
  O11      1.0000 0.05120  0.89150  0.56752  Biso   1.000  O
  O12      1.0000 0.94880  0.10850  0.43248  Biso   1.000  O
  C33      1.0000 0.81690  0.78690  0.55300  Biso   1.000  C
  C34      1.0000 0.18310  0.21310  0.44700  Biso   1.000  C
  C35      1.0000 0.80730  0.81010  0.65940  Biso   1.000  C
  C36      1.0000 0.19270  0.18990  0.34060  Biso   1.000  C
  C37      1.0000 0.90960  0.87680  0.74450  Biso   1.000  C
  C38      1.0000 0.09040  0.12320  0.25550  Biso   1.000  C
  H29      1.0000 0.00280  0.91580  0.74050  Biso   1.000  H
  H30      1.0000 0.99720  0.08420  0.25950  Biso   1.000  H
  N5       1.0000 0.72420  0.81090  0.80220  Biso   1.000  N
  N6       1.0000 0.27580  0.18910  0.19780  Biso   1.000  N
  N7       1.0000 0.86070  0.87890  0.83100  Biso   1.000  N
  N8       1.0000 0.13930  0.12110  0.16900  Biso   1.000  N
  C39      1.0000 0.63600  0.78920  0.87970  Biso   1.000  C
  C40      1.0000 0.36400  0.21080  0.12030  Biso   1.000  C
  H31      1.0000 0.55560  0.80240  0.85690  Biso   1.000  H
  H32      1.0000 0.44440  0.19760  0.14310  Biso   1.000  H
  H33      1.0000 0.68610  0.84480  0.94480  Biso   1.000  H
  H34      1.0000 0.31390  0.15520  0.05520  Biso   1.000  H
  C41      1.0000 0.58610  0.67070  0.90160  Biso   1.000  C
  C42      1.0000 0.41390  0.32930  0.09840  Biso   1.000  C
  H35      1.0000 0.66360  0.64970  0.90810  Biso   1.000  H
  H36      1.0000 0.33640  0.35030  0.09190  Biso   1.000  H
  H37      1.0000 0.51710  0.61650  0.84240  Biso   1.000  H
  H38      1.0000 0.48290  0.38350  0.15760  Biso   1.000  H
  C43      1.0000 0.52390  0.66060  0.99980  Biso   1.000  C
  C44      1.0000 0.47610  0.33940  0.00020  Biso   1.000  C
  H39      1.0000 0.52160  0.59300  0.02360  Biso   1.000  H
  H40      1.0000 0.47840  0.40700  0.97640  Biso   1.000  H
  H41      1.0000 0.57800  0.72800  0.05540  Biso   1.000  H
  H42      1.0000 0.42200  0.27200  0.94460  Biso   1.000  H
  C45      1.0000 0.38290  0.65090  0.97160  Biso   1.000  C
  C46      1.0000 0.61710  0.34910  0.02840  Biso   1.000  C
  H43      1.0000 0.33960  0.64710  0.03250  Biso   1.000  H
  H44      1.0000 0.66040  0.35290  0.96750  Biso   1.000  H
  H45      1.0000 0.32990  0.58240  0.91840  Biso   1.000  H
  H46      1.0000 0.67010  0.41760  0.08160  Biso   1.000  H
  H47      1.0000 0.38680  0.71680  0.94560  Biso   1.000  H
  H48      1.0000 0.61320  0.28320  0.05440  Biso   1.000  H
  C47      1.0000 0.54560  0.67010  0.86320  Biso   1.000  C
  C48      1.0000 0.45440  0.32990  0.13680  Biso   1.000  C
  H49      1.0000 0.60060  0.62670  0.86980  Biso   1.000  H
  H50      1.0000 0.39940  0.37330  0.13020  Biso   1.000  H
  H51      1.0000 0.49220  0.64350  0.79260  Biso   1.000  H
  H52      1.0000 0.50780  0.35650  0.20740  Biso   1.000  H
  C49      1.0000 0.44840  0.64760  0.93990  Biso   1.000  C
  C50      1.0000 0.55160  0.35240  0.06010  Biso   1.000  C
  H53      1.0000 0.39890  0.69570  0.93580  Biso   1.000  H
  H54      1.0000 0.60110  0.30430  0.06420  Biso   1.000  H
  H55      1.0000 0.38030  0.56820  0.91820  Biso   1.000  H
  H56      1.0000 0.61970  0.43180  0.08180  Biso   1.000  H
  C51      1.0000 0.51250  0.66840  0.05100  Biso   1.000  C
  C52      1.0000 0.48750  0.33160  0.94900  Biso   1.000  C
  H57      1.0000 0.44610  0.66860  0.09520  Biso   1.000  H
  H58      1.0000 0.55390  0.33140  0.90480  Biso   1.000  H
  H59      1.0000 0.59200  0.74140  0.06990  Biso   1.000  H
  H60      1.0000 0.40800  0.25860  0.93010  Biso   1.000  H
  H61      1.0000 0.54090  0.60850  0.05980  Biso   1.000  H
  H62      1.0000 0.45910  0.39150  0.94020  Biso   1.000  H
  C53      1.0000 0.68900  0.76960  0.70160  Biso   1.000  C
  C54      1.0000 0.31100  0.23040  0.29840  Biso   1.000  C
  H63      1.0000 0.59990  0.72150  0.66490  Biso   1.000  H
  H64      1.0000 0.40010  0.27850  0.33510  Biso   1.000  H
  C55      1.0000 0.66440  0.04670  0.77640  Biso   1.000  C
  C56      1.0000 0.33560  0.95330  0.22360  Biso   1.000  C
  H65      1.0000 0.67480  0.06310  0.85150  Biso   1.000  H
  H66      1.0000 0.32520  0.93690  0.14850  Biso   1.000  H
  H67      1.0000 0.74960  0.04910  0.75680  Biso   1.000  H
  H68      1.0000 0.25040  0.95090  0.24320  Biso   1.000  H
  H69      1.0000 0.59090  0.97160  0.74780  Biso   1.000  H
  H70      1.0000 0.40910  0.02840  0.25220  Biso   1.000  H
  C57      1.0000 0.63030  0.13360  0.73520  Biso   1.000  C
  C58      1.0000 0.36970  0.86640  0.26480  Biso   1.000  C
  H71      1.0000 0.70220  0.20950  0.76770  Biso   1.000  H
  H72      1.0000 0.29780  0.79050  0.23230  Biso   1.000  H
  H73      1.0000 0.54370  0.13000  0.75470  Biso   1.000  H
  H74      1.0000 0.45630  0.87000  0.24530  Biso   1.000  H
  C59      1.0000 0.61690  0.11760  0.61810  Biso   1.000  C
  C60      1.0000 0.38310  0.88240  0.38190  Biso   1.000  C
  H75      1.0000 0.59530  0.17780  0.59740  Biso   1.000  H
  H76      1.0000 0.40470  0.82220  0.40260  Biso   1.000  H
  H77      1.0000 0.70610  0.12750  0.59970  Biso   1.000  H
  H78      1.0000 0.29390  0.87250  0.40030  Biso   1.000  H
  C61      1.0000 0.50960  0.00430  0.55650  Biso   1.000  C
  C62      1.0000 0.49040  0.99570  0.44350  Biso   1.000  C
  H79      1.0000 0.53570  0.94420  0.57160  Biso   1.000  H
  H80      1.0000 0.46430  0.05580  0.42840  Biso   1.000  H
  H81      1.0000 0.42180  0.99080  0.57920  Biso   1.000  H
  H82      1.0000 0.57820  0.00920  0.42080  Biso   1.000  H
