data_image0
_cell_length_a       11.144
_cell_length_b       13.333
_cell_length_c       13.454
_cell_angle_alpha    98.467
_cell_angle_beta     96.838
_cell_angle_gamma    112.28

_symmetry_space_group_name_H-M    "P 1"
_symmetry_int_tables_number       1

loop_
  _symmetry_equiv_pos_as_xyz
  'x, y, z'

loop_
  _atom_site_label
  _atom_site_occupancy
  _atom_site_fract_x
  _atom_site_fract_y
  _atom_site_fract_z
  _atom_site_thermal_displace_type
  _atom_site_B_iso_or_equiv
  _atom_site_type_symbol
  Cu1      1.0000 0.50000  0.50000  0.50000  Biso   1.000  Cu
  O1       1.0000 0.37671  0.47396  0.37344  Biso   1.000  O
  O2       1.0000 0.62329  0.52604  0.62656  Biso   1.000  O
  C1       1.0000 0.21290  0.48370  0.25520  Biso   1.000  C
  C2       1.0000 0.78710  0.51630  0.74480  Biso   1.000  C
  F1       1.0000 0.29100  0.53980  0.19840  Biso   1.000  F
  F2       1.0000 0.70900  0.46020  0.80160  Biso   1.000  F
  F3       1.0000 0.13820  0.51370  0.24470  Biso   1.000  F
  F4       1.0000 0.86180  0.48630  0.75530  Biso   1.000  F
  F5       1.0000 0.17410  0.38020  0.21010  Biso   1.000  F
  F6       1.0000 0.82590  0.61980  0.78990  Biso   1.000  F
  F7       1.0000 0.29070  0.50740  0.19490  Biso   1.000  F
  F8       1.0000 0.70930  0.49260  0.80510  Biso   1.000  F
  F9       1.0000 0.11470  0.53050  0.24500  Biso   1.000  F
  F10      1.0000 0.88530  0.46950  0.75500  Biso   1.000  F
  F11      1.0000 0.13460  0.38180  0.22850  Biso   1.000  F
  F12      1.0000 0.86540  0.61820  0.77150  Biso   1.000  F
  C3       1.0000 0.28650  0.50750  0.36560  Biso   1.000  C
  C4       1.0000 0.71350  0.49250  0.63440  Biso   1.000  C
  C5       1.0000 0.24680  0.56220  0.44140  Biso   1.000  C
  C6       1.0000 0.75320  0.43780  0.55860  Biso   1.000  C
  H1       1.0000 0.17750  0.58410  0.42400  Biso   1.000  H
  H2       1.0000 0.82250  0.41590  0.57600  Biso   1.000  H
  C7       1.0000 0.30750  0.58530  0.54250  Biso   1.000  C
  C8       1.0000 0.69250  0.41470  0.45750  Biso   1.000  C
  C9       1.0000 0.25950  0.64920  0.62250  Biso   1.000  C
  C10      1.0000 0.74050  0.35080  0.37750  Biso   1.000  C
  F13      1.0000 0.18270  0.68980  0.58860  Biso   1.000  F
  F14      1.0000 0.81730  0.31020  0.41140  Biso   1.000  F
  F15      1.0000 0.37310  0.74770  0.67310  Biso   1.000  F
  F16      1.0000 0.62690  0.25230  0.32690  Biso   1.000  F
  F17      1.0000 0.22900  0.60000  0.69380  Biso   1.000  F
  F18      1.0000 0.77100  0.40000  0.30620  Biso   1.000  F
  F19      1.0000 0.26660  0.62310  0.70850  Biso   1.000  F
  F20      1.0000 0.73340  0.37690  0.29150  Biso   1.000  F
  F21      1.0000 0.30560  0.74490  0.62710  Biso   1.000  F
  F22      1.0000 0.69440  0.25510  0.37290  Biso   1.000  F
  F23      1.0000 0.12450  0.61380  0.59450  Biso   1.000  F
  F24      1.0000 0.87550  0.38620  0.40550  Biso   1.000  F
  O3       1.0000 0.39842  0.56162  0.58024  Biso   1.000  O
  O4       1.0000 0.60158  0.43838  0.41976  Biso   1.000  O
  Cu2      1.0000 0.00000  0.00000  0.00000  Biso   1.000  Cu
  O5       1.0000 0.96600  0.85917  0.04384  Biso   1.000  O
  O6       1.0000 0.03400  0.14083  0.95616  Biso   1.000  O
  C11      1.0000 0.96290  0.68450  0.05060  Biso   1.000  C
  C12      1.0000 0.03710  0.31550  0.94940  Biso   1.000  C
  F25      1.0000 0.84350  0.65530  0.06690  Biso   1.000  F
  F26      1.0000 0.15650  0.34470  0.93310  Biso   1.000  F
  F27      1.0000 0.97030  0.60550  0.98830  Biso   1.000  F
  F28      1.0000 0.02970  0.39450  0.01170  Biso   1.000  F
  F29      1.0000 0.03750  0.69470  0.14660  Biso   1.000  F
  F30      1.0000 0.96250  0.30530  0.85340  Biso   1.000  F
  F31      1.0000 0.99050  0.69740  0.14320  Biso   1.000  F
  F32      1.0000 0.00950  0.30260  0.85680  Biso   1.000  F
  F33      1.0000 0.83510  0.63920  0.02520  Biso   1.000  F
  F34      1.0000 0.16490  0.36080  0.97480  Biso   1.000  F
  F35      1.0000 0.00510  0.61010  0.01300  Biso   1.000  F
  F36      1.0000 0.99490  0.38990  0.98700  Biso   1.000  F
  C13      1.0000 0.01660  0.79420  0.01460  Biso   1.000  C
  C14      1.0000 0.98340  0.20580  0.98540  Biso   1.000  C
  C15      1.0000 0.11430  0.81120  0.95630  Biso   1.000  C
  C16      1.0000 0.88570  0.18880  0.04370  Biso   1.000  C
  H3       1.0000 0.14180  0.75380  0.93720  Biso   1.000  H
  H4       1.0000 0.85820  0.24620  0.06280  Biso   1.000  H
  C17      1.0000 0.17180  0.90900  0.92560  Biso   1.000  C
  C18      1.0000 0.82820  0.09100  0.07440  Biso   1.000  C
  C19      1.0000 0.28740  0.92540  0.86720  Biso   1.000  C
  C20      1.0000 0.71260  0.07460  0.13280  Biso   1.000  C
  F37      1.0000 0.27010  0.93980  0.79520  Biso   1.000  F
  F38      1.0000 0.72990  0.06020  0.20480  Biso   1.000  F
  F39      1.0000 0.38550  0.02670  0.89790  Biso   1.000  F
  F40      1.0000 0.61450  0.97330  0.10210  Biso   1.000  F
  F41      1.0000 0.34220  0.85970  0.87310  Biso   1.000  F
  F42      1.0000 0.65780  0.14030  0.12690  Biso   1.000  F
  F43      1.0000 0.29310  0.82650  0.83700  Biso   1.000  F
  F44      1.0000 0.70690  0.17350  0.16300  Biso   1.000  F
  F45      1.0000 0.25400  0.94660  0.76650  Biso   1.000  F
  F46      1.0000 0.74600  0.05340  0.23350  Biso   1.000  F
  F47      1.0000 0.39300  0.98450  0.92980  Biso   1.000  F
  F48      1.0000 0.60700  0.01550  0.07020  Biso   1.000  F
  O7       1.0000 0.14435  0.99190  0.93827  Biso   1.000  O
  O8       1.0000 0.85565  0.00810  0.06173  Biso   1.000  O
  O9       1.0000 0.59821  0.68344  0.48197  Biso   1.000  O
  O10      1.0000 0.40179  0.31656  0.51803  Biso   1.000  O
  N1       1.0000 0.72110  0.73341  0.47538  Biso   1.000  N
  N2       1.0000 0.27890  0.26659  0.52462  Biso   1.000  N
  C21      1.0000 0.76230  0.74930  0.37500  Biso   1.000  C
  C22      1.0000 0.23770  0.25070  0.62500  Biso   1.000  C
  C23      1.0000 0.69110  0.64300  0.29440  Biso   1.000  C
  C24      1.0000 0.30890  0.35700  0.70560  Biso   1.000  C
  H5       1.0000 0.59760  0.62730  0.27950  Biso   1.000  H
  H6       1.0000 0.40240  0.37270  0.72050  Biso   1.000  H
  H7       1.0000 0.70290  0.58230  0.31970  Biso   1.000  H
  H8       1.0000 0.29710  0.41770  0.68030  Biso   1.000  H
  H9       1.0000 0.72710  0.65160  0.23250  Biso   1.000  H
  H10      1.0000 0.27290  0.34840  0.76750  Biso   1.000  H
  C25      1.0000 0.72500  0.84110  0.34490  Biso   1.000  C
  C26      1.0000 0.27500  0.15890  0.65510  Biso   1.000  C
  H11      1.0000 0.62970  0.81370  0.32600  Biso   1.000  H
  H12      1.0000 0.37030  0.18630  0.67400  Biso   1.000  H
  H13      1.0000 0.76460  0.86430  0.28730  Biso   1.000  H
  H14      1.0000 0.23540  0.13570  0.71270  Biso   1.000  H
  H15      1.0000 0.75700  0.90380  0.40240  Biso   1.000  H
  H16      1.0000 0.24300  0.09620  0.59760  Biso   1.000  H
  C27      1.0000 0.91420  0.78540  0.40700  Biso   1.000  C
  C28      1.0000 0.08580  0.21460  0.59300  Biso   1.000  C
  C29      1.0000 0.95570  0.68850  0.40000  Biso   1.000  C
  C30      1.0000 0.04430  0.31150  0.60000  Biso   1.000  C
  H17      1.0000 0.05090  0.71640  0.42070  Biso   1.000  H
  H18      1.0000 0.94910  0.28360  0.57930  Biso   1.000  H
  H19      1.0000 0.92920  0.64640  0.33010  Biso   1.000  H
  H20      1.0000 0.07080  0.35360  0.66990  Biso   1.000  H
  H21      1.0000 0.91350  0.64100  0.44490  Biso   1.000  H
  H22      1.0000 0.08650  0.35900  0.55510  Biso   1.000  H
  C31      1.0000 0.99790  0.87380  0.35640  Biso   1.000  C
  C32      1.0000 0.00210  0.12620  0.64360  Biso   1.000  C
  H23      1.0000 0.09050  0.89120  0.38030  Biso   1.000  H
  H24      1.0000 0.90950  0.10880  0.61970  Biso   1.000  H
  H25      1.0000 0.98120  0.94000  0.37360  Biso   1.000  H
  H26      1.0000 0.01880  0.06000  0.62640  Biso   1.000  H
  H27      1.0000 0.97570  0.84710  0.28270  Biso   1.000  H
  H28      1.0000 0.02430  0.15290  0.71730  Biso   1.000  H
  N3       1.0000 0.93270  0.83144  0.51846  Biso   1.000  N
  N4       1.0000 0.06730  0.16856  0.48154  Biso   1.000  N
  O11      1.0000 0.04690  0.88836  0.57318  Biso   1.000  O
  O12      1.0000 0.95310  0.11164  0.42682  Biso   1.000  O
  C33      1.0000 0.81910  0.79360  0.55440  Biso   1.000  C
  C34      1.0000 0.18090  0.20640  0.44560  Biso   1.000  C
  C35      1.0000 0.80770  0.81610  0.65980  Biso   1.000  C
  C36      1.0000 0.19230  0.18390  0.34020  Biso   1.000  C
  C37      1.0000 0.90500  0.88050  0.74470  Biso   1.000  C
  C38      1.0000 0.09500  0.11950  0.25530  Biso   1.000  C
  H29      1.0000 0.99490  0.91630  0.74200  Biso   1.000  H
  H30      1.0000 0.00510  0.08370  0.25800  Biso   1.000  H
  N5       1.0000 0.72610  0.82140  0.79965  Biso   1.000  N
  N6       1.0000 0.27390  0.17860  0.20035  Biso   1.000  N
  N7       1.0000 0.85750  0.88580  0.82938  Biso   1.000  N
  N8       1.0000 0.14250  0.11420  0.17062  Biso   1.000  N
  C39      1.0000 0.63980  0.80470  0.87450  Biso   1.000  C
  C40      1.0000 0.36020  0.19530  0.12550  Biso   1.000  C
  H31      1.0000 0.56140  0.81600  0.84720  Biso   1.000  H
  H32      1.0000 0.43860  0.18400  0.15280  Biso   1.000  H
  H33      1.0000 0.68610  0.86210  0.93670  Biso   1.000  H
  H34      1.0000 0.31390  0.13790  0.06330  Biso   1.000  H
  C41      1.0000 0.59400  0.69240  0.90470  Biso   1.000  C
  C42      1.0000 0.40600  0.30760  0.09530  Biso   1.000  C
  H35      1.0000 0.66980  0.67980  0.93580  Biso   1.000  H
  H36      1.0000 0.33020  0.32020  0.06420  Biso   1.000  H
  H37      1.0000 0.54510  0.63270  0.84460  Biso   1.000  H
  H38      1.0000 0.45490  0.36730  0.15540  Biso   1.000  H
  C43      1.0000 0.50510  0.69630  0.98140  Biso   1.000  C
  C44      1.0000 0.49490  0.30370  0.01860  Biso   1.000  C
  H39      1.0000 0.55480  0.70840  0.05040  Biso   1.000  H
  H40      1.0000 0.44520  0.29160  0.94960  Biso   1.000  H
  H41      1.0000 0.48220  0.76000  0.97830  Biso   1.000  H
  H42      1.0000 0.51780  0.24000  0.02170  Biso   1.000  H
  C45      1.0000 0.38240  0.59600  0.96500  Biso   1.000  C
  C46      1.0000 0.61760  0.40400  0.03500  Biso   1.000  C
  H43      1.0000 0.34620  0.59380  0.02710  Biso   1.000  H
  H44      1.0000 0.65380  0.40620  0.97290  Biso   1.000  H
  H45      1.0000 0.40120  0.53100  0.94730  Biso   1.000  H
  H46      1.0000 0.59880  0.46900  0.05270  Biso   1.000  H
  H47      1.0000 0.31890  0.59710  0.90960  Biso   1.000  H
  H48      1.0000 0.68110  0.40290  0.09040  Biso   1.000  H
  C47      1.0000 0.56490  0.69250  0.87070  Biso   1.000  C
  C48      1.0000 0.43510  0.30750  0.12930  Biso   1.000  C
  H49      1.0000 0.62690  0.65870  0.88780  Biso   1.000  H
  H50      1.0000 0.37310  0.34130  0.11220  Biso   1.000  H
  H51      1.0000 0.52030  0.65820  0.79950  Biso   1.000  H
  H52      1.0000 0.47970  0.34180  0.20050  Biso   1.000  H
  C49      1.0000 0.45760  0.65800  0.93920  Biso   1.000  C
  C50      1.0000 0.54240  0.34200  0.06080  Biso   1.000  C
  H53      1.0000 0.40320  0.70070  0.93390  Biso   1.000  H
  H54      1.0000 0.59680  0.29930  0.06610  Biso   1.000  H
  H55      1.0000 0.39990  0.57910  0.91610  Biso   1.000  H
  H56      1.0000 0.60010  0.42090  0.08390  Biso   1.000  H
  C51      1.0000 0.52490  0.67990  0.04610  Biso   1.000  C
  C52      1.0000 0.47510  0.32010  0.95390  Biso   1.000  C
  H57      1.0000 0.46370  0.68060  0.09150  Biso   1.000  H
  H58      1.0000 0.53630  0.31940  0.90850  Biso   1.000  H
  H59      1.0000 0.59960  0.75120  0.06210  Biso   1.000  H
  H60      1.0000 0.40040  0.24880  0.93790  Biso   1.000  H
  H61      1.0000 0.55570  0.62230  0.05520  Biso   1.000  H
  H62      1.0000 0.44430  0.37770  0.94480  Biso   1.000  H
  C53      1.0000 0.69320  0.77990  0.69990  Biso   1.000  C
  C54      1.0000 0.30680  0.22010  0.30010  Biso   1.000  C
  H63      1.0000 0.60770  0.73420  0.66290  Biso   1.000  H
  H64      1.0000 0.39230  0.26580  0.33710  Biso   1.000  H
  C55      1.0000 0.66550  0.09330  0.77500  Biso   1.000  C
  C56      1.0000 0.33450  0.90670  0.22500  Biso   1.000  C
  H65      1.0000 0.67110  0.13030  0.84410  Biso   1.000  H
  H66      1.0000 0.32890  0.86970  0.15590  Biso   1.000  H
  H67      1.0000 0.75050  0.09210  0.76760  Biso   1.000  H
  H68      1.0000 0.24950  0.90790  0.23240  Biso   1.000  H
  H69      1.0000 0.59920  0.01790  0.76160  Biso   1.000  H
  H70      1.0000 0.40080  0.98210  0.23840  Biso   1.000  H
  C57      1.0000 0.63230  0.14780  0.70800  Biso   1.000  C
  C58      1.0000 0.36770  0.85220  0.29200  Biso   1.000  C
  H71      1.0000 0.70960  0.20820  0.69640  Biso   1.000  H
  H72      1.0000 0.29040  0.79180  0.30360  Biso   1.000  H
  H73      1.0000 0.56850  0.17680  0.72970  Biso   1.000  H
  H74      1.0000 0.43150  0.82320  0.27030  Biso   1.000  H
  C59      1.0000 0.57250  0.05540  0.61900  Biso   1.000  C
  C60      1.0000 0.42750  0.94460  0.38100  Biso   1.000  C
  H75      1.0000 0.65380  0.07600  0.59080  Biso   1.000  H
  H76      1.0000 0.34620  0.92400  0.40920  Biso   1.000  H
  H77      1.0000 0.57800  0.00050  0.65810  Biso   1.000  H
  H78      1.0000 0.42200  0.99950  0.34190  Biso   1.000  H
  C61      1.0000 0.50500  0.98390  0.54100  Biso   1.000  C
  C62      1.0000 0.49500  0.01610  0.45900  Biso   1.000  C
  H79      1.0000 0.54390  0.92900  0.53090  Biso   1.000  H
  H80      1.0000 0.45610  0.07100  0.46910  Biso   1.000  H
  H81      1.0000 0.41650  0.94580  0.55420  Biso   1.000  H
  H82      1.0000 0.58350  0.05420  0.44580  Biso   1.000  H
