data_image0
_cell_length_a       11.328
_cell_length_b       13.42
_cell_length_c       13.55
_cell_angle_alpha    98.366
_cell_angle_beta     96.956
_cell_angle_gamma    112.218

_symmetry_space_group_name_H-M    "P 1"
_symmetry_int_tables_number       1

loop_
  _symmetry_equiv_pos_as_xyz
  'x, y, z'

loop_
  _atom_site_label
  _atom_site_occupancy
  _atom_site_fract_x
  _atom_site_fract_y
  _atom_site_fract_z
  _atom_site_thermal_displace_type
  _atom_site_B_iso_or_equiv
  _atom_site_type_symbol
  Cu1      1.0000 0.50000  0.50000  0.50000  Biso   1.000  Cu
  O1       1.0000 0.37870  0.47510  0.37380  Biso   1.000  O
  O2       1.0000 0.62130  0.52490  0.62620  Biso   1.000  O
  C1       1.0000 0.21600  0.48380  0.25860  Biso   1.000  C
  C2       1.0000 0.78400  0.51620  0.74140  Biso   1.000  C
  F1       1.0000 0.29630  0.52580  0.19800  Biso   1.000  F
  F2       1.0000 0.70370  0.47420  0.80200  Biso   1.000  F
  F3       1.0000 0.13390  0.52520  0.24370  Biso   1.000  F
  F4       1.0000 0.86610  0.47480  0.75630  Biso   1.000  F
  F5       1.0000 0.16980  0.38570  0.21550  Biso   1.000  F
  F6       1.0000 0.83020  0.61430  0.78450  Biso   1.000  F
  C3       1.0000 0.29050  0.50900  0.36550  Biso   1.000  C
  C4       1.0000 0.70950  0.49100  0.63450  Biso   1.000  C
  C5       1.0000 0.25280  0.56430  0.44130  Biso   1.000  C
  C6       1.0000 0.74720  0.43570  0.55870  Biso   1.000  C
  H1       1.0000 0.18570  0.58630  0.42410  Biso   1.000  H
  H2       1.0000 0.81430  0.41370  0.57590  Biso   1.000  H
  C7       1.0000 0.31210  0.58740  0.54120  Biso   1.000  C
  C8       1.0000 0.68790  0.41260  0.45880  Biso   1.000  C
  C9       1.0000 0.26490  0.65000  0.62180  Biso   1.000  C
  C10      1.0000 0.73510  0.35000  0.37820  Biso   1.000  C
  F7       1.0000 0.19490  0.69680  0.58330  Biso   1.000  F
  F8       1.0000 0.80510  0.30320  0.41670  Biso   1.000  F
  F9       1.0000 0.37140  0.74660  0.67710  Biso   1.000  F
  F10      1.0000 0.62860  0.25340  0.32290  Biso   1.000  F
  F11      1.0000 0.22550  0.59800  0.68610  Biso   1.000  F
  F12      1.0000 0.77450  0.40200  0.31390  Biso   1.000  F
  F13      1.0000 0.27620  0.62930  0.70830  Biso   1.000  F
  F14      1.0000 0.72380  0.37070  0.29170  Biso   1.000  F
  F15      1.0000 0.30900  0.74370  0.62300  Biso   1.000  F
  F16      1.0000 0.69100  0.25630  0.37700  Biso   1.000  F
  F17      1.0000 0.13650  0.61700  0.59570  Biso   1.000  F
  F18      1.0000 0.86350  0.38300  0.40430  Biso   1.000  F
  O3       1.0000 0.40030  0.56260  0.57930  Biso   1.000  O
  O4       1.0000 0.59970  0.43740  0.42070  Biso   1.000  O
  Cu2      1.0000 0.00000  0.00000  0.00000  Biso   1.000  Cu
  O5       1.0000 0.03400  0.13970  0.95530  Biso   1.000  O
  O6       1.0000 0.96600  0.86030  0.04470  Biso   1.000  O
  C11      1.0000 0.03630  0.31300  0.94630  Biso   1.000  C
  C12      1.0000 0.96370  0.68700  0.05370  Biso   1.000  C
  F19      1.0000 0.15860  0.34370  0.93170  Biso   1.000  F
  F20      1.0000 0.84140  0.65630  0.06830  Biso   1.000  F
  F21      1.0000 0.03390  0.39490  0.00670  Biso   1.000  F
  F22      1.0000 0.96610  0.60510  0.99330  Biso   1.000  F
  F23      1.0000 0.97600  0.30560  0.86230  Biso   1.000  F
  F24      1.0000 0.02400  0.69440  0.13770  Biso   1.000  F
  F25      1.0000 0.00100  0.29800  0.84710  Biso   1.000  F
  F26      1.0000 0.99900  0.70200  0.15290  Biso   1.000  F
  F27      1.0000 0.15170  0.36030  0.97960  Biso   1.000  F
  F28      1.0000 0.84830  0.63970  0.02040  Biso   1.000  F
  F29      1.0000 0.97160  0.37730  0.97590  Biso   1.000  F
  F30      1.0000 0.02840  0.62270  0.02410  Biso   1.000  F
  C13      1.0000 0.98500  0.20520  0.98450  Biso   1.000  C
  C14      1.0000 0.01500  0.79480  0.01550  Biso   1.000  C
  C15      1.0000 0.88960  0.18960  0.04330  Biso   1.000  C
  C16      1.0000 0.11040  0.81040  0.95670  Biso   1.000  C
  H3       1.0000 0.86380  0.24650  0.06210  Biso   1.000  H
  H4       1.0000 0.13620  0.75350  0.93790  Biso   1.000  H
  C17      1.0000 0.83250  0.09220  0.07440  Biso   1.000  C
  C18      1.0000 0.16750  0.90780  0.92560  Biso   1.000  C
  C19      1.0000 0.72000  0.07850  0.13270  Biso   1.000  C
  C20      1.0000 0.28000  0.92150  0.86730  Biso   1.000  C
  F31      1.0000 0.74770  0.07810  0.22790  Biso   1.000  F
  F32      1.0000 0.25230  0.92190  0.77210  Biso   1.000  F
  F33      1.0000 0.62220  0.98030  0.09810  Biso   1.000  F
  F34      1.0000 0.37780  0.01970  0.90190  Biso   1.000  F
  F35      1.0000 0.67130  0.14960  0.13430  Biso   1.000  F
  F36      1.0000 0.32870  0.85040  0.86570  Biso   1.000  F
  F37      1.0000 0.73470  0.17480  0.17910  Biso   1.000  F
  F38      1.0000 0.26530  0.82520  0.82090  Biso   1.000  F
  F39      1.0000 0.72830  0.02430  0.19990  Biso   1.000  F
  F40      1.0000 0.27170  0.97570  0.80010  Biso   1.000  F
  F41      1.0000 0.61620  0.03800  0.07170  Biso   1.000  F
  F42      1.0000 0.38380  0.96200  0.92830  Biso   1.000  F
  O7       1.0000 0.85840  0.00900  0.06210  Biso   1.000  O
  O8       1.0000 0.14160  0.99100  0.93790  Biso   1.000  O
  O9       1.0000 0.60070  0.68410  0.48350  Biso   1.000  O
  O10      1.0000 0.39930  0.31590  0.51650  Biso   1.000  O
  N1       1.0000 0.72200  0.73340  0.47700  Biso   1.000  N
  N2       1.0000 0.27800  0.26660  0.52300  Biso   1.000  N
  C21      1.0000 0.76320  0.74810  0.37820  Biso   1.000  C
  C22      1.0000 0.23680  0.25190  0.62180  Biso   1.000  C
  C23      1.0000 0.69250  0.64350  0.29720  Biso   1.000  C
  C24      1.0000 0.30750  0.35650  0.70280  Biso   1.000  C
  H5       1.0000 0.60180  0.62900  0.28230  Biso   1.000  H
  H6       1.0000 0.39820  0.37100  0.71770  Biso   1.000  H
  H7       1.0000 0.70290  0.58300  0.32140  Biso   1.000  H
  H8       1.0000 0.29710  0.41700  0.67860  Biso   1.000  H
  H9       1.0000 0.72800  0.65240  0.23660  Biso   1.000  H
  H10      1.0000 0.27200  0.34760  0.76340  Biso   1.000  H
  C25      1.0000 0.72830  0.84080  0.34760  Biso   1.000  C
  C26      1.0000 0.27170  0.15920  0.65240  Biso   1.000  C
  H11      1.0000 0.63570  0.81460  0.32780  Biso   1.000  H
  H12      1.0000 0.36430  0.18540  0.67220  Biso   1.000  H
  H13      1.0000 0.76850  0.86370  0.29170  Biso   1.000  H
  H14      1.0000 0.23150  0.13630  0.70830  Biso   1.000  H
  H15      1.0000 0.75890  0.90200  0.40430  Biso   1.000  H
  H16      1.0000 0.24110  0.09800  0.59570  Biso   1.000  H
  C27      1.0000 0.91290  0.78430  0.40940  Biso   1.000  C
  C28      1.0000 0.08710  0.21570  0.59060  Biso   1.000  C
  C29      1.0000 0.95410  0.68910  0.40410  Biso   1.000  C
  C30      1.0000 0.04590  0.31090  0.59590  Biso   1.000  C
  H17      1.0000 0.04670  0.71680  0.42540  Biso   1.000  H
  H18      1.0000 0.95330  0.28320  0.57460  Biso   1.000  H
  H19      1.0000 0.92940  0.64750  0.33550  Biso   1.000  H
  H20      1.0000 0.07060  0.35250  0.66450  Biso   1.000  H
  H21      1.0000 0.91240  0.64250  0.44800  Biso   1.000  H
  H22      1.0000 0.08760  0.35750  0.55200  Biso   1.000  H
  C31      1.0000 0.99690  0.87160  0.35940  Biso   1.000  C
  C32      1.0000 0.00310  0.12840  0.64060  Biso   1.000  C
  H23      1.0000 0.08680  0.88860  0.38430  Biso   1.000  H
  H24      1.0000 0.91320  0.11140  0.61570  Biso   1.000  H
  H25      1.0000 0.98060  0.93680  0.37510  Biso   1.000  H
  H26      1.0000 0.01940  0.06320  0.62490  Biso   1.000  H
  H27      1.0000 0.97670  0.84500  0.28710  Biso   1.000  H
  H28      1.0000 0.02330  0.15500  0.71290  Biso   1.000  H
  N3       1.0000 0.93180  0.83140  0.52050  Biso   1.000  N
  N4       1.0000 0.06820  0.16860  0.47950  Biso   1.000  N
  O11      1.0000 0.04340  0.88730  0.57510  Biso   1.000  O
  O12      1.0000 0.95660  0.11270  0.42490  Biso   1.000  O
  C33      1.0000 0.81970  0.79370  0.55610  Biso   1.000  C
  C34      1.0000 0.18030  0.20630  0.44390  Biso   1.000  C
  C35      1.0000 0.80710  0.81630  0.66130  Biso   1.000  C
  C36      1.0000 0.19290  0.18370  0.33870  Biso   1.000  C
  C37      1.0000 0.90430  0.88210  0.74560  Biso   1.000  C
  C38      1.0000 0.09570  0.11790  0.25440  Biso   1.000  C
  H29      1.0000 0.99170  0.91750  0.74300  Biso   1.000  H
  H30      1.0000 0.00830  0.08250  0.25700  Biso   1.000  H
  N5       1.0000 0.72730  0.82400  0.80020  Biso   1.000  N
  N6       1.0000 0.27270  0.17600  0.19980  Biso   1.000  N
  N7       1.0000 0.85600  0.88730  0.82970  Biso   1.000  N
  N8       1.0000 0.14400  0.11270  0.17030  Biso   1.000  N
  C39      1.0000 0.64160  0.80790  0.87440  Biso   1.000  C
  C40      1.0000 0.35840  0.19210  0.12560  Biso   1.000  C
  H31      1.0000 0.69240  0.85190  0.94030  Biso   1.000  H
  H32      1.0000 0.30760  0.14810  0.05970  Biso   1.000  H
  H33      1.0000 0.57620  0.83540  0.85520  Biso   1.000  H
  H34      1.0000 0.42380  0.16460  0.14480  Biso   1.000  H
  C41      1.0000 0.57760  0.69690  0.88440  Biso   1.000  C
  C42      1.0000 0.42240  0.30310  0.11560  Biso   1.000  C
  H35      1.0000 0.64250  0.66950  0.90540  Biso   1.000  H
  H36      1.0000 0.35750  0.33050  0.09460  Biso   1.000  H
  H37      1.0000 0.52750  0.65230  0.81860  Biso   1.000  H
  H38      1.0000 0.47250  0.34770  0.18140  Biso   1.000  H
  C43      1.0000 0.48540  0.68350  0.96260  Biso   1.000  C
  C44      1.0000 0.51460  0.31650  0.03740  Biso   1.000  C
  C45      1.0000 0.40300  0.60200  0.96700  Biso   1.000  C
  C46      1.0000 0.59700  0.39800  0.03300  Biso   1.000  C
  C47      1.0000 0.52400  0.69400  0.04210  Biso   1.000  C
  C48      1.0000 0.47600  0.30600  0.95790  Biso   1.000  C
  C49      1.0000 0.69490  0.77990  0.70120  Biso   1.000  C
  C50      1.0000 0.30510  0.22010  0.29880  Biso   1.000  C
  H39      1.0000 0.61210  0.73330  0.66530  Biso   1.000  H
  H40      1.0000 0.38790  0.26670  0.33470  Biso   1.000  H
  C51      1.0000 0.64000  0.08400  0.77130  Biso   1.000  C
  C52      1.0000 0.36000  0.91600  0.22870  Biso   1.000  C
  H41      1.0000 0.65880  0.12690  0.83860  Biso   1.000  H
  H42      1.0000 0.34120  0.87310  0.16140  Biso   1.000  H
  H43      1.0000 0.70330  0.05230  0.76530  Biso   1.000  H
  H44      1.0000 0.29670  0.94770  0.23470  Biso   1.000  H
  H45      1.0000 0.55500  0.02560  0.75870  Biso   1.000  H
  H46      1.0000 0.44500  0.97440  0.24130  Biso   1.000  H
  C53      1.0000 0.64600  0.15520  0.69500  Biso   1.000  C
  C54      1.0000 0.35400  0.84480  0.30500  Biso   1.000  C
  H47      1.0000 0.73380  0.20180  0.68940  Biso   1.000  H
  H48      1.0000 0.26620  0.79820  0.31060  Biso   1.000  H
  H49      1.0000 0.59230  0.19630  0.70130  Biso   1.000  H
  H50      1.0000 0.40770  0.80370  0.29870  Biso   1.000  H
  C55      1.0000 0.58500  0.04800  0.61750  Biso   1.000  C
  C56      1.0000 0.41500  0.95200  0.38250  Biso   1.000  C
  H51      1.0000 0.65590  0.05960  0.58110  Biso   1.000  H
  H52      1.0000 0.34410  0.94040  0.41890  Biso   1.000  H
  H53      1.0000 0.59500  0.00040  0.66190  Biso   1.000  H
  H54      1.0000 0.40500  0.99960  0.33810  Biso   1.000  H
  C57      1.0000 0.47900  0.96100  0.53540  Biso   1.000  C
  C58      1.0000 0.52100  0.03900  0.46460  Biso   1.000  C
  H55      1.0000 0.49140  0.89360  0.51780  Biso   1.000  H
  H56      1.0000 0.50860  0.10640  0.48220  Biso   1.000  H
  H57      1.0000 0.39130  0.94590  0.54740  Biso   1.000  H
  H58      1.0000 0.60870  0.05410  0.45260  Biso   1.000  H
