data_image0
_cell_length_a       10.9007
_cell_length_b       13.296
_cell_length_c       13.41
_cell_angle_alpha    99.156
_cell_angle_beta     95.855
_cell_angle_gamma    113.21

_symmetry_space_group_name_H-M    "P 1"
_symmetry_int_tables_number       1

loop_
  _symmetry_equiv_pos_as_xyz
  'x, y, z'

loop_
  _atom_site_label
  _atom_site_occupancy
  _atom_site_fract_x
  _atom_site_fract_y
  _atom_site_fract_z
  _atom_site_thermal_displace_type
  _atom_site_B_iso_or_equiv
  _atom_site_type_symbol
  Cu1      1.0000 0.50000  0.50000  0.50000  Biso   1.000  Cu
  O1       1.0000 0.36667  0.47116  0.37484  Biso   1.000  O
  O2       1.0000 0.63333  0.52884  0.62516  Biso   1.000  O
  C1       1.0000 0.20440  0.48480  0.25840  Biso   1.000  C
  C2       1.0000 0.79560  0.51520  0.74160  Biso   1.000  C
  F1       1.0000 0.29220  0.52620  0.20270  Biso   1.000  F
  F2       1.0000 0.70780  0.47380  0.79730  Biso   1.000  F
  F3       1.0000 0.11500  0.52550  0.24930  Biso   1.000  F
  F4       1.0000 0.88500  0.47450  0.75070  Biso   1.000  F
  F5       1.0000 0.15120  0.37260  0.21020  Biso   1.000  F
  F6       1.0000 0.84880  0.62740  0.78980  Biso   1.000  F
  F7       1.0000 0.29060  0.54690  0.19860  Biso   1.000  F
  F8       1.0000 0.70940  0.45310  0.80140  Biso   1.000  F
  F9       1.0000 0.09900  0.51490  0.24940  Biso   1.000  F
  F10      1.0000 0.90100  0.48510  0.75060  Biso   1.000  F
  F11      1.0000 0.15030  0.38330  0.22080  Biso   1.000  F
  F12      1.0000 0.84970  0.61670  0.77920  Biso   1.000  F
  C3       1.0000 0.27650  0.50650  0.36740  Biso   1.000  C
  C4       1.0000 0.72350  0.49350  0.63260  Biso   1.000  C
  C5       1.0000 0.23630  0.56190  0.44560  Biso   1.000  C
  C6       1.0000 0.76370  0.43810  0.55440  Biso   1.000  C
  H1       1.0000 0.18600  0.58500  0.43500  Biso   1.000  H
  H2       1.0000 0.81400  0.41500  0.56500  Biso   1.000  H
  C7       1.0000 0.29640  0.58570  0.54780  Biso   1.000  C
  C8       1.0000 0.70360  0.41430  0.45220  Biso   1.000  C
  C9       1.0000 0.25050  0.65190  0.62710  Biso   1.000  C
  C10      1.0000 0.74950  0.34810  0.37290  Biso   1.000  C
  F13      1.0000 0.16320  0.68500  0.59410  Biso   1.000  F
  F14      1.0000 0.83680  0.31500  0.40590  Biso   1.000  F
  F15      1.0000 0.36420  0.75280  0.67320  Biso   1.000  F
  F16      1.0000 0.63580  0.24720  0.32680  Biso   1.000  F
  F17      1.0000 0.22320  0.60530  0.70310  Biso   1.000  F
  F18      1.0000 0.77680  0.39470  0.29690  Biso   1.000  F
  F19      1.0000 0.24300  0.61970  0.71440  Biso   1.000  F
  F20      1.0000 0.75700  0.38030  0.28560  Biso   1.000  F
  F21      1.0000 0.30850  0.75350  0.63530  Biso   1.000  F
  F22      1.0000 0.69150  0.24650  0.36470  Biso   1.000  F
  F23      1.0000 0.11300  0.62610  0.59500  Biso   1.000  F
  F24      1.0000 0.88700  0.37390  0.40500  Biso   1.000  F
  O3       1.0000 0.38700  0.56049  0.58520  Biso   1.000  O
  O4       1.0000 0.61300  0.43951  0.41480  Biso   1.000  O
  Cu2      1.0000 0.00000  0.00000  0.00000  Biso   1.000  Cu
  O5       1.0000 0.03110  0.14162  0.95631  Biso   1.000  O
  O6       1.0000 0.96890  0.85838  0.04369  Biso   1.000  O
  C11      1.0000 0.02890  0.31640  0.95400  Biso   1.000  C
  C12      1.0000 0.97110  0.68360  0.04600  Biso   1.000  C
  F25      1.0000 0.15670  0.35050  0.94470  Biso   1.000  F
  F26      1.0000 0.84330  0.64950  0.05530  Biso   1.000  F
  F27      1.0000 0.01500  0.39630  0.01550  Biso   1.000  F
  F28      1.0000 0.98500  0.60370  0.98450  Biso   1.000  F
  F29      1.0000 0.97200  0.30670  0.86050  Biso   1.000  F
  F30      1.0000 0.02800  0.69330  0.13950  Biso   1.000  F
  F31      1.0000 0.98500  0.29930  0.85580  Biso   1.000  F
  F32      1.0000 0.01500  0.70070  0.14420  Biso   1.000  F
  F33      1.0000 0.16400  0.36690  0.97790  Biso   1.000  F
  F34      1.0000 0.83600  0.63310  0.02210  Biso   1.000  F
  F35      1.0000 0.98800  0.38950  0.99770  Biso   1.000  F
  F36      1.0000 0.01200  0.61050  0.00230  Biso   1.000  F
  C13      1.0000 0.97650  0.20540  0.98770  Biso   1.000  C
  C14      1.0000 0.02350  0.79460  0.01230  Biso   1.000  C
  C15      1.0000 0.87260  0.18330  0.04590  Biso   1.000  C
  C16      1.0000 0.12740  0.81670  0.95410  Biso   1.000  C
  H3       1.0000 0.83900  0.23500  0.06600  Biso   1.000  H
  H4       1.0000 0.16100  0.76500  0.93400  Biso   1.000  H
  C17      1.0000 0.81450  0.08240  0.07440  Biso   1.000  C
  C18      1.0000 0.18550  0.91760  0.92560  Biso   1.000  C
  C19      1.0000 0.69390  0.06030  0.13030  Biso   1.000  C
  C20      1.0000 0.30610  0.93970  0.86970  Biso   1.000  C
  F37      1.0000 0.73200  0.06300  0.23100  Biso   1.000  F
  F38      1.0000 0.26800  0.93700  0.76900  Biso   1.000  F
  F39      1.0000 0.59390  0.96040  0.09000  Biso   1.000  F
  F40      1.0000 0.40610  0.03960  0.91000  Biso   1.000  F
  F41      1.0000 0.63920  0.13770  0.13830  Biso   1.000  F
  F42      1.0000 0.36080  0.86230  0.86170  Biso   1.000  F
  F43      1.0000 0.66400  0.14380  0.13380  Biso   1.000  F
  F44      1.0000 0.33600  0.85620  0.86620  Biso   1.000  F
  F45      1.0000 0.72100  0.04100  0.21900  Biso   1.000  F
  F46      1.0000 0.27900  0.95900  0.78100  Biso   1.000  F
  F47      1.0000 0.58800  0.97390  0.07660  Biso   1.000  F
  F48      1.0000 0.41200  0.02610  0.92340  Biso   1.000  F
  O7       1.0000 0.84721  0.00123  0.06079  Biso   1.000  O
  O8       1.0000 0.15279  0.99877  0.93921  Biso   1.000  O
  O9       1.0000 0.59060  0.67444  0.48313  Biso   1.000  O
  O10      1.0000 0.40940  0.32556  0.51687  Biso   1.000  O
  N1       1.0000 0.71700  0.72680  0.47477  Biso   1.000  N
  N2       1.0000 0.28300  0.27320  0.52523  Biso   1.000  N
  C21      1.0000 0.75730  0.74490  0.37280  Biso   1.000  C
  C22      1.0000 0.24270  0.25510  0.62720  Biso   1.000  C
  C23      1.0000 0.68360  0.63750  0.29020  Biso   1.000  C
  C24      1.0000 0.31640  0.36250  0.70980  Biso   1.000  C
  H5       1.0000 0.58200  0.61300  0.28300  Biso   1.000  H
  H6       1.0000 0.41800  0.38700  0.71700  Biso   1.000  H
  H7       1.0000 0.70700  0.57900  0.30700  Biso   1.000  H
  H8       1.0000 0.29300  0.42100  0.69300  Biso   1.000  H
  H9       1.0000 0.70800  0.64600  0.23100  Biso   1.000  H
  H10      1.0000 0.29200  0.35400  0.76900  Biso   1.000  H
  C25      1.0000 0.71620  0.83670  0.34770  Biso   1.000  C
  C26      1.0000 0.28380  0.16330  0.65230  Biso   1.000  C
  H11      1.0000 0.62300  0.81100  0.34100  Biso   1.000  H
  H12      1.0000 0.37700  0.18900  0.65900  Biso   1.000  H
  H13      1.0000 0.74400  0.85400  0.28400  Biso   1.000  H
  H14      1.0000 0.25600  0.14600  0.71600  Biso   1.000  H
  H15      1.0000 0.77100  0.91700  0.39400  Biso   1.000  H
  H16      1.0000 0.22900  0.08300  0.60600  Biso   1.000  H
  C27      1.0000 0.91330  0.78390  0.40200  Biso   1.000  C
  C28      1.0000 0.08670  0.21610  0.59800  Biso   1.000  C
  C29      1.0000 0.95820  0.68890  0.39230  Biso   1.000  C
  C30      1.0000 0.04180  0.31110  0.60770  Biso   1.000  C
  H17      1.0000 0.05300  0.72100  0.41600  Biso   1.000  H
  H18      1.0000 0.94700  0.27900  0.58400  Biso   1.000  H
  H19      1.0000 0.95100  0.65900  0.32100  Biso   1.000  H
  H20      1.0000 0.04900  0.34100  0.67900  Biso   1.000  H
  H21      1.0000 0.90300  0.62800  0.42300  Biso   1.000  H
  H22      1.0000 0.09700  0.37200  0.57700  Biso   1.000  H
  C31      1.0000 0.99720  0.87460  0.35050  Biso   1.000  C
  C32      1.0000 0.00280  0.12540  0.64950  Biso   1.000  C
  H23      1.0000 0.09500  0.89000  0.37300  Biso   1.000  H
  H24      1.0000 0.90500  0.11000  0.62700  Biso   1.000  H
  H25      1.0000 0.97800  0.92700  0.36100  Biso   1.000  H
  H26      1.0000 0.02200  0.07300  0.63900  Biso   1.000  H
  H27      1.0000 0.97600  0.84800  0.27800  Biso   1.000  H
  H28      1.0000 0.02400  0.15200  0.72200  Biso   1.000  H
  N3       1.0000 0.93350  0.83060  0.51482  Biso   1.000  N
  N4       1.0000 0.06650  0.16940  0.48518  Biso   1.000  N
  O11      1.0000 0.05170  0.89149  0.56842  Biso   1.000  O
  O12      1.0000 0.94830  0.10851  0.43158  Biso   1.000  O
  C33      1.0000 0.81740  0.78910  0.55260  Biso   1.000  C
  C34      1.0000 0.18260  0.21090  0.44740  Biso   1.000  C
  C35      1.0000 0.80780  0.81130  0.65950  Biso   1.000  C
  C36      1.0000 0.19220  0.18870  0.34050  Biso   1.000  C
  C37      1.0000 0.90960  0.87750  0.74430  Biso   1.000  C
  C38      1.0000 0.09040  0.12250  0.25570  Biso   1.000  C
  H29      1.0000 0.99900  0.91800  0.74100  Biso   1.000  H
  H30      1.0000 0.00100  0.08200  0.25900  Biso   1.000  H
  N5       1.0000 0.72500  0.81288  0.80217  Biso   1.000  N
  N6       1.0000 0.27500  0.18712  0.19783  Biso   1.000  N
  N7       1.0000 0.85970  0.87929  0.83097  Biso   1.000  N
  N8       1.0000 0.14030  0.12071  0.16903  Biso   1.000  N
  C39      1.0000 0.63570  0.79000  0.87810  Biso   1.000  C
  C40      1.0000 0.36430  0.21000  0.12190  Biso   1.000  C
  H31      1.0000 0.58900  0.82900  0.87400  Biso   1.000  H
  H32      1.0000 0.41100  0.17100  0.12600  Biso   1.000  H
  H33      1.0000 0.69300  0.82800  0.93600  Biso   1.000  H
  H34      1.0000 0.30700  0.17200  0.06400  Biso   1.000  H
  C41      1.0000 0.55910  0.66980  0.87340  Biso   1.000  C
  C42      1.0000 0.44090  0.33020  0.12660  Biso   1.000  C
  H35      1.0000 0.62280  0.63770  0.89500  Biso   1.000  H
  H36      1.0000 0.37720  0.36230  0.10500  Biso   1.000  H
  H37      1.0000 0.51400  0.63110  0.80160  Biso   1.000  H
  H38      1.0000 0.48600  0.36890  0.19840  Biso   1.000  H
  C43      1.0000 0.44690  0.64790  0.94560  Biso   1.000  C
  C44      1.0000 0.55310  0.35210  0.05440  Biso   1.000  C
  H39      1.0000 0.37500  0.66300  0.98360  Biso   1.000  H
  H40      1.0000 0.62500  0.33700  0.01640  Biso   1.000  H
  H41      1.0000 0.35900  0.60100  0.95500  Biso   1.000  H
  H42      1.0000 0.64100  0.39900  0.04500  Biso   1.000  H
  C45      1.0000 0.52060  0.67040  0.03670  Biso   1.000  C
  C46      1.0000 0.47940  0.32960  0.96330  Biso   1.000  C
  H43      1.0000 0.46210  0.66040  0.08850  Biso   1.000  H
  H44      1.0000 0.53790  0.33960  0.91150  Biso   1.000  H
  H45      1.0000 0.58930  0.74800  0.05230  Biso   1.000  H
  H46      1.0000 0.41070  0.25200  0.94770  Biso   1.000  H
  H47      1.0000 0.56560  0.61950  0.03740  Biso   1.000  H
  H48      1.0000 0.43440  0.38050  0.96260  Biso   1.000  H
  C47      1.0000 0.69010  0.77170  0.70100  Biso   1.000  C
  C48      1.0000 0.30990  0.22830  0.29900  Biso   1.000  C
  H49      1.0000 0.60900  0.73100  0.67200  Biso   1.000  H
  H50      1.0000 0.39100  0.26900  0.32800  Biso   1.000  H
  C49      1.0000 0.66190  0.04640  0.77690  Biso   1.000  C
  C50      1.0000 0.33810  0.95360  0.22310  Biso   1.000  C
  H51      1.0000 0.68430  0.06910  0.85200  Biso   1.000  H
  H52      1.0000 0.31570  0.93090  0.14800  Biso   1.000  H
  H53      1.0000 0.73990  0.04090  0.75010  Biso   1.000  H
  H54      1.0000 0.26010  0.95910  0.24990  Biso   1.000  H
  H55      1.0000 0.58370  0.97340  0.75640  Biso   1.000  H
  H56      1.0000 0.41630  0.02660  0.24360  Biso   1.000  H
  C51      1.0000 0.62750  0.13280  0.73390  Biso   1.000  C
  C52      1.0000 0.37250  0.86720  0.26610  Biso   1.000  C
  H57      1.0000 0.69880  0.20840  0.76660  Biso   1.000  H
  H58      1.0000 0.30120  0.79160  0.23340  Biso   1.000  H
  H59      1.0000 0.54070  0.12940  0.75280  Biso   1.000  H
  H60      1.0000 0.45930  0.87060  0.24720  Biso   1.000  H
  C53      1.0000 0.61500  0.11740  0.61760  Biso   1.000  C
  C54      1.0000 0.38500  0.88260  0.38240  Biso   1.000  C
  H61      1.0000 0.59210  0.17690  0.59640  Biso   1.000  H
  H62      1.0000 0.40790  0.82310  0.40360  Biso   1.000  H
  H63      1.0000 0.70430  0.12770  0.59950  Biso   1.000  H
  H64      1.0000 0.29570  0.87230  0.40050  Biso   1.000  H
  C55      1.0000 0.51070  0.00580  0.55810  Biso   1.000  C
  C56      1.0000 0.48930  0.99420  0.44190  Biso   1.000  C
  H65      1.0000 0.42310  0.99250  0.58090  Biso   1.000  H
  H66      1.0000 0.57690  0.00750  0.41910  Biso   1.000  H
  H67      1.0000 0.53810  0.94680  0.57460  Biso   1.000  H
  H68      1.0000 0.46190  0.05320  0.42540  Biso   1.000  H
