data_image0
_cell_length_a       10.955
_cell_length_b       13.281
_cell_length_c       13.411
_cell_angle_alpha    99.021
_cell_angle_beta     96.207
_cell_angle_gamma    112.79

_symmetry_space_group_name_H-M    "P 1"
_symmetry_int_tables_number       1

loop_
  _symmetry_equiv_pos_as_xyz
  'x, y, z'

loop_
  _atom_site_label
  _atom_site_occupancy
  _atom_site_fract_x
  _atom_site_fract_y
  _atom_site_fract_z
  _atom_site_thermal_displace_type
  _atom_site_B_iso_or_equiv
  _atom_site_type_symbol
  Cu1      1.0000 0.50000  0.50000  0.50000  Biso   1.000  Cu
  O1       1.0000 0.37050  0.47231  0.37422  Biso   1.000  O
  O2       1.0000 0.62950  0.52769  0.62578  Biso   1.000  O
  C1       1.0000 0.20640  0.48400  0.25710  Biso   1.000  C
  C2       1.0000 0.79360  0.51600  0.74290  Biso   1.000  C
  F1       1.0000 0.28590  0.53940  0.19990  Biso   1.000  F
  F2       1.0000 0.71410  0.46060  0.80010  Biso   1.000  F
  F3       1.0000 0.12000  0.51360  0.24700  Biso   1.000  F
  F4       1.0000 0.88000  0.48640  0.75300  Biso   1.000  F
  F5       1.0000 0.15720  0.37730  0.21000  Biso   1.000  F
  F6       1.0000 0.84280  0.62270  0.79000  Biso   1.000  F
  F7       1.0000 0.29680  0.52550  0.19840  Biso   1.000  F
  F8       1.0000 0.70320  0.47450  0.80160  Biso   1.000  F
  F9       1.0000 0.10520  0.52660  0.24840  Biso   1.000  F
  F10      1.0000 0.89480  0.47340  0.75160  Biso   1.000  F
  F11      1.0000 0.14600  0.37710  0.22160  Biso   1.000  F
  F12      1.0000 0.85400  0.62290  0.77840  Biso   1.000  F
  C3       1.0000 0.27870  0.50650  0.36670  Biso   1.000  C
  C4       1.0000 0.72130  0.49350  0.63330  Biso   1.000  C
  C5       1.0000 0.23850  0.56120  0.44410  Biso   1.000  C
  C6       1.0000 0.76150  0.43880  0.55590  Biso   1.000  C
  H1       1.0000 0.16750  0.58340  0.42720  Biso   1.000  H
  H2       1.0000 0.83250  0.41660  0.57280  Biso   1.000  H
  C7       1.0000 0.29920  0.58420  0.54530  Biso   1.000  C
  C8       1.0000 0.70080  0.41580  0.45470  Biso   1.000  C
  C9       1.0000 0.25330  0.65100  0.62650  Biso   1.000  C
  C10      1.0000 0.74670  0.34900  0.37350  Biso   1.000  C
  F13      1.0000 0.16500  0.68210  0.59290  Biso   1.000  F
  F14      1.0000 0.83500  0.31790  0.40710  Biso   1.000  F
  F15      1.0000 0.36410  0.74900  0.67200  Biso   1.000  F
  F16      1.0000 0.63590  0.25100  0.32800  Biso   1.000  F
  F17      1.0000 0.22750  0.60140  0.70210  Biso   1.000  F
  F18      1.0000 0.77250  0.39860  0.29790  Biso   1.000  F
  F19      1.0000 0.25190  0.62110  0.71270  Biso   1.000  F
  F20      1.0000 0.74810  0.37890  0.28730  Biso   1.000  F
  F21      1.0000 0.31000  0.75020  0.63610  Biso   1.000  F
  F22      1.0000 0.69000  0.24980  0.36390  Biso   1.000  F
  F23      1.0000 0.11470  0.62110  0.59530  Biso   1.000  F
  F24      1.0000 0.88530  0.37890  0.40470  Biso   1.000  F
  O3       1.0000 0.39170  0.56060  0.58321  Biso   1.000  O
  O4       1.0000 0.60830  0.43940  0.41679  Biso   1.000  O
  Cu2      1.0000 0.00000  0.00000  0.00000  Biso   1.000  Cu
  O5       1.0000 0.96880  0.85900  0.04363  Biso   1.000  O
  O6       1.0000 0.03120  0.14100  0.95637  Biso   1.000  O
  C11      1.0000 0.96950  0.68400  0.04690  Biso   1.000  C
  C12      1.0000 0.03050  0.31600  0.95310  Biso   1.000  C
  F25      1.0000 0.84300  0.65000  0.05940  Biso   1.000  F
  F26      1.0000 0.15700  0.35000  0.94060  Biso   1.000  F
  F27      1.0000 0.98430  0.60710  0.98320  Biso   1.000  F
  F28      1.0000 0.01570  0.39290  0.01680  Biso   1.000  F
  F29      1.0000 0.04100  0.70120  0.14070  Biso   1.000  F
  F30      1.0000 0.95900  0.29880  0.85930  Biso   1.000  F
  F31      1.0000 0.99200  0.69050  0.14310  Biso   1.000  F
  F32      1.0000 0.00800  0.30950  0.85690  Biso   1.000  F
  F33      1.0000 0.83300  0.63700  0.02030  Biso   1.000  F
  F34      1.0000 0.16700  0.36300  0.97970  Biso   1.000  F
  F35      1.0000 0.00800  0.60620  0.00720  Biso   1.000  F
  F36      1.0000 0.99200  0.39380  0.99280  Biso   1.000  F
  C13      1.0000 0.02180  0.79490  0.01240  Biso   1.000  C
  C14      1.0000 0.97820  0.20510  0.98760  Biso   1.000  C
  C15      1.0000 0.12430  0.81500  0.95490  Biso   1.000  C
  C16      1.0000 0.87570  0.18500  0.04510  Biso   1.000  C
  H3       1.0000 0.15480  0.75810  0.93570  Biso   1.000  H
  H4       1.0000 0.84520  0.24190  0.06430  Biso   1.000  H
  C17      1.0000 0.18240  0.91480  0.92550  Biso   1.000  C
  C18      1.0000 0.81760  0.08520  0.07450  Biso   1.000  C
  C19      1.0000 0.30210  0.93550  0.86940  Biso   1.000  C
  C20      1.0000 0.69790  0.06450  0.13060  Biso   1.000  C
  F37      1.0000 0.26700  0.94480  0.78690  Biso   1.000  F
  F38      1.0000 0.73300  0.05520  0.21310  Biso   1.000  F
  F39      1.0000 0.39890  0.03300  0.90810  Biso   1.000  F
  F40      1.0000 0.60110  0.96700  0.09190  Biso   1.000  F
  F41      1.0000 0.35200  0.85900  0.87700  Biso   1.000  F
  F42      1.0000 0.64800  0.14100  0.12300  Biso   1.000  F
  F43      1.0000 0.33700  0.85200  0.85000  Biso   1.000  F
  F44      1.0000 0.66300  0.14800  0.15000  Biso   1.000  F
  F45      1.0000 0.27500  0.94880  0.76580  Biso   1.000  F
  F46      1.0000 0.72500  0.05120  0.23420  Biso   1.000  F
  F47      1.0000 0.41220  0.02150  0.92430  Biso   1.000  F
  F48      1.0000 0.58780  0.97850  0.07570  Biso   1.000  F
  O7       1.0000 0.15140  0.99730  0.93872  Biso   1.000  O
  O8       1.0000 0.84860  0.00270  0.06128  Biso   1.000  O
  O9       1.0000 0.59350  0.67910  0.48225  Biso   1.000  O
  O10      1.0000 0.40650  0.32090  0.51775  Biso   1.000  O
  N1       1.0000 0.71860  0.73020  0.47450  Biso   1.000  N
  N2       1.0000 0.28140  0.26980  0.52550  Biso   1.000  N
  C21      1.0000 0.76040  0.74750  0.37290  Biso   1.000  C
  C22      1.0000 0.23960  0.25250  0.62710  Biso   1.000  C
  C23      1.0000 0.68700  0.64020  0.29090  Biso   1.000  C
  C24      1.0000 0.31300  0.35980  0.70910  Biso   1.000  C
  H5       1.0000 0.59100  0.62440  0.27580  Biso   1.000  H
  H6       1.0000 0.40900  0.37560  0.72420  Biso   1.000  H
  H7       1.0000 0.69780  0.57810  0.31580  Biso   1.000  H
  H8       1.0000 0.30220  0.42190  0.68420  Biso   1.000  H
  H9       1.0000 0.72490  0.64910  0.22830  Biso   1.000  H
  H10      1.0000 0.27510  0.35090  0.77170  Biso   1.000  H
  C25      1.0000 0.72020  0.83910  0.34470  Biso   1.000  C
  C26      1.0000 0.27980  0.16090  0.65530  Biso   1.000  C
  H11      1.0000 0.62190  0.80930  0.32550  Biso   1.000  H
  H12      1.0000 0.37810  0.19070  0.67450  Biso   1.000  H
  H13      1.0000 0.76120  0.86430  0.28670  Biso   1.000  H
  H14      1.0000 0.23880  0.13570  0.71330  Biso   1.000  H
  H15      1.0000 0.75170  0.90220  0.40390  Biso   1.000  H
  H16      1.0000 0.24830  0.09780  0.59610  Biso   1.000  H
  C27      1.0000 0.91430  0.78510  0.40310  Biso   1.000  C
  C28      1.0000 0.08570  0.21490  0.59690  Biso   1.000  C
  C29      1.0000 0.96000  0.68960  0.39480  Biso   1.000  C
  C30      1.0000 0.04000  0.31040  0.60520  Biso   1.000  C
  H17      1.0000 0.05800  0.72030  0.41630  Biso   1.000  H
  H18      1.0000 0.94200  0.27970  0.58370  Biso   1.000  H
  H19      1.0000 0.93460  0.64750  0.32340  Biso   1.000  H
  H20      1.0000 0.06540  0.35250  0.67660  Biso   1.000  H
  H21      1.0000 0.91650  0.63980  0.43920  Biso   1.000  H
  H22      1.0000 0.08350  0.36020  0.56080  Biso   1.000  H
  C31      1.0000 0.99950  0.87550  0.35210  Biso   1.000  C
  C32      1.0000 0.00050  0.12450  0.64790  Biso   1.000  C
  H23      1.0000 0.09520  0.89440  0.37580  Biso   1.000  H
  H24      1.0000 0.90480  0.10560  0.62420  Biso   1.000  H
  H25      1.0000 0.98170  0.94230  0.37020  Biso   1.000  H
  H26      1.0000 0.01830  0.05770  0.62980  Biso   1.000  H
  H27      1.0000 0.97670  0.84820  0.27730  Biso   1.000  H
  H28      1.0000 0.02330  0.15180  0.72270  Biso   1.000  H
  N3       1.0000 0.93560  0.83120  0.51620  Biso   1.000  N
  N4       1.0000 0.06440  0.16880  0.48380  Biso   1.000  N
  O11      1.0000 0.05220  0.89090  0.57020  Biso   1.000  O
  O12      1.0000 0.94780  0.10910  0.42980  Biso   1.000  O
  C33      1.0000 0.81960  0.79090  0.55250  Biso   1.000  C
  C34      1.0000 0.18040  0.20910  0.44750  Biso   1.000  C
  C35      1.0000 0.80850  0.81380  0.65920  Biso   1.000  C
  C36      1.0000 0.19150  0.18620  0.34080  Biso   1.000  C
  C37      1.0000 0.90970  0.87910  0.74440  Biso   1.000  C
  C38      1.0000 0.09030  0.12090  0.25560  Biso   1.000  C
  H29      1.0000 0.00210  0.91690  0.74120  Biso   1.000  H
  H30      1.0000 0.99790  0.08310  0.25880  Biso   1.000  H
  N5       1.0000 0.72590  0.81580  0.80140  Biso   1.000  N
  N6       1.0000 0.27410  0.18420  0.19860  Biso   1.000  N
  N7       1.0000 0.85980  0.88150  0.83050  Biso   1.000  N
  N8       1.0000 0.14020  0.11850  0.16950  Biso   1.000  N
  C39      1.0000 0.63850  0.79460  0.87810  Biso   1.000  C
  C40      1.0000 0.36150  0.20540  0.12190  Biso   1.000  C
  H31      1.0000 0.55780  0.80710  0.85440  Biso   1.000  H
  H32      1.0000 0.44220  0.19290  0.14560  Biso   1.000  H
  H33      1.0000 0.68720  0.84980  0.94320  Biso   1.000  H
  H34      1.0000 0.31280  0.15020  0.05680  Biso   1.000  H
  C41      1.0000 0.59300  0.67820  0.89970  Biso   1.000  C
  C42      1.0000 0.40700  0.32180  0.10030  Biso   1.000  C
  H35      1.0000 0.67080  0.65840  0.91070  Biso   1.000  H
  H36      1.0000 0.32920  0.34160  0.08930  Biso   1.000  H
  H37      1.0000 0.52630  0.62290  0.84040  Biso   1.000  H
  H38      1.0000 0.47370  0.37710  0.15960  Biso   1.000  H
  C43      1.0000 0.52870  0.67640  0.99640  Biso   1.000  C
  C44      1.0000 0.47130  0.32360  0.00360  Biso   1.000  C
  H39      1.0000 0.54680  0.62450  0.03500  Biso   1.000  H
  H40      1.0000 0.45320  0.37550  0.96500  Biso   1.000  H
  H41      1.0000 0.56840  0.75210  0.04160  Biso   1.000  H
  H42      1.0000 0.43160  0.24790  0.95840  Biso   1.000  H
  C45      1.0000 0.37830  0.63900  0.96430  Biso   1.000  C
  C46      1.0000 0.62170  0.36100  0.03570  Biso   1.000  C
  H43      1.0000 0.33630  0.63470  0.02530  Biso   1.000  H
  H44      1.0000 0.66370  0.36530  0.97470  Biso   1.000  H
  H45      1.0000 0.34010  0.56480  0.91790  Biso   1.000  H
  H46      1.0000 0.65990  0.43520  0.08210  Biso   1.000  H
  H47      1.0000 0.36110  0.69240  0.92880  Biso   1.000  H
  H48      1.0000 0.63890  0.30760  0.07120  Biso   1.000  H
  C47      1.0000 0.55400  0.67730  0.86550  Biso   1.000  C
  C48      1.0000 0.44600  0.32270  0.13450  Biso   1.000  C
  H49      1.0000 0.61200  0.63650  0.87330  Biso   1.000  H
  H50      1.0000 0.38800  0.36350  0.12670  Biso   1.000  H
  H51      1.0000 0.50040  0.64860  0.79490  Biso   1.000  H
  H52      1.0000 0.49960  0.35140  0.20510  Biso   1.000  H
  C49      1.0000 0.45570  0.65170  0.94360  Biso   1.000  C
  C50      1.0000 0.54430  0.34830  0.05640  Biso   1.000  C
  H53      1.0000 0.40230  0.69660  0.93800  Biso   1.000  H
  H54      1.0000 0.59770  0.30340  0.06200  Biso   1.000  H
  H55      1.0000 0.39200  0.57200  0.92180  Biso   1.000  H
  H56      1.0000 0.60800  0.42800  0.07820  Biso   1.000  H
  C51      1.0000 0.51040  0.67100  0.04490  Biso   1.000  C
  C52      1.0000 0.48960  0.32900  0.95510  Biso   1.000  C
  H57      1.0000 0.44270  0.67090  0.08700  Biso   1.000  H
  H58      1.0000 0.55730  0.32910  0.91300  Biso   1.000  H
  H59      1.0000 0.58780  0.74390  0.06450  Biso   1.000  H
  H60      1.0000 0.41220  0.25610  0.93550  Biso   1.000  H
  H61      1.0000 0.54020  0.61220  0.05590  Biso   1.000  H
  H62      1.0000 0.45980  0.38780  0.94410  Biso   1.000  H
  C53      1.0000 0.69170  0.77450  0.70070  Biso   1.000  C
  C54      1.0000 0.30830  0.22550  0.29930  Biso   1.000  C
  H63      1.0000 0.60360  0.72690  0.66360  Biso   1.000  H
  H64      1.0000 0.39640  0.27310  0.33640  Biso   1.000  H
  C55      1.0000 0.66240  0.05150  0.77410  Biso   1.000  C
  C56      1.0000 0.33760  0.94850  0.22590  Biso   1.000  C
  H65      1.0000 0.67410  0.06380  0.84920  Biso   1.000  H
  H66      1.0000 0.32590  0.93620  0.15080  Biso   1.000  H
  H67      1.0000 0.74640  0.05490  0.75270  Biso   1.000  H
  H68      1.0000 0.25360  0.94510  0.24730  Biso   1.000  H
  H69      1.0000 0.58980  0.97780  0.74340  Biso   1.000  H
  H70      1.0000 0.41020  0.02220  0.25660  Biso   1.000  H
  C57      1.0000 0.62830  0.13730  0.74030  Biso   1.000  C
  C58      1.0000 0.37170  0.86270  0.25970  Biso   1.000  C
  H71      1.0000 0.69900  0.21210  0.77430  Biso   1.000  H
  H72      1.0000 0.30100  0.78790  0.22570  Biso   1.000  H
  H73      1.0000 0.54190  0.13240  0.75970  Biso   1.000  H
  H74      1.0000 0.45810  0.86760  0.24030  Biso   1.000  H
  C59      1.0000 0.61590  0.12130  0.61990  Biso   1.000  C
  C60      1.0000 0.38410  0.87870  0.38010  Biso   1.000  C
  H75      1.0000 0.70530  0.13350  0.60220  Biso   1.000  H
  H76      1.0000 0.29470  0.86650  0.39780  Biso   1.000  H
  H77      1.0000 0.58960  0.17880  0.59760  Biso   1.000  H
  H78      1.0000 0.41040  0.82120  0.40240  Biso   1.000  H
  C61      1.0000 0.51380  0.00600  0.56080  Biso   1.000  C
  C62      1.0000 0.48620  0.99400  0.43920  Biso   1.000  C
  H79      1.0000 0.54660  0.94930  0.57610  Biso   1.000  H
  H80      1.0000 0.45340  0.05070  0.42390  Biso   1.000  H
  H81      1.0000 0.42760  0.98950  0.58550  Biso   1.000  H
  H82      1.0000 0.57240  0.01050  0.41450  Biso   1.000  H
