data_image0
_cell_length_a       11.0009
_cell_length_b       13.3437
_cell_length_c       13.4475
_cell_angle_alpha    98.807
_cell_angle_beta     96.408
_cell_angle_gamma    112.541

_symmetry_space_group_name_H-M    "P 1"
_symmetry_int_tables_number       1

loop_
  _symmetry_equiv_pos_as_xyz
  'x, y, z'

loop_
  _atom_site_label
  _atom_site_occupancy
  _atom_site_fract_x
  _atom_site_fract_y
  _atom_site_fract_z
  _atom_site_thermal_displace_type
  _atom_site_B_iso_or_equiv
  _atom_site_type_symbol
  Cu1      1.0000 0.50000  0.50000  0.50000  Biso   1.000  Cu
  O1       1.0000 0.37280  0.47265  0.37391  Biso   1.000  O
  O2       1.0000 0.62720  0.52735  0.62609  Biso   1.000  O
  C1       1.0000 0.20740  0.48270  0.25590  Biso   1.000  C
  C2       1.0000 0.79260  0.51730  0.74410  Biso   1.000  C
  F1       1.0000 0.29220  0.52170  0.19660  Biso   1.000  F
  F2       1.0000 0.70780  0.47830  0.80340  Biso   1.000  F
  F3       1.0000 0.11760  0.52540  0.24470  Biso   1.000  F
  F4       1.0000 0.88240  0.47460  0.75530  Biso   1.000  F
  F5       1.0000 0.14300  0.37770  0.22030  Biso   1.000  F
  F6       1.0000 0.85700  0.62230  0.77970  Biso   1.000  F
  F7       1.0000 0.28900  0.54050  0.20050  Biso   1.000  F
  F8       1.0000 0.71100  0.45950  0.79950  Biso   1.000  F
  F9       1.0000 0.10590  0.50880  0.24990  Biso   1.000  F
  F10      1.0000 0.89410  0.49120  0.75010  Biso   1.000  F
  F11      1.0000 0.16700  0.37880  0.20990  Biso   1.000  F
  F12      1.0000 0.83300  0.62120  0.79010  Biso   1.000  F
  C3       1.0000 0.28140  0.50670  0.36610  Biso   1.000  C
  C4       1.0000 0.71860  0.49330  0.63390  Biso   1.000  C
  C5       1.0000 0.24060  0.56050  0.44320  Biso   1.000  C
  C6       1.0000 0.75940  0.43950  0.55680  Biso   1.000  C
  H1       1.0000 0.16900  0.57600  0.42400  Biso   1.000  H
  H2       1.0000 0.83100  0.42400  0.57600  Biso   1.000  H
  C7       1.0000 0.30120  0.58420  0.54510  Biso   1.000  C
  C8       1.0000 0.69880  0.41580  0.45490  Biso   1.000  C
  C9       1.0000 0.25470  0.64870  0.62480  Biso   1.000  C
  C10      1.0000 0.74530  0.35130  0.37520  Biso   1.000  C
  F13      1.0000 0.16610  0.68040  0.59190  Biso   1.000  F
  F14      1.0000 0.83390  0.31960  0.40810  Biso   1.000  F
  F15      1.0000 0.36660  0.74780  0.67150  Biso   1.000  F
  F16      1.0000 0.63340  0.25220  0.32850  Biso   1.000  F
  F17      1.0000 0.22810  0.60280  0.70190  Biso   1.000  F
  F18      1.0000 0.77190  0.39720  0.29810  Biso   1.000  F
  F19      1.0000 0.25660  0.61610  0.70950  Biso   1.000  F
  F20      1.0000 0.74340  0.38390  0.29050  Biso   1.000  F
  F21      1.0000 0.30660  0.74830  0.63270  Biso   1.000  F
  F22      1.0000 0.69340  0.25170  0.36730  Biso   1.000  F
  F23      1.0000 0.11680  0.61710  0.59540  Biso   1.000  F
  F24      1.0000 0.88320  0.38290  0.40460  Biso   1.000  F
  O3       1.0000 0.39470  0.56046  0.58231  Biso   1.000  O
  O4       1.0000 0.60530  0.43954  0.41769  Biso   1.000  O
  Cu2      1.0000 0.00000  0.00000  0.00000  Biso   1.000  Cu
  O5       1.0000 0.03210  0.14133  0.95634  Biso   1.000  O
  O6       1.0000 0.96790  0.85867  0.04366  Biso   1.000  O
  C11      1.0000 0.03350  0.31600  0.95240  Biso   1.000  C
  C12      1.0000 0.96650  0.68400  0.04760  Biso   1.000  C
  F25      1.0000 0.15720  0.34630  0.94600  Biso   1.000  F
  F26      1.0000 0.84280  0.65370  0.05400  Biso   1.000  F
  F27      1.0000 0.01700  0.39400  0.01410  Biso   1.000  F
  F28      1.0000 0.98300  0.60600  0.98590  Biso   1.000  F
  F29      1.0000 0.98000  0.30530  0.86190  Biso   1.000  F
  F30      1.0000 0.02000  0.69470  0.13810  Biso   1.000  F
  F31      1.0000 0.98800  0.30110  0.85130  Biso   1.000  F
  F32      1.0000 0.01200  0.69890  0.14870  Biso   1.000  F
  F33      1.0000 0.16600  0.36730  0.97640  Biso   1.000  F
  F34      1.0000 0.83400  0.63270  0.02360  Biso   1.000  F
  F35      1.0000 0.99200  0.39100  0.99300  Biso   1.000  F
  F36      1.0000 0.00800  0.60900  0.00700  Biso   1.000  F
  C13      1.0000 0.97960  0.20590  0.98720  Biso   1.000  C
  C14      1.0000 0.02040  0.79410  0.01280  Biso   1.000  C
  C15      1.0000 0.87720  0.18530  0.04450  Biso   1.000  C
  C16      1.0000 0.12280  0.81470  0.95550  Biso   1.000  C
  H3       1.0000 0.84600  0.23100  0.05700  Biso   1.000  H
  H4       1.0000 0.15400  0.76900  0.94300  Biso   1.000  H
  C17      1.0000 0.81980  0.08700  0.07450  Biso   1.000  C
  C18      1.0000 0.18020  0.91300  0.92550  Biso   1.000  C
  C19      1.0000 0.70230  0.06770  0.13110  Biso   1.000  C
  C20      1.0000 0.29770  0.93230  0.86890  Biso   1.000  C
  F37      1.0000 0.74000  0.07000  0.22570  Biso   1.000  F
  F38      1.0000 0.26000  0.93000  0.77430  Biso   1.000  F
  F39      1.0000 0.60430  0.96940  0.09430  Biso   1.000  F
  F40      1.0000 0.39570  0.03060  0.90570  Biso   1.000  F
  F41      1.0000 0.64480  0.13610  0.13270  Biso   1.000  F
  F42      1.0000 0.35520  0.86390  0.86730  Biso   1.000  F
  F43      1.0000 0.68000  0.16050  0.14480  Biso   1.000  F
  F44      1.0000 0.32000  0.83950  0.85520  Biso   1.000  F
  F45      1.0000 0.72400  0.04100  0.22030  Biso   1.000  F
  F46      1.0000 0.27600  0.95900  0.77970  Biso   1.000  F
  F47      1.0000 0.59420  0.98840  0.07650  Biso   1.000  F
  F48      1.0000 0.40580  0.01160  0.92350  Biso   1.000  F
  O7       1.0000 0.85040  0.00428  0.06091  Biso   1.000  O
  O8       1.0000 0.14960  0.99572  0.93909  Biso   1.000  O
  O9       1.0000 0.59510  0.68137  0.48118  Biso   1.000  O
  O10      1.0000 0.40490  0.31863  0.51882  Biso   1.000  O
  N1       1.0000 0.72010  0.73210  0.47410  Biso   1.000  N
  N2       1.0000 0.27990  0.26790  0.52590  Biso   1.000  N
  C21      1.0000 0.76130  0.74860  0.37310  Biso   1.000  C
  C22      1.0000 0.23870  0.25140  0.62690  Biso   1.000  C
  C23      1.0000 0.68910  0.64140  0.29160  Biso   1.000  C
  C24      1.0000 0.31090  0.35860  0.70840  Biso   1.000  C
  H5       1.0000 0.58800  0.61800  0.27700  Biso   1.000  H
  H6       1.0000 0.41200  0.38200  0.72300  Biso   1.000  H
  H7       1.0000 0.70800  0.57000  0.31300  Biso   1.000  H
  H8       1.0000 0.29200  0.43000  0.68700  Biso   1.000  H
  H9       1.0000 0.71500  0.65700  0.23100  Biso   1.000  H
  H10      1.0000 0.28500  0.34300  0.76900  Biso   1.000  H
  C25      1.0000 0.72290  0.84070  0.34500  Biso   1.000  C
  C26      1.0000 0.27710  0.15930  0.65500  Biso   1.000  C
  H11      1.0000 0.63600  0.81500  0.34100  Biso   1.000  H
  H12      1.0000 0.36400  0.18500  0.65900  Biso   1.000  H
  H13      1.0000 0.74500  0.84800  0.27900  Biso   1.000  H
  H14      1.0000 0.25500  0.15200  0.72100  Biso   1.000  H
  H15      1.0000 0.77400  0.91700  0.39400  Biso   1.000  H
  H16      1.0000 0.22600  0.08300  0.60600  Biso   1.000  H
  C27      1.0000 0.91520  0.78550  0.40360  Biso   1.000  C
  C28      1.0000 0.08480  0.21450  0.59640  Biso   1.000  C
  C29      1.0000 0.95980  0.68970  0.39630  Biso   1.000  C
  C30      1.0000 0.04020  0.31030  0.60370  Biso   1.000  C
  H17      1.0000 0.05800  0.72100  0.42400  Biso   1.000  H
  H18      1.0000 0.94200  0.27900  0.57600  Biso   1.000  H
  H19      1.0000 0.94900  0.65700  0.32700  Biso   1.000  H
  H20      1.0000 0.05100  0.34300  0.67300  Biso   1.000  H
  H21      1.0000 0.90400  0.63600  0.42700  Biso   1.000  H
  H22      1.0000 0.09600  0.36400  0.57300  Biso   1.000  H
  C31      1.0000 0.99960  0.87470  0.35300  Biso   1.000  C
  C32      1.0000 0.00040  0.12530  0.64700  Biso   1.000  C
  H23      1.0000 0.10000  0.89500  0.38100  Biso   1.000  H
  H24      1.0000 0.90000  0.10500  0.61900  Biso   1.000  H
  H25      1.0000 0.98600  0.93800  0.35700  Biso   1.000  H
  H26      1.0000 0.01400  0.06200  0.64300  Biso   1.000  H
  H27      1.0000 0.97900  0.85300  0.28300  Biso   1.000  H
  H28      1.0000 0.02100  0.14700  0.71700  Biso   1.000  H
  N3       1.0000 0.93520  0.83190  0.51650  Biso   1.000  N
  N4       1.0000 0.06480  0.16810  0.48350  Biso   1.000  N
  O11      1.0000 0.05150  0.89060  0.57044  Biso   1.000  O
  O12      1.0000 0.94850  0.10940  0.42956  Biso   1.000  O
  C33      1.0000 0.81940  0.79270  0.55310  Biso   1.000  C
  C34      1.0000 0.18060  0.20730  0.44690  Biso   1.000  C
  C35      1.0000 0.80820  0.81470  0.65880  Biso   1.000  C
  C36      1.0000 0.19180  0.18530  0.34120  Biso   1.000  C
  C37      1.0000 0.90830  0.87940  0.74440  Biso   1.000  C
  C38      1.0000 0.09170  0.12060  0.25560  Biso   1.000  C
  H29      1.0000 0.99000  0.91200  0.74600  Biso   1.000  H
  H30      1.0000 0.01000  0.08800  0.25400  Biso   1.000  H
  N5       1.0000 0.72580  0.81750  0.80060  Biso   1.000  N
  N6       1.0000 0.27420  0.18250  0.19940  Biso   1.000  N
  N7       1.0000 0.85900  0.88260  0.82980  Biso   1.000  N
  N8       1.0000 0.14100  0.11740  0.17020  Biso   1.000  N
  C39      1.0000 0.63740  0.79620  0.87610  Biso   1.000  C
  C40      1.0000 0.36260  0.20380  0.12390  Biso   1.000  C
  H31      1.0000 0.59500  0.83600  0.85400  Biso   1.000  H
  H32      1.0000 0.40500  0.16400  0.14600  Biso   1.000  H
  H33      1.0000 0.68800  0.83700  0.93600  Biso   1.000  H
  H34      1.0000 0.31200  0.16300  0.06400  Biso   1.000  H
  C41      1.0000 0.56500  0.67900  0.87550  Biso   1.000  C
  C42      1.0000 0.43500  0.32100  0.12450  Biso   1.000  C
  H35      1.0000 0.63020  0.65010  0.90140  Biso   1.000  H
  H36      1.0000 0.36980  0.34990  0.09860  Biso   1.000  H
  H37      1.0000 0.52490  0.63850  0.80380  Biso   1.000  H
  H38      1.0000 0.47510  0.36150  0.19620  Biso   1.000  H
  C43      1.0000 0.43500  0.64820  0.94990  Biso   1.000  C
  C44      1.0000 0.56500  0.35180  0.05010  Biso   1.000  C
  H39      1.0000 0.38380  0.69500  0.94700  Biso   1.000  H
  H40      1.0000 0.61620  0.30500  0.05300  Biso   1.000  H
  H41      1.0000 0.37440  0.56850  0.93660  Biso   1.000  H
  H42      1.0000 0.62560  0.43150  0.06340  Biso   1.000  H
  C45      1.0000 0.51820  0.67770  0.02240  Biso   1.000  C
  C46      1.0000 0.48180  0.32230  0.97760  Biso   1.000  C
  H43      1.0000 0.47720  0.67200  0.08350  Biso   1.000  H
  H44      1.0000 0.52280  0.32800  0.91650  Biso   1.000  H
  H45      1.0000 0.57930  0.75510  0.02700  Biso   1.000  H
  H46      1.0000 0.42070  0.24490  0.97300  Biso   1.000  H
  H47      1.0000 0.56840  0.63080  0.01790  Biso   1.000  H
  H48      1.0000 0.43160  0.36920  0.98210  Biso   1.000  H
  C47      1.0000 0.69310  0.77690  0.70020  Biso   1.000  C
  C48      1.0000 0.30690  0.22310  0.29980  Biso   1.000  C
  H49      1.0000 0.61800  0.73800  0.66800  Biso   1.000  H
  H50      1.0000 0.38200  0.26200  0.33200  Biso   1.000  H
  C49      1.0000 0.66080  0.05150  0.77290  Biso   1.000  C
  C50      1.0000 0.33920  0.94850  0.22710  Biso   1.000  C
  H51      1.0000 0.68450  0.06720  0.84770  Biso   1.000  H
  H52      1.0000 0.31550  0.93280  0.15230  Biso   1.000  H
  H53      1.0000 0.73440  0.04290  0.74290  Biso   1.000  H
  H54      1.0000 0.26560  0.95710  0.25710  Biso   1.000  H
  H55      1.0000 0.57940  0.98280  0.74930  Biso   1.000  H
  H56      1.0000 0.42060  0.01720  0.25070  Biso   1.000  H
  C51      1.0000 0.63610  0.14680  0.73990  Biso   1.000  C
  C52      1.0000 0.36390  0.85320  0.26010  Biso   1.000  C
  H57      1.0000 0.71670  0.21760  0.76120  Biso   1.000  H
  H58      1.0000 0.28330  0.78240  0.23880  Biso   1.000  H
  H59      1.0000 0.55960  0.15600  0.76610  Biso   1.000  H
  H60      1.0000 0.44040  0.84400  0.23390  Biso   1.000  H
  C53      1.0000 0.60290  0.10210  0.61990  Biso   1.000  C
  C54      1.0000 0.39710  0.89790  0.38010  Biso   1.000  C
  H61      1.0000 0.59260  0.16560  0.59650  Biso   1.000  H
  H62      1.0000 0.40740  0.83440  0.40350  Biso   1.000  H
  H63      1.0000 0.69200  0.10830  0.60690  Biso   1.000  H
  H64      1.0000 0.30800  0.89170  0.39310  Biso   1.000  H
  C55      1.0000 0.53000  0.02590  0.54890  Biso   1.000  C
  C56      1.0000 0.47000  0.97410  0.45110  Biso   1.000  C
  H65      1.0000 0.44790  0.00510  0.57870  Biso   1.000  H
  H66      1.0000 0.55210  0.99490  0.42130  Biso   1.000  H
  H67      1.0000 0.56630  0.97120  0.56410  Biso   1.000  H
  H68      1.0000 0.43370  0.02880  0.43590  Biso   1.000  H
