data_image0
_cell_length_a       11.328
_cell_length_b       13.42
_cell_length_c       13.55
_cell_angle_alpha    98.366
_cell_angle_beta     96.956
_cell_angle_gamma    112.218

_symmetry_space_group_name_H-M    "P 1"
_symmetry_int_tables_number       1

loop_
  _symmetry_equiv_pos_as_xyz
  'x, y, z'

loop_
  _atom_site_label
  _atom_site_occupancy
  _atom_site_fract_x
  _atom_site_fract_y
  _atom_site_fract_z
  _atom_site_thermal_displace_type
  _atom_site_B_iso_or_equiv
  _atom_site_type_symbol
  Cu1      1.0000 0.50000  0.50000  0.50000  Biso   1.000  Cu
  O1       1.0000 0.37860  0.47490  0.37374  Biso   1.000  O
  O2       1.0000 0.62140  0.52510  0.62626  Biso   1.000  O
  C1       1.0000 0.21870  0.48520  0.25580  Biso   1.000  C
  C2       1.0000 0.78130  0.51480  0.74420  Biso   1.000  C
  F1       1.0000 0.29550  0.54130  0.20280  Biso   1.000  F
  F2       1.0000 0.70450  0.45870  0.79720  Biso   1.000  F
  F3       1.0000 0.15160  0.52010  0.24200  Biso   1.000  F
  F4       1.0000 0.84840  0.47990  0.75800  Biso   1.000  F
  F5       1.0000 0.18130  0.38390  0.21040  Biso   1.000  F
  F6       1.0000 0.81870  0.61610  0.78960  Biso   1.000  F
  F7       1.0000 0.28810  0.49500  0.19140  Biso   1.000  F
  F8       1.0000 0.71190  0.50500  0.80860  Biso   1.000  F
  F9       1.0000 0.12390  0.53570  0.24470  Biso   1.000  F
  F10      1.0000 0.87610  0.46430  0.75530  Biso   1.000  F
  F11      1.0000 0.12600  0.38860  0.23860  Biso   1.000  F
  F12      1.0000 0.87400  0.61140  0.76140  Biso   1.000  F
  C3       1.0000 0.29050  0.50930  0.36550  Biso   1.000  C
  C4       1.0000 0.70950  0.49070  0.63450  Biso   1.000  C
  C5       1.0000 0.25220  0.56410  0.44150  Biso   1.000  C
  C6       1.0000 0.74780  0.43590  0.55850  Biso   1.000  C
  H1       1.0000 0.18470  0.58570  0.42450  Biso   1.000  H
  H2       1.0000 0.81530  0.41430  0.57550  Biso   1.000  H
  C7       1.0000 0.31170  0.58710  0.54100  Biso   1.000  C
  C8       1.0000 0.68830  0.41290  0.45900  Biso   1.000  C
  C9       1.0000 0.26530  0.65010  0.62140  Biso   1.000  C
  C10      1.0000 0.73470  0.34990  0.37860  Biso   1.000  C
  F13      1.0000 0.19180  0.69410  0.58570  Biso   1.000  F
  F14      1.0000 0.80820  0.30590  0.41430  Biso   1.000  F
  F15      1.0000 0.37420  0.74760  0.67590  Biso   1.000  F
  F16      1.0000 0.62580  0.25240  0.32410  Biso   1.000  F
  F17      1.0000 0.22570  0.59820  0.68650  Biso   1.000  F
  F18      1.0000 0.77430  0.40180  0.31350  Biso   1.000  F
  F19      1.0000 0.27530  0.62740  0.70830  Biso   1.000  F
  F20      1.0000 0.72470  0.37260  0.29170  Biso   1.000  F
  F21      1.0000 0.30500  0.74400  0.62200  Biso   1.000  F
  F22      1.0000 0.69500  0.25600  0.37800  Biso   1.000  F
  F23      1.0000 0.13380  0.61400  0.59510  Biso   1.000  F
  F24      1.0000 0.86620  0.38600  0.40490  Biso   1.000  F
  O3       1.0000 0.40020  0.56250  0.57935  Biso   1.000  O
  O4       1.0000 0.59980  0.43750  0.42065  Biso   1.000  O
  Cu2      1.0000 0.00000  0.00000  0.00000  Biso   1.000  Cu
  O5       1.0000 0.96590  0.86020  0.04450  Biso   1.000  O
  O6       1.0000 0.03410  0.13980  0.95550  Biso   1.000  O
  C11      1.0000 0.96370  0.68730  0.05320  Biso   1.000  C
  C12      1.0000 0.03630  0.31270  0.94680  Biso   1.000  C
  F25      1.0000 0.84820  0.66130  0.07720  Biso   1.000  F
  F26      1.0000 0.15180  0.33870  0.92280  Biso   1.000  F
  F27      1.0000 0.96370  0.60630  0.98830  Biso   1.000  F
  F28      1.0000 0.03630  0.39370  0.01170  Biso   1.000  F
  F29      1.0000 0.04150  0.69870  0.14410  Biso   1.000  F
  F30      1.0000 0.95850  0.30130  0.85590  Biso   1.000  F
  F31      1.0000 0.99050  0.69730  0.14530  Biso   1.000  F
  F32      1.0000 0.00950  0.30270  0.85470  Biso   1.000  F
  F33      1.0000 0.84040  0.64260  0.02520  Biso   1.000  F
  F34      1.0000 0.15960  0.35740  0.97480  Biso   1.000  F
  F35      1.0000 0.01100  0.61550  0.02130  Biso   1.000  F
  F36      1.0000 0.98900  0.38450  0.97870  Biso   1.000  F
  C13      1.0000 0.01530  0.79470  0.01550  Biso   1.000  C
  C14      1.0000 0.98470  0.20530  0.98450  Biso   1.000  C
  C15      1.0000 0.11060  0.81090  0.95680  Biso   1.000  C
  C16      1.0000 0.88940  0.18910  0.04320  Biso   1.000  C
  H3       1.0000 0.13650  0.75400  0.93790  Biso   1.000  H
  H4       1.0000 0.86350  0.24600  0.06210  Biso   1.000  H
  C17      1.0000 0.16770  0.90800  0.92570  Biso   1.000  C
  C18      1.0000 0.83230  0.09200  0.07430  Biso   1.000  C
  C19      1.0000 0.28060  0.92070  0.86810  Biso   1.000  C
  C20      1.0000 0.71940  0.07930  0.13190  Biso   1.000  C
  F37      1.0000 0.26980  0.94910  0.80160  Biso   1.000  F
  F38      1.0000 0.73020  0.05090  0.19840  Biso   1.000  F
  F39      1.0000 0.37670  0.02090  0.89940  Biso   1.000  F
  F40      1.0000 0.62330  0.97910  0.10060  Biso   1.000  F
  F41      1.0000 0.33100  0.85280  0.86880  Biso   1.000  F
  F42      1.0000 0.66900  0.14720  0.13120  Biso   1.000  F
  F43      1.0000 0.26770  0.82590  0.82030  Biso   1.000  F
  F44      1.0000 0.73230  0.17410  0.17970  Biso   1.000  F
  F45      1.0000 0.25460  0.94940  0.76970  Biso   1.000  F
  F46      1.0000 0.74540  0.05060  0.23030  Biso   1.000  F
  F47      1.0000 0.38610  0.96410  0.92990  Biso   1.000  F
  F48      1.0000 0.61390  0.03590  0.07010  Biso   1.000  F
  O7       1.0000 0.14150  0.99090  0.93780  Biso   1.000  O
  O8       1.0000 0.85850  0.00910  0.06220  Biso   1.000  O
  O9       1.0000 0.60070  0.68390  0.48370  Biso   1.000  O
  O10      1.0000 0.39930  0.31610  0.51630  Biso   1.000  O
  N1       1.0000 0.72200  0.73380  0.47730  Biso   1.000  N
  N2       1.0000 0.27800  0.26620  0.52270  Biso   1.000  N
  C21      1.0000 0.76330  0.74840  0.37810  Biso   1.000  C
  C22      1.0000 0.23670  0.25160  0.62190  Biso   1.000  C
  C23      1.0000 0.69250  0.64330  0.29730  Biso   1.000  C
  C24      1.0000 0.30750  0.35670  0.70270  Biso   1.000  C
  H5       1.0000 0.60160  0.62830  0.28290  Biso   1.000  H
  H6       1.0000 0.39840  0.37170  0.71710  Biso   1.000  H
  H7       1.0000 0.70390  0.58320  0.32150  Biso   1.000  H
  H8       1.0000 0.29610  0.41680  0.67850  Biso   1.000  H
  H9       1.0000 0.72730  0.65230  0.23640  Biso   1.000  H
  H10      1.0000 0.27270  0.34770  0.76360  Biso   1.000  H
  C25      1.0000 0.72800  0.84090  0.34770  Biso   1.000  C
  C26      1.0000 0.27200  0.15910  0.65230  Biso   1.000  C
  H11      1.0000 0.63530  0.81490  0.32910  Biso   1.000  H
  H12      1.0000 0.36470  0.18510  0.67090  Biso   1.000  H
  H13      1.0000 0.76670  0.86310  0.29090  Biso   1.000  H
  H14      1.0000 0.23330  0.13690  0.70910  Biso   1.000  H
  H15      1.0000 0.75990  0.90260  0.40400  Biso   1.000  H
  H16      1.0000 0.24010  0.09740  0.59600  Biso   1.000  H
  C27      1.0000 0.91270  0.78430  0.40960  Biso   1.000  C
  C28      1.0000 0.08730  0.21570  0.59040  Biso   1.000  C
  C29      1.0000 0.95410  0.68900  0.40410  Biso   1.000  C
  C30      1.0000 0.04590  0.31100  0.59590  Biso   1.000  C
  H17      1.0000 0.04680  0.71690  0.42430  Biso   1.000  H
  H18      1.0000 0.95320  0.28310  0.57570  Biso   1.000  H
  H19      1.0000 0.92810  0.64680  0.33570  Biso   1.000  H
  H20      1.0000 0.07190  0.35320  0.66430  Biso   1.000  H
  H21      1.0000 0.91350  0.64290  0.44880  Biso   1.000  H
  H22      1.0000 0.08650  0.35710  0.55120  Biso   1.000  H
  C31      1.0000 0.99660  0.87160  0.35950  Biso   1.000  C
  C32      1.0000 0.00340  0.12840  0.64050  Biso   1.000  C
  H23      1.0000 0.08650  0.88760  0.38350  Biso   1.000  H
  H24      1.0000 0.91350  0.11240  0.61650  Biso   1.000  H
  H25      1.0000 0.98140  0.93720  0.37610  Biso   1.000  H
  H26      1.0000 0.01860  0.06280  0.62390  Biso   1.000  H
  H27      1.0000 0.97530  0.84540  0.28710  Biso   1.000  H
  H28      1.0000 0.02470  0.15460  0.71290  Biso   1.000  H
  N3       1.0000 0.93170  0.83140  0.52050  Biso   1.000  N
  N4       1.0000 0.06830  0.16860  0.47950  Biso   1.000  N
  O11      1.0000 0.04340  0.88730  0.57540  Biso   1.000  O
  O12      1.0000 0.95660  0.11270  0.42460  Biso   1.000  O
  C33      1.0000 0.81930  0.79340  0.55610  Biso   1.000  C
  C34      1.0000 0.18070  0.20660  0.44390  Biso   1.000  C
  C35      1.0000 0.80730  0.81620  0.66120  Biso   1.000  C
  C36      1.0000 0.19270  0.18380  0.33880  Biso   1.000  C
  C37      1.0000 0.90440  0.88190  0.74520  Biso   1.000  C
  C38      1.0000 0.09560  0.11810  0.25480  Biso   1.000  C
  H29      1.0000 0.99180  0.91730  0.74240  Biso   1.000  H
  H30      1.0000 0.00820  0.08270  0.25760  Biso   1.000  H
  N5       1.0000 0.72720  0.82390  0.80000  Biso   1.000  N
  N6       1.0000 0.27280  0.17610  0.20000  Biso   1.000  N
  N7       1.0000 0.85620  0.88730  0.82990  Biso   1.000  N
  N8       1.0000 0.14380  0.11270  0.17010  Biso   1.000  N
  C39      1.0000 0.64260  0.80670  0.87520  Biso   1.000  C
  C40      1.0000 0.35740  0.19330  0.12480  Biso   1.000  C
  H31      1.0000 0.56690  0.81910  0.84910  Biso   1.000  H
  H32      1.0000 0.43310  0.18090  0.15090  Biso   1.000  H
  H33      1.0000 0.68870  0.86250  0.93640  Biso   1.000  H
  H34      1.0000 0.31130  0.13750  0.06360  Biso   1.000  H
  C41      1.0000 0.59540  0.69470  0.90500  Biso   1.000  C
  C42      1.0000 0.40460  0.30530  0.09500  Biso   1.000  C
  H35      1.0000 0.66860  0.68030  0.93350  Biso   1.000  H
  H36      1.0000 0.33140  0.31970  0.06650  Biso   1.000  H
  H37      1.0000 0.54520  0.63680  0.84610  Biso   1.000  H
  H38      1.0000 0.45480  0.36320  0.15390  Biso   1.000  H
  C43      1.0000 0.51060  0.69880  0.98430  Biso   1.000  C
  C44      1.0000 0.48940  0.30120  0.01570  Biso   1.000  C
  H39      1.0000 0.55960  0.70840  0.05140  Biso   1.000  H
  H40      1.0000 0.44040  0.29160  0.94860  Biso   1.000  H
  H41      1.0000 0.48810  0.76160  0.98350  Biso   1.000  H
  H42      1.0000 0.51190  0.23840  0.01650  Biso   1.000  H
  C45      1.0000 0.38890  0.59600  0.96380  Biso   1.000  C
  C46      1.0000 0.61110  0.40400  0.03620  Biso   1.000  C
  H43      1.0000 0.35090  0.59130  0.02350  Biso   1.000  H
  H44      1.0000 0.64910  0.40870  0.97650  Biso   1.000  H
  H45      1.0000 0.40930  0.53320  0.94640  Biso   1.000  H
  H46      1.0000 0.59070  0.46680  0.05360  Biso   1.000  H
  H47      1.0000 0.32850  0.59760  0.90850  Biso   1.000  H
  H48      1.0000 0.67150  0.40240  0.09150  Biso   1.000  H
  C47      1.0000 0.56590  0.70140  0.87170  Biso   1.000  C
  C48      1.0000 0.43410  0.29860  0.12830  Biso   1.000  C
  H49      1.0000 0.62310  0.66400  0.88370  Biso   1.000  H
  H50      1.0000 0.37690  0.33600  0.11630  Biso   1.000  H
  H51      1.0000 0.51890  0.67070  0.80220  Biso   1.000  H
  H52      1.0000 0.48110  0.32930  0.19780  Biso   1.000  H
  C49      1.0000 0.46390  0.66570  0.94110  Biso   1.000  C
  C50      1.0000 0.53610  0.33430  0.05890  Biso   1.000  C
  H53      1.0000 0.40700  0.70420  0.93480  Biso   1.000  H
  H54      1.0000 0.59300  0.29580  0.06520  Biso   1.000  H
  H55      1.0000 0.41120  0.58730  0.92020  Biso   1.000  H
  H56      1.0000 0.58880  0.41270  0.07980  Biso   1.000  H
  C51      1.0000 0.53200  0.69200  0.04870  Biso   1.000  C
  C52      1.0000 0.46800  0.30800  0.95130  Biso   1.000  C
  H57      1.0000 0.47280  0.69280  0.09320  Biso   1.000  H
  H58      1.0000 0.52720  0.30720  0.90680  Biso   1.000  H
  H59      1.0000 0.60340  0.76300  0.06260  Biso   1.000  H
  H60      1.0000 0.39660  0.23700  0.93740  Biso   1.000  H
  H61      1.0000 0.56500  0.63730  0.05960  Biso   1.000  H
  H62      1.0000 0.43500  0.36270  0.94040  Biso   1.000  H
  C53      1.0000 0.69470  0.78000  0.70120  Biso   1.000  C
  C54      1.0000 0.30530  0.22000  0.29880  Biso   1.000  C
  H63      1.0000 0.61180  0.73350  0.66540  Biso   1.000  H
  H64      1.0000 0.38820  0.26650  0.33460  Biso   1.000  H
  C55      1.0000 0.65290  0.10200  0.77220  Biso   1.000  C
  C56      1.0000 0.34710  0.89800  0.22780  Biso   1.000  C
  H65      1.0000 0.65410  0.15360  0.82960  Biso   1.000  H
  H66      1.0000 0.34590  0.84640  0.17040  Biso   1.000  H
  H67      1.0000 0.73280  0.09180  0.78100  Biso   1.000  H
  H68      1.0000 0.26720  0.90820  0.21900  Biso   1.000  H
  H69      1.0000 0.58130  0.03260  0.76670  Biso   1.000  H
  H70      1.0000 0.41870  0.96740  0.23330  Biso   1.000  H
  C57      1.0000 0.63900  0.14200  0.68200  Biso   1.000  C
  C58      1.0000 0.36100  0.85800  0.31800  Biso   1.000  C
  H71      1.0000 0.72190  0.17880  0.66320  Biso   1.000  H
  H72      1.0000 0.27810  0.82120  0.33680  Biso   1.000  H
  H73      1.0000 0.59550  0.19230  0.68950  Biso   1.000  H
  H74      1.0000 0.40450  0.80770  0.31050  Biso   1.000  H
  C59      1.0000 0.57300  0.05800  0.62300  Biso   1.000  C
  C60      1.0000 0.42700  0.94200  0.37700  Biso   1.000  C
  H75      1.0000 0.63690  0.02700  0.62730  Biso   1.000  H
  H76      1.0000 0.36310  0.97300  0.37270  Biso   1.000  H
  H77      1.0000 0.51830  0.02590  0.67000  Biso   1.000  H
  H78      1.0000 0.48170  0.97410  0.33000  Biso   1.000  H
  C61      1.0000 0.49400  0.98500  0.53800  Biso   1.000  C
  C62      1.0000 0.50600  0.01500  0.46200  Biso   1.000  C
  H79      1.0000 0.40430  0.96610  0.54600  Biso   1.000  H
  H80      1.0000 0.59570  0.03390  0.45400  Biso   1.000  H
  H81      1.0000 0.50930  0.91840  0.53400  Biso   1.000  H
  H82      1.0000 0.49070  0.08160  0.46600  Biso   1.000  H
