data_image0
_cell_length_a       11.144
_cell_length_b       13.333
_cell_length_c       13.454
_cell_angle_alpha    98.467
_cell_angle_beta     96.838
_cell_angle_gamma    112.28

_symmetry_space_group_name_H-M    "P 1"
_symmetry_int_tables_number       1

loop_
  _symmetry_equiv_pos_as_xyz
  'x, y, z'

loop_
  _atom_site_label
  _atom_site_occupancy
  _atom_site_fract_x
  _atom_site_fract_y
  _atom_site_fract_z
  _atom_site_thermal_displace_type
  _atom_site_B_iso_or_equiv
  _atom_site_type_symbol
  Cu1      1.0000 0.50000  0.50000  0.50000  Biso   1.000  Cu
  O1       1.0000 0.37650  0.47389  0.37342  Biso   1.000  O
  O2       1.0000 0.62350  0.52611  0.62658  Biso   1.000  O
  C1       1.0000 0.21260  0.48300  0.25620  Biso   1.000  C
  C2       1.0000 0.78740  0.51700  0.74380  Biso   1.000  C
  F1       1.0000 0.29430  0.52870  0.19690  Biso   1.000  F
  F2       1.0000 0.70570  0.47130  0.80310  Biso   1.000  F
  F3       1.0000 0.12520  0.52300  0.24430  Biso   1.000  F
  F4       1.0000 0.87480  0.47700  0.75570  Biso   1.000  F
  F5       1.0000 0.16460  0.38160  0.21380  Biso   1.000  F
  F6       1.0000 0.83540  0.61840  0.78620  Biso   1.000  F
  C3       1.0000 0.28700  0.50760  0.36550  Biso   1.000  C
  C4       1.0000 0.71300  0.49240  0.63450  Biso   1.000  C
  C5       1.0000 0.24720  0.56310  0.44130  Biso   1.000  C
  C6       1.0000 0.75280  0.43690  0.55870  Biso   1.000  C
  H1       1.0000 0.18100  0.58100  0.42500  Biso   1.000  H
  H2       1.0000 0.81900  0.41900  0.57500  Biso   1.000  H
  C7       1.0000 0.30730  0.58540  0.54260  Biso   1.000  C
  C8       1.0000 0.69270  0.41460  0.45740  Biso   1.000  C
  C9       1.0000 0.25940  0.64900  0.62280  Biso   1.000  C
  C10      1.0000 0.74060  0.35100  0.37720  Biso   1.000  C
  F7       1.0000 0.18040  0.68780  0.58860  Biso   1.000  F
  F8       1.0000 0.81960  0.31220  0.41140  Biso   1.000  F
  F9       1.0000 0.37100  0.74640  0.67470  Biso   1.000  F
  F10      1.0000 0.62900  0.25360  0.32530  Biso   1.000  F
  F11      1.0000 0.22880  0.59890  0.69580  Biso   1.000  F
  F12      1.0000 0.77120  0.40110  0.30420  Biso   1.000  F
  F13      1.0000 0.26760  0.62540  0.70670  Biso   1.000  F
  F14      1.0000 0.73240  0.37460  0.29330  Biso   1.000  F
  F15      1.0000 0.30700  0.74520  0.62770  Biso   1.000  F
  F16      1.0000 0.69300  0.25480  0.37230  Biso   1.000  F
  F17      1.0000 0.12510  0.61260  0.59430  Biso   1.000  F
  F18      1.0000 0.87490  0.38740  0.40570  Biso   1.000  F
  O3       1.0000 0.39850  0.56193  0.58047  Biso   1.000  O
  O4       1.0000 0.60150  0.43807  0.41953  Biso   1.000  O
  Cu2      1.0000 0.00000  0.00000  0.00000  Biso   1.000  Cu
  O5       1.0000 0.03350  0.14055  0.95595  Biso   1.000  O
  O6       1.0000 0.96650  0.85945  0.04405  Biso   1.000  O
  C11      1.0000 0.03730  0.31530  0.94920  Biso   1.000  C
  C12      1.0000 0.96270  0.68470  0.05080  Biso   1.000  C
  F19      1.0000 0.15990  0.34630  0.93690  Biso   1.000  F
  F20      1.0000 0.84010  0.65370  0.06310  Biso   1.000  F
  F21      1.0000 0.03550  0.39890  0.00630  Biso   1.000  F
  F22      1.0000 0.96450  0.60110  0.99370  Biso   1.000  F
  F23      1.0000 0.97500  0.31000  0.86150  Biso   1.000  F
  F24      1.0000 0.02500  0.69000  0.13850  Biso   1.000  F
  F25      1.0000 0.99800  0.29700  0.85050  Biso   1.000  F
  F26      1.0000 0.00200  0.70300  0.14950  Biso   1.000  F
  F27      1.0000 0.16270  0.36070  0.97420  Biso   1.000  F
  F28      1.0000 0.83730  0.63930  0.02580  Biso   1.000  F
  F29      1.0000 0.98400  0.38340  0.99220  Biso   1.000  F
  F30      1.0000 0.01600  0.61660  0.00780  Biso   1.000  F
  C13      1.0000 0.98300  0.20560  0.98570  Biso   1.000  C
  C14      1.0000 0.01700  0.79440  0.01430  Biso   1.000  C
  C15      1.0000 0.88590  0.18810  0.04410  Biso   1.000  C
  C16      1.0000 0.11410  0.81190  0.95590  Biso   1.000  C
  H3       1.0000 0.86300  0.23300  0.04600  Biso   1.000  H
  H4       1.0000 0.13700  0.76700  0.95400  Biso   1.000  H
  C17      1.0000 0.82770  0.09060  0.07440  Biso   1.000  C
  C18      1.0000 0.17230  0.90940  0.92560  Biso   1.000  C
  C19      1.0000 0.71360  0.07500  0.13310  Biso   1.000  C
  C20      1.0000 0.28640  0.92500  0.86690  Biso   1.000  C
  F31      1.0000 0.75000  0.08230  0.23030  Biso   1.000  F
  F32      1.0000 0.25000  0.91770  0.76970  Biso   1.000  F
  F33      1.0000 0.61540  0.97470  0.09960  Biso   1.000  F
  F34      1.0000 0.38460  0.02530  0.90040  Biso   1.000  F
  F35      1.0000 0.65850  0.14060  0.12840  Biso   1.000  F
  F36      1.0000 0.34150  0.85940  0.87160  Biso   1.000  F
  F37      1.0000 0.70700  0.17310  0.16140  Biso   1.000  F
  F38      1.0000 0.29300  0.82690  0.83860  Biso   1.000  F
  F39      1.0000 0.72600  0.03320  0.20740  Biso   1.000  F
  F40      1.0000 0.27400  0.96680  0.79260  Biso   1.000  F
  F41      1.0000 0.60680  0.01530  0.07270  Biso   1.000  F
  F42      1.0000 0.39320  0.98470  0.92730  Biso   1.000  F
  O7       1.0000 0.85550  0.00805  0.06185  Biso   1.000  O
  O8       1.0000 0.14450  0.99195  0.93815  Biso   1.000  O
  O9       1.0000 0.59810  0.68355  0.48174  Biso   1.000  O
  O10      1.0000 0.40190  0.31645  0.51826  Biso   1.000  O
  N1       1.0000 0.72100  0.73320  0.47540  Biso   1.000  N
  N2       1.0000 0.27900  0.26680  0.52460  Biso   1.000  N
  C21      1.0000 0.76220  0.74950  0.37490  Biso   1.000  C
  C22      1.0000 0.23780  0.25050  0.62510  Biso   1.000  C
  C23      1.0000 0.69050  0.64260  0.29420  Biso   1.000  C
  C24      1.0000 0.30950  0.35740  0.70580  Biso   1.000  C
  H5       1.0000 0.59100  0.60900  0.28400  Biso   1.000  H
  H6       1.0000 0.40900  0.39100  0.71600  Biso   1.000  H
  H7       1.0000 0.69700  0.57900  0.31700  Biso   1.000  H
  H8       1.0000 0.30300  0.42100  0.68300  Biso   1.000  H
  H9       1.0000 0.72600  0.65300  0.23700  Biso   1.000  H
  H10      1.0000 0.27400  0.34700  0.76300  Biso   1.000  H
  C25      1.0000 0.72620  0.84150  0.34540  Biso   1.000  C
  C26      1.0000 0.27380  0.15850  0.65460  Biso   1.000  C
  H11      1.0000 0.64900  0.82000  0.34200  Biso   1.000  H
  H12      1.0000 0.35100  0.18000  0.65800  Biso   1.000  H
  H13      1.0000 0.75100  0.85300  0.27500  Biso   1.000  H
  H14      1.0000 0.24900  0.14700  0.72500  Biso   1.000  H
  H15      1.0000 0.78200  0.91600  0.39400  Biso   1.000  H
  H16      1.0000 0.21800  0.08400  0.60600  Biso   1.000  H
  C27      1.0000 0.91370  0.78500  0.40670  Biso   1.000  C
  C28      1.0000 0.08630  0.21500  0.59330  Biso   1.000  C
  C29      1.0000 0.95540  0.68850  0.40030  Biso   1.000  C
  C30      1.0000 0.04460  0.31150  0.59970  Biso   1.000  C
  H17      1.0000 0.03600  0.71600  0.42500  Biso   1.000  H
  H18      1.0000 0.96400  0.28400  0.57500  Biso   1.000  H
  H19      1.0000 0.94800  0.65700  0.33000  Biso   1.000  H
  H20      1.0000 0.05200  0.34300  0.67000  Biso   1.000  H
  H21      1.0000 0.89400  0.63300  0.43200  Biso   1.000  H
  H22      1.0000 0.10600  0.36700  0.56800  Biso   1.000  H
  C31      1.0000 0.99810  0.87280  0.35590  Biso   1.000  C
  C32      1.0000 0.00190  0.12720  0.64410  Biso   1.000  C
  H23      1.0000 0.08400  0.89800  0.39000  Biso   1.000  H
  H24      1.0000 0.91600  0.10200  0.61000  Biso   1.000  H
  H25      1.0000 0.98500  0.93100  0.36700  Biso   1.000  H
  H26      1.0000 0.01500  0.06900  0.63300  Biso   1.000  H
  H27      1.0000 0.97700  0.84900  0.27900  Biso   1.000  H
  H28      1.0000 0.02300  0.15100  0.72100  Biso   1.000  H
  N3       1.0000 0.93320  0.83180  0.51870  Biso   1.000  N
  N4       1.0000 0.06680  0.16820  0.48130  Biso   1.000  N
  O11      1.0000 0.04640  0.88880  0.57260  Biso   1.000  O
  O12      1.0000 0.95360  0.11120  0.42740  Biso   1.000  O
  C33      1.0000 0.81900  0.79390  0.55420  Biso   1.000  C
  C34      1.0000 0.18100  0.20610  0.44580  Biso   1.000  C
  C35      1.0000 0.80740  0.81610  0.65960  Biso   1.000  C
  C36      1.0000 0.19260  0.18390  0.34040  Biso   1.000  C
  C37      1.0000 0.90430  0.88080  0.74490  Biso   1.000  C
  C38      1.0000 0.09570  0.11920  0.25510  Biso   1.000  C
  H29      1.0000 0.98300  0.91700  0.74600  Biso   1.000  H
  H30      1.0000 0.01700  0.08300  0.25400  Biso   1.000  H
  N5       1.0000 0.72640  0.82170  0.79990  Biso   1.000  N
  N6       1.0000 0.27360  0.17830  0.20010  Biso   1.000  N
  N7       1.0000 0.85730  0.88550  0.82920  Biso   1.000  N
  N8       1.0000 0.14270  0.11450  0.17080  Biso   1.000  N
  C39      1.0000 0.63840  0.80360  0.87400  Biso   1.000  C
  C40      1.0000 0.36160  0.19640  0.12600  Biso   1.000  C
  H31      1.0000 0.69100  0.85700  0.93400  Biso   1.000  H
  H32      1.0000 0.30900  0.14300  0.06600  Biso   1.000  H
  H33      1.0000 0.61400  0.84700  0.86400  Biso   1.000  H
  H34      1.0000 0.38600  0.15300  0.13600  Biso   1.000  H
  C41      1.0000 0.57380  0.68920  0.88180  Biso   1.000  C
  C42      1.0000 0.42620  0.31080  0.11820  Biso   1.000  C
  H35      1.0000 0.63880  0.65690  0.89280  Biso   1.000  H
  H36      1.0000 0.36120  0.34310  0.10720  Biso   1.000  H
  H37      1.0000 0.50940  0.64570  0.81900  Biso   1.000  H
  H38      1.0000 0.49060  0.35430  0.18100  Biso   1.000  H
  C43      1.0000 0.49750  0.69030  0.98280  Biso   1.000  C
  C44      1.0000 0.50250  0.30970  0.01720  Biso   1.000  C
  H39      1.0000 0.54890  0.68340  0.04380  Biso   1.000  H
  H40      1.0000 0.45110  0.31660  0.95620  Biso   1.000  H
  H41      1.0000 0.48210  0.75810  0.99830  Biso   1.000  H
  H42      1.0000 0.51790  0.24190  0.00170  Biso   1.000  H
  C45      1.0000 0.42000  0.63000  0.96010  Biso   1.000  C
  C46      1.0000 0.58000  0.37000  0.03990  Biso   1.000  C
  H43      1.0000 0.36700  0.62200  0.01270  Biso   1.000  H
  H44      1.0000 0.63300  0.37800  0.98730  Biso   1.000  H
  H45      1.0000 0.43890  0.56420  0.94470  Biso   1.000  H
  H46      1.0000 0.56110  0.43580  0.05530  Biso   1.000  H
  H47      1.0000 0.37290  0.63800  0.89880  Biso   1.000  H
  H48      1.0000 0.62710  0.36200  0.10120  Biso   1.000  H
  C47      1.0000 0.69350  0.78000  0.69930  Biso   1.000  C
  C48      1.0000 0.30650  0.22000  0.30070  Biso   1.000  C
  H49      1.0000 0.61300  0.74400  0.66800  Biso   1.000  H
  H50      1.0000 0.38700  0.25600  0.33200  Biso   1.000  H
  C49      1.0000 0.65930  0.10600  0.77860  Biso   1.000  C
  C50      1.0000 0.34070  0.89400  0.22140  Biso   1.000  C
  H51      1.0000 0.70340  0.17130  0.83280  Biso   1.000  H
  H52      1.0000 0.29660  0.82870  0.16720  Biso   1.000  H
  H53      1.0000 0.71900  0.06950  0.76740  Biso   1.000  H
  H54      1.0000 0.28100  0.93050  0.23260  Biso   1.000  H
  H55      1.0000 0.58150  0.05490  0.79820  Biso   1.000  H
  H56      1.0000 0.41850  0.94510  0.20180  Biso   1.000  H
  C51      1.0000 0.62400  0.13380  0.69400  Biso   1.000  C
  C52      1.0000 0.37600  0.86620  0.30600  Biso   1.000  C
  H57      1.0000 0.56360  0.17030  0.70400  Biso   1.000  H
  H58      1.0000 0.43640  0.82970  0.29600  Biso   1.000  H
  H59      1.0000 0.70190  0.18490  0.67300  Biso   1.000  H
  H60      1.0000 0.29810  0.81510  0.32700  Biso   1.000  H
  C53      1.0000 0.57200  0.05200  0.63200  Biso   1.000  C
  C54      1.0000 0.42800  0.94800  0.36800  Biso   1.000  C
  H61      1.0000 0.63160  0.01490  0.64350  Biso   1.000  H
  H62      1.0000 0.36840  0.98510  0.35650  Biso   1.000  H
  H63      1.0000 0.49500  0.01170  0.66040  Biso   1.000  H
  H64      1.0000 0.50500  0.98830  0.33960  Biso   1.000  H
  C55      1.0000 0.53700  0.02500  0.55600  Biso   1.000  C
  C56      1.0000 0.46300  0.97500  0.44400  Biso   1.000  C
  H65      1.0000 0.60190  0.99310  0.54730  Biso   1.000  H
  H66      1.0000 0.39810  0.00690  0.45270  Biso   1.000  H
  H67      1.0000 0.57950  0.09910  0.54260  Biso   1.000  H
  H68      1.0000 0.42050  0.90090  0.45740  Biso   1.000  H
