data_image0
_cell_length_a       10.8114
_cell_length_b       13.26
_cell_length_c       13.415
_cell_angle_alpha    99.515
_cell_angle_beta     95.225
_cell_angle_gamma    114.016

_symmetry_space_group_name_H-M    "P 1"
_symmetry_int_tables_number       1

loop_
  _symmetry_equiv_pos_as_xyz
  'x, y, z'

loop_
  _atom_site_label
  _atom_site_occupancy
  _atom_site_fract_x
  _atom_site_fract_y
  _atom_site_fract_z
  _atom_site_thermal_displace_type
  _atom_site_B_iso_or_equiv
  _atom_site_type_symbol
  Cu1      1.0000 0.50000  0.50000  0.50000  Biso   1.000  Cu
  O1       1.0000 0.35860  0.46912  0.37815  Biso   1.000  O
  O2       1.0000 0.64140  0.53088  0.62185  Biso   1.000  O
  C1       1.0000 0.20050  0.48610  0.26120  Biso   1.000  C
  C2       1.0000 0.79950  0.51390  0.73880  Biso   1.000  C
  F1       1.0000 0.29170  0.53380  0.20580  Biso   1.000  F
  F2       1.0000 0.70830  0.46620  0.79420  Biso   1.000  F
  F3       1.0000 0.10180  0.52090  0.25184  Biso   1.000  F
  F4       1.0000 0.89820  0.47910  0.74816  Biso   1.000  F
  F5       1.0000 0.13900  0.36800  0.22000  Biso   1.000  F
  F6       1.0000 0.86100  0.63200  0.78000  Biso   1.000  F
  F7       1.0000 0.28990  0.54510  0.20610  Biso   1.000  F
  F8       1.0000 0.71010  0.45490  0.79390  Biso   1.000  F
  F9       1.0000 0.15500  0.38700  0.21000  Biso   1.000  F
  F10      1.0000 0.84500  0.61300  0.79000  Biso   1.000  F
  C3       1.0000 0.26950  0.50660  0.37150  Biso   1.000  C
  C4       1.0000 0.73050  0.49340  0.62850  Biso   1.000  C
  C5       1.0000 0.22930  0.56380  0.44800  Biso   1.000  C
  C6       1.0000 0.77070  0.43620  0.55200  Biso   1.000  C
  H1       1.0000 0.15950  0.58680  0.42960  Biso   1.000  H
  H2       1.0000 0.84050  0.41320  0.57040  Biso   1.000  H
  C7       1.0000 0.28760  0.58900  0.55130  Biso   1.000  C
  C8       1.0000 0.71240  0.41100  0.44870  Biso   1.000  C
  C9       1.0000 0.24170  0.65950  0.62830  Biso   1.000  C
  C10      1.0000 0.75830  0.34050  0.37170  Biso   1.000  C
  F11      1.0000 0.15650  0.68820  0.59420  Biso   1.000  F
  F12      1.0000 0.84350  0.31180  0.40580  Biso   1.000  F
  F13      1.0000 0.36050  0.75690  0.66740  Biso   1.000  F
  F14      1.0000 0.63950  0.24310  0.33260  Biso   1.000  F
  F15      1.0000 0.21500  0.61000  0.70340  Biso   1.000  F
  F16      1.0000 0.78500  0.39000  0.29660  Biso   1.000  F
  F17      1.0000 0.22900  0.63300  0.72150  Biso   1.000  F
  F18      1.0000 0.77100  0.36700  0.27850  Biso   1.000  F
  F19      1.0000 0.30930  0.76740  0.64310  Biso   1.000  F
  F20      1.0000 0.69070  0.23260  0.35690  Biso   1.000  F
  F21      1.0000 0.10090  0.63900  0.59370  Biso   1.000  F
  F22      1.0000 0.89910  0.36100  0.40630  Biso   1.000  F
  O3       1.0000 0.37540  0.56188  0.59088  Biso   1.000  O
  O4       1.0000 0.62460  0.43812  0.40912  Biso   1.000  O
  Cu2      1.0000 0.00000  0.00000  0.00000  Biso   1.000  Cu
  O5       1.0000 0.03220  0.14304  0.95830  Biso   1.000  O
  O6       1.0000 0.96780  0.85696  0.04170  Biso   1.000  O
  C11      1.0000 0.03350  0.31980  0.95880  Biso   1.000  C
  C12      1.0000 0.96650  0.68020  0.04120  Biso   1.000  C
  F23      1.0000 0.16800  0.36130  0.95280  Biso   1.000  F
  F24      1.0000 0.83200  0.63870  0.04720  Biso   1.000  F
  F25      1.0000 0.00650  0.39980  0.01940  Biso   1.000  F
  F26      1.0000 0.99350  0.60020  0.98060  Biso   1.000  F
  F27      1.0000 0.97900  0.30810  0.86260  Biso   1.000  F
  F28      1.0000 0.02100  0.69190  0.13740  Biso   1.000  F
  F29      1.0000 0.98760  0.30490  0.86090  Biso   1.000  F
  F30      1.0000 0.01240  0.69510  0.13910  Biso   1.000  F
  F31      1.0000 0.16720  0.36670  0.98270  Biso   1.000  F
  F32      1.0000 0.83280  0.63330  0.01730  Biso   1.000  F
  F33      1.0000 0.99740  0.39100  0.00530  Biso   1.000  F
  F34      1.0000 0.00260  0.60900  0.99470  Biso   1.000  F
  C13      1.0000 0.97700  0.20610  0.99070  Biso   1.000  C
  C14      1.0000 0.02300  0.79390  0.00930  Biso   1.000  C
  C15      1.0000 0.87060  0.18250  0.04770  Biso   1.000  C
  C16      1.0000 0.12940  0.81750  0.95230  Biso   1.000  C
  H3       1.0000 0.83900  0.23860  0.06830  Biso   1.000  H
  H4       1.0000 0.16100  0.76140  0.93170  Biso   1.000  H
  C17      1.0000 0.81040  0.07960  0.07480  Biso   1.000  C
  C18      1.0000 0.18960  0.92040  0.92520  Biso   1.000  C
  C19      1.0000 0.68650  0.05410  0.12910  Biso   1.000  C
  C20      1.0000 0.31350  0.94590  0.87090  Biso   1.000  C
  F35      1.0000 0.72400  0.05500  0.23300  Biso   1.000  F
  F36      1.0000 0.27600  0.94500  0.76700  Biso   1.000  F
  F37      1.0000 0.59100  0.95100  0.08910  Biso   1.000  F
  F38      1.0000 0.40900  0.04900  0.91090  Biso   1.000  F
  F39      1.0000 0.63100  0.13000  0.13590  Biso   1.000  F
  F40      1.0000 0.36900  0.87000  0.86410  Biso   1.000  F
  F41      1.0000 0.65200  0.14000  0.13500  Biso   1.000  F
  F42      1.0000 0.34800  0.86000  0.86500  Biso   1.000  F
  F43      1.0000 0.71200  0.03700  0.21700  Biso   1.000  F
  F44      1.0000 0.28800  0.96300  0.78300  Biso   1.000  F
  F45      1.0000 0.57300  0.96400  0.07060  Biso   1.000  F
  F46      1.0000 0.42700  0.03600  0.92940  Biso   1.000  F
  O7       1.0000 0.84340  0.99817  0.06064  Biso   1.000  O
  O8       1.0000 0.15660  0.00183  0.93936  Biso   1.000  O
  O9       1.0000 0.58300  0.66374  0.48591  Biso   1.000  O
  O10      1.0000 0.41700  0.33626  0.51409  Biso   1.000  O
  N1       1.0000 0.71120  0.71790  0.47504  Biso   1.000  N
  N2       1.0000 0.28880  0.28210  0.52496  Biso   1.000  N
  C21      1.0000 0.74820  0.73770  0.37270  Biso   1.000  C
  C22      1.0000 0.25180  0.26230  0.62730  Biso   1.000  C
  C23      1.0000 0.67490  0.63190  0.28870  Biso   1.000  C
  C24      1.0000 0.32510  0.36810  0.71130  Biso   1.000  C
  H5       1.0000 0.57600  0.61120  0.27770  Biso   1.000  H
  H6       1.0000 0.42400  0.38880  0.72230  Biso   1.000  H
  H7       1.0000 0.69120  0.56990  0.30870  Biso   1.000  H
  H8       1.0000 0.30880  0.43010  0.69130  Biso   1.000  H
  H9       1.0000 0.71000  0.64580  0.22500  Biso   1.000  H
  H10      1.0000 0.29000  0.35420  0.77500  Biso   1.000  H
  C25      1.0000 0.70470  0.82990  0.35150  Biso   1.000  C
  C26      1.0000 0.29530  0.17010  0.64850  Biso   1.000  C
  H11      1.0000 0.60410  0.79810  0.33570  Biso   1.000  H
  H12      1.0000 0.39590  0.20190  0.66430  Biso   1.000  H
  H13      1.0000 0.74330  0.85820  0.29300  Biso   1.000  H
  H14      1.0000 0.25670  0.14180  0.70700  Biso   1.000  H
  H15      1.0000 0.73880  0.89240  0.41230  Biso   1.000  H
  H16      1.0000 0.26120  0.10760  0.58770  Biso   1.000  H
  C27      1.0000 0.90680  0.78100  0.39870  Biso   1.000  C
  C28      1.0000 0.09320  0.21900  0.60130  Biso   1.000  C
  C29      1.0000 0.95350  0.68550  0.38650  Biso   1.000  C
  C30      1.0000 0.04650  0.31450  0.61350  Biso   1.000  C
  H17      1.0000 0.05400  0.71810  0.40390  Biso   1.000  H
  H18      1.0000 0.94600  0.28190  0.59610  Biso   1.000  H
  H19      1.0000 0.92350  0.64190  0.31540  Biso   1.000  H
  H20      1.0000 0.07650  0.35810  0.68460  Biso   1.000  H
  H21      1.0000 0.91280  0.63560  0.43260  Biso   1.000  H
  H22      1.0000 0.08720  0.36440  0.56740  Biso   1.000  H
  C31      1.0000 0.98860  0.87290  0.34660  Biso   1.000  C
  C32      1.0000 0.01140  0.12710  0.65340  Biso   1.000  C
  H23      1.0000 0.08690  0.89480  0.36710  Biso   1.000  H
  H24      1.0000 0.91310  0.10520  0.63290  Biso   1.000  H
  H25      1.0000 0.96940  0.93880  0.36680  Biso   1.000  H
  H26      1.0000 0.03060  0.06120  0.63320  Biso   1.000  H
  H27      1.0000 0.96250  0.84480  0.27190  Biso   1.000  H
  H28      1.0000 0.03750  0.15520  0.72810  Biso   1.000  H
  N3       1.0000 0.93030  0.82770  0.51214  Biso   1.000  N
  N4       1.0000 0.06970  0.17230  0.48786  Biso   1.000  N
  O11      1.0000 0.05010  0.89209  0.56361  Biso   1.000  O
  O12      1.0000 0.94990  0.10791  0.43639  Biso   1.000  O
  C33      1.0000 0.81390  0.78310  0.55230  Biso   1.000  C
  C34      1.0000 0.18610  0.21690  0.44770  Biso   1.000  C
  C35      1.0000 0.80550  0.80670  0.65910  Biso   1.000  C
  C36      1.0000 0.19450  0.19330  0.34090  Biso   1.000  C
  C37      1.0000 0.91010  0.87510  0.74360  Biso   1.000  C
  C38      1.0000 0.08990  0.12490  0.25640  Biso   1.000  C
  H29      1.0000 0.00420  0.91470  0.73880  Biso   1.000  H
  H30      1.0000 0.99580  0.08530  0.26120  Biso   1.000  H
  N5       1.0000 0.72360  0.80890  0.80288  Biso   1.000  N
  N6       1.0000 0.27640  0.19110  0.19712  Biso   1.000  N
  N7       1.0000 0.86170  0.87750  0.83045  Biso   1.000  N
  N8       1.0000 0.13830  0.12250  0.16955  Biso   1.000  N
  C39      1.0000 0.63560  0.78710  0.88070  Biso   1.000  C
  C40      1.0000 0.36440  0.21290  0.11930  Biso   1.000  C
  H31      1.0000 0.57860  0.82930  0.87680  Biso   1.000  H
  H32      1.0000 0.42140  0.17070  0.12320  Biso   1.000  H
  H33      1.0000 0.69430  0.81620  0.94950  Biso   1.000  H
  H34      1.0000 0.30570  0.18380  0.05050  Biso   1.000  H
  C41      1.0000 0.54410  0.66520  0.86870  Biso   1.000  C
  C42      1.0000 0.45590  0.33480  0.13130  Biso   1.000  C
  H35      1.0000 0.60040  0.62410  0.88150  Biso   1.000  H
  H36      1.0000 0.39960  0.37590  0.11850  Biso   1.000  H
  H37      1.0000 0.49290  0.63350  0.79730  Biso   1.000  H
  H38      1.0000 0.50710  0.36650  0.20270  Biso   1.000  H
  C43      1.0000 0.43410  0.64660  0.94900  Biso   1.000  C
  C44      1.0000 0.56590  0.35340  0.05100  Biso   1.000  C
  H39      1.0000 0.39440  0.70220  0.95160  Biso   1.000  H
  H40      1.0000 0.60560  0.29780  0.04840  Biso   1.000  H
  H41      1.0000 0.35880  0.56900  0.93020  Biso   1.000  H
  H42      1.0000 0.64120  0.43100  0.06980  Biso   1.000  H
  C45      1.0000 0.51660  0.66440  0.04070  Biso   1.000  C
  C46      1.0000 0.48340  0.33560  0.95930  Biso   1.000  C
  H43      1.0000 0.46160  0.65490  0.09550  Biso   1.000  H
  H44      1.0000 0.53840  0.34510  0.90450  Biso   1.000  H
  H45      1.0000 0.59080  0.74140  0.05680  Biso   1.000  H
  H46      1.0000 0.40920  0.25860  0.94320  Biso   1.000  H
  H47      1.0000 0.55630  0.60960  0.03510  Biso   1.000  H
  H48      1.0000 0.44370  0.39040  0.96490  Biso   1.000  H
  C47      1.0000 0.68750  0.76630  0.70250  Biso   1.000  C
  C48      1.0000 0.31250  0.23370  0.29750  Biso   1.000  C
  H49      1.0000 0.59720  0.71710  0.66660  Biso   1.000  H
  H50      1.0000 0.40280  0.28290  0.33340  Biso   1.000  H
  C49      1.0000 0.66580  0.04560  0.77590  Biso   1.000  C
  C50      1.0000 0.33420  0.95440  0.22410  Biso   1.000  C
  H51      1.0000 0.67380  0.06190  0.85080  Biso   1.000  H
  H52      1.0000 0.32620  0.93810  0.14920  Biso   1.000  H
  H53      1.0000 0.75210  0.04690  0.75770  Biso   1.000  H
  H54      1.0000 0.24790  0.95310  0.24230  Biso   1.000  H
  H55      1.0000 0.59050  0.97060  0.74640  Biso   1.000  H
  H56      1.0000 0.40950  0.02940  0.25360  Biso   1.000  H
  C51      1.0000 0.63610  0.13460  0.73370  Biso   1.000  C
  C52      1.0000 0.36390  0.86540  0.26630  Biso   1.000  C
  H57      1.0000 0.71160  0.21010  0.76540  Biso   1.000  H
  H58      1.0000 0.28840  0.78990  0.23460  Biso   1.000  H
  H59      1.0000 0.55020  0.13400  0.75430  Biso   1.000  H
  H60      1.0000 0.44980  0.86600  0.24570  Biso   1.000  H
  C53      1.0000 0.62130  0.11750  0.61760  Biso   1.000  C
  C54      1.0000 0.37870  0.88250  0.38240  Biso   1.000  C
  H61      1.0000 0.60130  0.17850  0.59710  Biso   1.000  H
  H62      1.0000 0.39870  0.82150  0.40290  Biso   1.000  H
  H63      1.0000 0.71050  0.12590  0.59800  Biso   1.000  H
  H64      1.0000 0.28950  0.87410  0.40200  Biso   1.000  H
  C55      1.0000 0.51070  0.00470  0.55760  Biso   1.000  C
  C56      1.0000 0.48930  0.99530  0.44240  Biso   1.000  C
  H65      1.0000 0.42290  0.99260  0.58170  Biso   1.000  H
  H66      1.0000 0.57710  0.00740  0.41830  Biso   1.000  H
  H67      1.0000 0.53550  0.94380  0.57210  Biso   1.000  H
  H68      1.0000 0.46450  0.05620  0.42790  Biso   1.000  H
