data_image0
_cell_length_a       11.0009
_cell_length_b       13.3437
_cell_length_c       13.4475
_cell_angle_alpha    98.807
_cell_angle_beta     96.408
_cell_angle_gamma    112.541

_symmetry_space_group_name_H-M    "P 1"
_symmetry_int_tables_number       1

loop_
  _symmetry_equiv_pos_as_xyz
  'x, y, z'

loop_
  _atom_site_label
  _atom_site_occupancy
  _atom_site_fract_x
  _atom_site_fract_y
  _atom_site_fract_z
  _atom_site_thermal_displace_type
  _atom_site_B_iso_or_equiv
  _atom_site_type_symbol
  Cu1      1.0000 0.50000  0.50000  0.50000  Biso   1.000  Cu
  O1       1.0000 0.37286  0.47255  0.37368  Biso   1.000  O
  O2       1.0000 0.62714  0.52745  0.62632  Biso   1.000  O
  C1       1.0000 0.20770  0.48290  0.25600  Biso   1.000  C
  C2       1.0000 0.79230  0.51710  0.74400  Biso   1.000  C
  F1       1.0000 0.28860  0.53950  0.20000  Biso   1.000  F
  F2       1.0000 0.71140  0.46050  0.80000  Biso   1.000  F
  F3       1.0000 0.12130  0.51000  0.24600  Biso   1.000  F
  F4       1.0000 0.87870  0.49000  0.75400  Biso   1.000  F
  F5       1.0000 0.15590  0.36900  0.21000  Biso   1.000  F
  F6       1.0000 0.84410  0.63100  0.79000  Biso   1.000  F
  F7       1.0000 0.29430  0.52300  0.19690  Biso   1.000  F
  F8       1.0000 0.70570  0.47700  0.80310  Biso   1.000  F
  F9       1.0000 0.10650  0.52740  0.24740  Biso   1.000  F
  F10      1.0000 0.89350  0.47260  0.75260  Biso   1.000  F
  F11      1.0000 0.15440  0.38920  0.22060  Biso   1.000  F
  F12      1.0000 0.84560  0.61080  0.77940  Biso   1.000  F
  C3       1.0000 0.28090  0.50620  0.36610  Biso   1.000  C
  C4       1.0000 0.71910  0.49380  0.63390  Biso   1.000  C
  C5       1.0000 0.24030  0.56010  0.44340  Biso   1.000  C
  C6       1.0000 0.75970  0.43990  0.55660  Biso   1.000  C
  H1       1.0000 0.16860  0.58110  0.42620  Biso   1.000  H
  H2       1.0000 0.83140  0.41890  0.57380  Biso   1.000  H
  C7       1.0000 0.30140  0.58420  0.54500  Biso   1.000  C
  C8       1.0000 0.69860  0.41580  0.45500  Biso   1.000  C
  C9       1.0000 0.25480  0.64890  0.62510  Biso   1.000  C
  C10      1.0000 0.74520  0.35110  0.37490  Biso   1.000  C
  F13      1.0000 0.16770  0.68180  0.59230  Biso   1.000  F
  F14      1.0000 0.83230  0.31820  0.40770  Biso   1.000  F
  F15      1.0000 0.36590  0.74740  0.67200  Biso   1.000  F
  F16      1.0000 0.63410  0.25260  0.32800  Biso   1.000  F
  F17      1.0000 0.22800  0.60250  0.70100  Biso   1.000  F
  F18      1.0000 0.77200  0.39750  0.29900  Biso   1.000  F
  F19      1.0000 0.25560  0.61580  0.70990  Biso   1.000  F
  F20      1.0000 0.74440  0.38420  0.29010  Biso   1.000  F
  F21      1.0000 0.30670  0.74820  0.63270  Biso   1.000  F
  F22      1.0000 0.69330  0.25180  0.36730  Biso   1.000  F
  F23      1.0000 0.11700  0.61850  0.59400  Biso   1.000  F
  F24      1.0000 0.88300  0.38150  0.40600  Biso   1.000  F
  O3       1.0000 0.39425  0.56058  0.58214  Biso   1.000  O
  O4       1.0000 0.60575  0.43942  0.41786  Biso   1.000  O
  Cu2      1.0000 0.00000  0.00000  0.00000  Biso   1.000  Cu
  O5       1.0000 0.96800  0.85870  0.04384  Biso   1.000  O
  O6       1.0000 0.03200  0.14130  0.95616  Biso   1.000  O
  C11      1.0000 0.96710  0.68410  0.04790  Biso   1.000  C
  C12      1.0000 0.03290  0.31590  0.95210  Biso   1.000  C
  F25      1.0000 0.84180  0.65020  0.05860  Biso   1.000  F
  F26      1.0000 0.15820  0.34980  0.94140  Biso   1.000  F
  F27      1.0000 0.98270  0.60630  0.98600  Biso   1.000  F
  F28      1.0000 0.01730  0.39370  0.01400  Biso   1.000  F
  F29      1.0000 0.04350  0.70140  0.14690  Biso   1.000  F
  F30      1.0000 0.95650  0.29860  0.85310  Biso   1.000  F
  F31      1.0000 0.99060  0.69260  0.14090  Biso   1.000  F
  F32      1.0000 0.00940  0.30740  0.85910  Biso   1.000  F
  F33      1.0000 0.83560  0.63740  0.02150  Biso   1.000  F
  F34      1.0000 0.16440  0.36260  0.97850  Biso   1.000  F
  F35      1.0000 0.00680  0.60860  0.00630  Biso   1.000  F
  F36      1.0000 0.99320  0.39140  0.99370  Biso   1.000  F
  C13      1.0000 0.02050  0.79460  0.01280  Biso   1.000  C
  C14      1.0000 0.97950  0.20540  0.98720  Biso   1.000  C
  C15      1.0000 0.12220  0.81420  0.95530  Biso   1.000  C
  C16      1.0000 0.87780  0.18580  0.04470  Biso   1.000  C
  H3       1.0000 0.15220  0.75740  0.93630  Biso   1.000  H
  H4       1.0000 0.84780  0.24260  0.06370  Biso   1.000  H
  C17      1.0000 0.18010  0.91310  0.92560  Biso   1.000  C
  C18      1.0000 0.81990  0.08690  0.07440  Biso   1.000  C
  C19      1.0000 0.29760  0.93210  0.86890  Biso   1.000  C
  C20      1.0000 0.70240  0.06790  0.13110  Biso   1.000  C
  F37      1.0000 0.26500  0.94150  0.78940  Biso   1.000  F
  F38      1.0000 0.73500  0.05850  0.21060  Biso   1.000  F
  F39      1.0000 0.39900  0.03190  0.90410  Biso   1.000  F
  F40      1.0000 0.60100  0.96810  0.09590  Biso   1.000  F
  F41      1.0000 0.34940  0.85900  0.87250  Biso   1.000  F
  F42      1.0000 0.65060  0.14100  0.12750  Biso   1.000  F
  F43      1.0000 0.32700  0.84590  0.85020  Biso   1.000  F
  F44      1.0000 0.67300  0.15410  0.14980  Biso   1.000  F
  F45      1.0000 0.27080  0.94660  0.76570  Biso   1.000  F
  F46      1.0000 0.72920  0.05340  0.23430  Biso   1.000  F
  F47      1.0000 0.40290  0.01080  0.92670  Biso   1.000  F
  F48      1.0000 0.59710  0.98920  0.07330  Biso   1.000  F
  O7       1.0000 0.14990  0.99580  0.93901  Biso   1.000  O
  O8       1.0000 0.85010  0.00420  0.06099  Biso   1.000  O
  O9       1.0000 0.59511  0.68146  0.48133  Biso   1.000  O
  O10      1.0000 0.40489  0.31854  0.51867  Biso   1.000  O
  N1       1.0000 0.72020  0.73219  0.47406  Biso   1.000  N
  N2       1.0000 0.27980  0.26781  0.52594  Biso   1.000  N
  C21      1.0000 0.76140  0.74830  0.37300  Biso   1.000  C
  C22      1.0000 0.23860  0.25170  0.62700  Biso   1.000  C
  C23      1.0000 0.68920  0.64180  0.29140  Biso   1.000  C
  C24      1.0000 0.31080  0.35820  0.70860  Biso   1.000  C
  H5       1.0000 0.59360  0.62580  0.27620  Biso   1.000  H
  H6       1.0000 0.40640  0.37420  0.72380  Biso   1.000  H
  H7       1.0000 0.70070  0.58020  0.31650  Biso   1.000  H
  H8       1.0000 0.29930  0.41980  0.68350  Biso   1.000  H
  H9       1.0000 0.72680  0.65080  0.22900  Biso   1.000  H
  H10      1.0000 0.27320  0.34920  0.77100  Biso   1.000  H
  C25      1.0000 0.72190  0.83980  0.34430  Biso   1.000  C
  C26      1.0000 0.27810  0.16020  0.65570  Biso   1.000  C
  H11      1.0000 0.62420  0.81080  0.32510  Biso   1.000  H
  H12      1.0000 0.37580  0.18920  0.67490  Biso   1.000  H
  H13      1.0000 0.76270  0.86450  0.28640  Biso   1.000  H
  H14      1.0000 0.23730  0.13550  0.71360  Biso   1.000  H
  H15      1.0000 0.75350  0.90270  0.40300  Biso   1.000  H
  H16      1.0000 0.24650  0.09730  0.59700  Biso   1.000  H
  C27      1.0000 0.91490  0.78540  0.40380  Biso   1.000  C
  C28      1.0000 0.08510  0.21460  0.59620  Biso   1.000  C
  C29      1.0000 0.95990  0.69000  0.39600  Biso   1.000  C
  C30      1.0000 0.04010  0.31000  0.60400  Biso   1.000  C
  H17      1.0000 0.05740  0.71990  0.41740  Biso   1.000  H
  H18      1.0000 0.94260  0.28010  0.58260  Biso   1.000  H
  H19      1.0000 0.93430  0.64790  0.32500  Biso   1.000  H
  H20      1.0000 0.06570  0.35210  0.67500  Biso   1.000  H
  H21      1.0000 0.91680  0.64080  0.44070  Biso   1.000  H
  H22      1.0000 0.08320  0.35920  0.55930  Biso   1.000  H
  C31      1.0000 0.99980  0.87480  0.35300  Biso   1.000  C
  C32      1.0000 0.00020  0.12520  0.64700  Biso   1.000  C
  H23      1.0000 0.09480  0.89320  0.37700  Biso   1.000  H
  H24      1.0000 0.90520  0.10680  0.62300  Biso   1.000  H
  H25      1.0000 0.98200  0.94130  0.37080  Biso   1.000  H
  H26      1.0000 0.01800  0.05870  0.62920  Biso   1.000  H
  H27      1.0000 0.97740  0.84780  0.27860  Biso   1.000  H
  H28      1.0000 0.02260  0.15220  0.72140  Biso   1.000  H
  N3       1.0000 0.93500  0.83165  0.51640  Biso   1.000  N
  N4       1.0000 0.06500  0.16835  0.48360  Biso   1.000  N
  O11      1.0000 0.05150  0.89042  0.57068  Biso   1.000  O
  O12      1.0000 0.94850  0.10958  0.42932  Biso   1.000  O
  C33      1.0000 0.82000  0.79260  0.55310  Biso   1.000  C
  C34      1.0000 0.18000  0.20740  0.44690  Biso   1.000  C
  C35      1.0000 0.80820  0.81460  0.65890  Biso   1.000  C
  C36      1.0000 0.19180  0.18540  0.34110  Biso   1.000  C
  C37      1.0000 0.90890  0.88000  0.74450  Biso   1.000  C
  C38      1.0000 0.09110  0.12000  0.25550  Biso   1.000  C
  H29      1.0000 0.00090  0.91750  0.74140  Biso   1.000  H
  H30      1.0000 0.99910  0.08250  0.25860  Biso   1.000  H
  N5       1.0000 0.72590  0.81770  0.80057  Biso   1.000  N
  N6       1.0000 0.27410  0.18230  0.19943  Biso   1.000  N
  N7       1.0000 0.85950  0.88300  0.83002  Biso   1.000  N
  N8       1.0000 0.14050  0.11700  0.16998  Biso   1.000  N
  C39      1.0000 0.63800  0.79740  0.87640  Biso   1.000  C
  C40      1.0000 0.36200  0.20260  0.12360  Biso   1.000  C
  H31      1.0000 0.55820  0.81050  0.85180  Biso   1.000  H
  H32      1.0000 0.44180  0.18950  0.14820  Biso   1.000  H
  H33      1.0000 0.68610  0.85240  0.94120  Biso   1.000  H
  H34      1.0000 0.31390  0.14760  0.05880  Biso   1.000  H
  C41      1.0000 0.59100  0.68160  0.89910  Biso   1.000  C
  C42      1.0000 0.40900  0.31840  0.10090  Biso   1.000  C
  H35      1.0000 0.66850  0.66230  0.91360  Biso   1.000  H
  H36      1.0000 0.33150  0.33770  0.08640  Biso   1.000  H
  H37      1.0000 0.52770  0.62650  0.83890  Biso   1.000  H
  H38      1.0000 0.47230  0.37350  0.16110  Biso   1.000  H
  C43      1.0000 0.52180  0.67950  0.99190  Biso   1.000  C
  C44      1.0000 0.47820  0.32050  0.00810  Biso   1.000  C
  H39      1.0000 0.55550  0.64270  0.04000  Biso   1.000  H
  H40      1.0000 0.44450  0.35730  0.96000  Biso   1.000  H
  H41      1.0000 0.54450  0.75660  0.02790  Biso   1.000  H
  H42      1.0000 0.45550  0.24340  0.97210  Biso   1.000  H
  C45      1.0000 0.37480  0.62000  0.96170  Biso   1.000  C
  C46      1.0000 0.62520  0.38000  0.03830  Biso   1.000  C
  H43      1.0000 0.33440  0.61620  0.02310  Biso   1.000  H
  H44      1.0000 0.66560  0.38380  0.97690  Biso   1.000  H
  H45      1.0000 0.35220  0.54450  0.92340  Biso   1.000  H
  H46      1.0000 0.64780  0.45550  0.07660  Biso   1.000  H
  H47      1.0000 0.34030  0.65960  0.91850  Biso   1.000  H
  H48      1.0000 0.65970  0.34040  0.08150  Biso   1.000  H
  C47      1.0000 0.55800  0.68200  0.86680  Biso   1.000  C
  C48      1.0000 0.44200  0.31800  0.13320  Biso   1.000  C
  H49      1.0000 0.61820  0.64400  0.87850  Biso   1.000  H
  H50      1.0000 0.38180  0.35600  0.12150  Biso   1.000  H
  H51      1.0000 0.50720  0.65090  0.79570  Biso   1.000  H
  H52      1.0000 0.49280  0.34910  0.20430  Biso   1.000  H
  C49      1.0000 0.45820  0.65560  0.94070  Biso   1.000  C
  C50      1.0000 0.54180  0.34440  0.05930  Biso   1.000  C
  H53      1.0000 0.40350  0.69900  0.93330  Biso   1.000  H
  H54      1.0000 0.59650  0.30100  0.06670  Biso   1.000  H
  H55      1.0000 0.39680  0.57600  0.91940  Biso   1.000  H
  H56      1.0000 0.60320  0.42400  0.08060  Biso   1.000  H
  C51      1.0000 0.51860  0.67880  0.05130  Biso   1.000  C
  C52      1.0000 0.48140  0.32120  0.94870  Biso   1.000  C
  H57      1.0000 0.45110  0.67860  0.09320  Biso   1.000  H
  H58      1.0000 0.54890  0.32140  0.90680  Biso   1.000  H
  H59      1.0000 0.59440  0.75170  0.06970  Biso   1.000  H
  H60      1.0000 0.40560  0.24830  0.93030  Biso   1.000  H
  H61      1.0000 0.54990  0.62140  0.06360  Biso   1.000  H
  H62      1.0000 0.45010  0.37860  0.93640  Biso   1.000  H
  C53      1.0000 0.69230  0.77670  0.69990  Biso   1.000  C
  C54      1.0000 0.30770  0.22330  0.30010  Biso   1.000  C
  H63      1.0000 0.60480  0.72990  0.66280  Biso   1.000  H
  H64      1.0000 0.39520  0.27010  0.33720  Biso   1.000  H
  C55      1.0000 0.66060  0.05400  0.77280  Biso   1.000  C
  C56      1.0000 0.33940  0.94600  0.22720  Biso   1.000  C
  H65      1.0000 0.67290  0.06390  0.84750  Biso   1.000  H
  H66      1.0000 0.32710  0.93610  0.15250  Biso   1.000  H
  H67      1.0000 0.74360  0.05730  0.75040  Biso   1.000  H
  H68      1.0000 0.25640  0.94270  0.24960  Biso   1.000  H
  H69      1.0000 0.58770  0.98170  0.74110  Biso   1.000  H
  H70      1.0000 0.41230  0.01830  0.25890  Biso   1.000  H
  C57      1.0000 0.62910  0.13780  0.74370  Biso   1.000  C
  C58      1.0000 0.37090  0.86220  0.25630  Biso   1.000  C
  H71      1.0000 0.70040  0.21140  0.77750  Biso   1.000  H
  H72      1.0000 0.29960  0.78860  0.22250  Biso   1.000  H
  H73      1.0000 0.54370  0.13370  0.76380  Biso   1.000  H
  H74      1.0000 0.45630  0.86630  0.23620  Biso   1.000  H
  C59      1.0000 0.61500  0.12000  0.61730  Biso   1.000  C
  C60      1.0000 0.38500  0.88000  0.38270  Biso   1.000  C
  H75      1.0000 0.58340  0.17380  0.59310  Biso   1.000  H
  H76      1.0000 0.41660  0.82620  0.40690  Biso   1.000  H
  H77      1.0000 0.70380  0.13400  0.59870  Biso   1.000  H
  H78      1.0000 0.29620  0.86600  0.40130  Biso   1.000  H
  C61      1.0000 0.52470  0.01180  0.56990  Biso   1.000  C
  C62      1.0000 0.47530  0.98820  0.43010  Biso   1.000  C
  H79      1.0000 0.44300  0.99370  0.60040  Biso   1.000  H
  H80      1.0000 0.55700  0.00630  0.39960  Biso   1.000  H
  H81      1.0000 0.56520  0.95990  0.58510  Biso   1.000  H
  H82      1.0000 0.43480  0.04010  0.41490  Biso   1.000  H
