data_image0
_cell_length_a       10.9007
_cell_length_b       13.296
_cell_length_c       13.41
_cell_angle_alpha    99.156
_cell_angle_beta     95.855
_cell_angle_gamma    113.21

_symmetry_space_group_name_H-M    "P 1"
_symmetry_int_tables_number       1

loop_
  _symmetry_equiv_pos_as_xyz
  'x, y, z'

loop_
  _atom_site_label
  _atom_site_occupancy
  _atom_site_fract_x
  _atom_site_fract_y
  _atom_site_fract_z
  _atom_site_thermal_displace_type
  _atom_site_B_iso_or_equiv
  _atom_site_type_symbol
  Cu1      1.0000 0.50000  0.50000  0.50000  Biso   1.000  Cu
  O1       1.0000 0.36692  0.47124  0.37496  Biso   1.000  O
  O2       1.0000 0.63308  0.52876  0.62504  Biso   1.000  O
  C1       1.0000 0.20470  0.48470  0.25820  Biso   1.000  C
  C2       1.0000 0.79530  0.51530  0.74180  Biso   1.000  C
  F1       1.0000 0.29340  0.54770  0.20140  Biso   1.000  F
  F2       1.0000 0.70660  0.45230  0.79860  Biso   1.000  F
  F3       1.0000 0.11600  0.51220  0.24250  Biso   1.000  F
  F4       1.0000 0.88400  0.48780  0.75750  Biso   1.000  F
  F5       1.0000 0.15400  0.37700  0.21190  Biso   1.000  F
  F6       1.0000 0.84600  0.62300  0.78810  Biso   1.000  F
  F7       1.0000 0.29060  0.52520  0.20040  Biso   1.000  F
  F8       1.0000 0.70940  0.47480  0.79960  Biso   1.000  F
  F9       1.0000 0.10130  0.53030  0.25650  Biso   1.000  F
  F10      1.0000 0.89870  0.46970  0.74350  Biso   1.000  F
  F11      1.0000 0.14470  0.37820  0.21980  Biso   1.000  F
  F12      1.0000 0.85530  0.62180  0.78020  Biso   1.000  F
  C3       1.0000 0.27600  0.50630  0.36720  Biso   1.000  C
  C4       1.0000 0.72400  0.49370  0.63280  Biso   1.000  C
  C5       1.0000 0.23600  0.56220  0.44540  Biso   1.000  C
  C6       1.0000 0.76400  0.43780  0.55460  Biso   1.000  C
  H1       1.0000 0.16530  0.58460  0.42830  Biso   1.000  H
  H2       1.0000 0.83470  0.41540  0.57170  Biso   1.000  H
  C7       1.0000 0.29660  0.58610  0.54760  Biso   1.000  C
  C8       1.0000 0.70340  0.41390  0.45240  Biso   1.000  C
  C9       1.0000 0.24980  0.65150  0.62690  Biso   1.000  C
  C10      1.0000 0.75020  0.34850  0.37310  Biso   1.000  C
  F13      1.0000 0.16170  0.68340  0.59410  Biso   1.000  F
  F14      1.0000 0.83830  0.31660  0.40590  Biso   1.000  F
  F15      1.0000 0.36380  0.75200  0.67280  Biso   1.000  F
  F16      1.0000 0.63620  0.24800  0.32720  Biso   1.000  F
  F17      1.0000 0.22300  0.60550  0.70360  Biso   1.000  F
  F18      1.0000 0.77700  0.39450  0.29640  Biso   1.000  F
  F19      1.0000 0.24290  0.61840  0.71330  Biso   1.000  F
  F20      1.0000 0.75710  0.38160  0.28670  Biso   1.000  F
  F21      1.0000 0.30900  0.75390  0.63540  Biso   1.000  F
  F22      1.0000 0.69100  0.24610  0.36460  Biso   1.000  F
  F23      1.0000 0.11320  0.62540  0.59610  Biso   1.000  F
  F24      1.0000 0.88680  0.37460  0.40390  Biso   1.000  F
  O3       1.0000 0.38710  0.56054  0.58521  Biso   1.000  O
  O4       1.0000 0.61290  0.43946  0.41479  Biso   1.000  O
  Cu2      1.0000 0.00000  0.00000  0.00000  Biso   1.000  Cu
  O5       1.0000 0.96891  0.85800  0.04359  Biso   1.000  O
  O6       1.0000 0.03109  0.14200  0.95641  Biso   1.000  O
  C11      1.0000 0.97120  0.68320  0.04620  Biso   1.000  C
  C12      1.0000 0.02880  0.31680  0.95380  Biso   1.000  C
  F25      1.0000 0.83970  0.64620  0.05720  Biso   1.000  F
  F26      1.0000 0.16030  0.35380  0.94280  Biso   1.000  F
  F27      1.0000 0.98430  0.60450  0.98590  Biso   1.000  F
  F28      1.0000 0.01570  0.39550  0.01410  Biso   1.000  F
  F29      1.0000 0.04860  0.70210  0.14420  Biso   1.000  F
  F30      1.0000 0.95140  0.29790  0.85580  Biso   1.000  F
  F31      1.0000 0.99660  0.69260  0.13980  Biso   1.000  F
  F32      1.0000 0.00340  0.30740  0.86020  Biso   1.000  F
  F33      1.0000 0.83860  0.63680  0.02210  Biso   1.000  F
  F34      1.0000 0.16140  0.36320  0.97790  Biso   1.000  F
  F35      1.0000 0.01290  0.61040  0.00170  Biso   1.000  F
  F36      1.0000 0.98710  0.38960  0.99830  Biso   1.000  F
  C13      1.0000 0.02370  0.79510  0.01230  Biso   1.000  C
  C14      1.0000 0.97630  0.20490  0.98770  Biso   1.000  C
  C15      1.0000 0.12750  0.81660  0.95430  Biso   1.000  C
  C16      1.0000 0.87250  0.18340  0.04570  Biso   1.000  C
  H3       1.0000 0.15850  0.76030  0.93420  Biso   1.000  H
  H4       1.0000 0.84150  0.23970  0.06580  Biso   1.000  H
  C17      1.0000 0.18540  0.91740  0.92570  Biso   1.000  C
  C18      1.0000 0.81460  0.08260  0.07430  Biso   1.000  C
  C19      1.0000 0.30600  0.93920  0.86990  Biso   1.000  C
  C20      1.0000 0.69400  0.06080  0.13010  Biso   1.000  C
  F37      1.0000 0.26600  0.94200  0.78200  Biso   1.000  F
  F38      1.0000 0.73400  0.05800  0.21800  Biso   1.000  F
  F39      1.0000 0.40800  0.04060  0.91040  Biso   1.000  F
  F40      1.0000 0.59200  0.95940  0.08960  Biso   1.000  F
  F41      1.0000 0.35550  0.86470  0.87170  Biso   1.000  F
  F42      1.0000 0.64450  0.13530  0.12830  Biso   1.000  F
  F43      1.0000 0.34420  0.85400  0.85520  Biso   1.000  F
  F44      1.0000 0.65580  0.14600  0.14480  Biso   1.000  F
  F45      1.0000 0.28100  0.95310  0.77000  Biso   1.000  F
  F46      1.0000 0.71900  0.04690  0.23000  Biso   1.000  F
  F47      1.0000 0.41060  0.02570  0.92420  Biso   1.000  F
  F48      1.0000 0.58940  0.97430  0.07580  Biso   1.000  F
  O7       1.0000 0.15285  0.99883  0.93907  Biso   1.000  O
  O8       1.0000 0.84715  0.00117  0.06093  Biso   1.000  O
  O9       1.0000 0.59020  0.67403  0.48303  Biso   1.000  O
  O10      1.0000 0.40980  0.32597  0.51697  Biso   1.000  O
  N1       1.0000 0.71690  0.72656  0.47463  Biso   1.000  N
  N2       1.0000 0.28310  0.27344  0.52537  Biso   1.000  N
  C21      1.0000 0.75730  0.74470  0.37280  Biso   1.000  C
  C22      1.0000 0.24270  0.25530  0.62720  Biso   1.000  C
  C23      1.0000 0.68420  0.63730  0.28990  Biso   1.000  C
  C24      1.0000 0.31580  0.36270  0.71010  Biso   1.000  C
  H5       1.0000 0.58750  0.62100  0.27440  Biso   1.000  H
  H6       1.0000 0.41250  0.37900  0.72560  Biso   1.000  H
  H7       1.0000 0.69460  0.57500  0.31440  Biso   1.000  H
  H8       1.0000 0.30540  0.42500  0.68560  Biso   1.000  H
  H9       1.0000 0.72340  0.64700  0.22770  Biso   1.000  H
  H10      1.0000 0.27660  0.35300  0.77230  Biso   1.000  H
  C25      1.0000 0.71580  0.83600  0.34710  Biso   1.000  C
  C26      1.0000 0.28420  0.16400  0.65290  Biso   1.000  C
  H11      1.0000 0.61680  0.80510  0.32790  Biso   1.000  H
  H12      1.0000 0.38320  0.19490  0.67210  Biso   1.000  H
  H13      1.0000 0.75730  0.86330  0.28970  Biso   1.000  H
  H14      1.0000 0.24270  0.13670  0.71030  Biso   1.000  H
  H15      1.0000 0.74670  0.89820  0.40720  Biso   1.000  H
  H16      1.0000 0.25330  0.10180  0.59280  Biso   1.000  H
  C27      1.0000 0.91270  0.78380  0.40220  Biso   1.000  C
  C28      1.0000 0.08730  0.21620  0.59780  Biso   1.000  C
  C29      1.0000 0.95880  0.68850  0.39200  Biso   1.000  C
  C30      1.0000 0.04120  0.31150  0.60800  Biso   1.000  C
  H17      1.0000 0.05750  0.71970  0.41380  Biso   1.000  H
  H18      1.0000 0.94250  0.28030  0.58620  Biso   1.000  H
  H19      1.0000 0.93390  0.64750  0.32030  Biso   1.000  H
  H20      1.0000 0.06610  0.35250  0.67970  Biso   1.000  H
  H21      1.0000 0.91450  0.63740  0.43550  Biso   1.000  H
  H22      1.0000 0.08550  0.36260  0.56450  Biso   1.000  H
  C31      1.0000 0.99730  0.87510  0.35060  Biso   1.000  C
  C32      1.0000 0.00270  0.12490  0.64940  Biso   1.000  C
  H23      1.0000 0.09390  0.89520  0.37360  Biso   1.000  H
  H24      1.0000 0.90610  0.10480  0.62640  Biso   1.000  H
  H25      1.0000 0.97860  0.94130  0.36920  Biso   1.000  H
  H26      1.0000 0.02140  0.05870  0.63080  Biso   1.000  H
  H27      1.0000 0.97390  0.84750  0.27590  Biso   1.000  H
  H28      1.0000 0.02610  0.15250  0.72410  Biso   1.000  H
  N3       1.0000 0.93380  0.83035  0.51472  Biso   1.000  N
  N4       1.0000 0.06620  0.16965  0.48528  Biso   1.000  N
  O11      1.0000 0.05180  0.89128  0.56848  Biso   1.000  O
  O12      1.0000 0.94820  0.10872  0.43152  Biso   1.000  O
  C33      1.0000 0.81800  0.78910  0.55300  Biso   1.000  C
  C34      1.0000 0.18200  0.21090  0.44700  Biso   1.000  C
  C35      1.0000 0.80770  0.81150  0.65950  Biso   1.000  C
  C36      1.0000 0.19230  0.18850  0.34050  Biso   1.000  C
  C37      1.0000 0.90970  0.87770  0.74420  Biso   1.000  C
  C38      1.0000 0.09030  0.12230  0.25580  Biso   1.000  C
  H29      1.0000 0.00270  0.91650  0.74040  Biso   1.000  H
  H30      1.0000 0.99730  0.08350  0.25960  Biso   1.000  H
  N5       1.0000 0.72490  0.81283  0.80212  Biso   1.000  N
  N6       1.0000 0.27510  0.18717  0.19788  Biso   1.000  N
  N7       1.0000 0.85990  0.87942  0.83101  Biso   1.000  N
  N8       1.0000 0.14010  0.12058  0.16899  Biso   1.000  N
  C39      1.0000 0.63620  0.79090  0.87830  Biso   1.000  C
  C40      1.0000 0.36380  0.20910  0.12170  Biso   1.000  C
  H31      1.0000 0.55280  0.79940  0.85350  Biso   1.000  H
  H32      1.0000 0.44720  0.20060  0.14650  Biso   1.000  H
  H33      1.0000 0.68290  0.84720  0.94320  Biso   1.000  H
  H34      1.0000 0.31710  0.15280  0.05680  Biso   1.000  H
  C41      1.0000 0.59820  0.67750  0.89850  Biso   1.000  C
  C42      1.0000 0.40180  0.32250  0.10150  Biso   1.000  C
  H35      1.0000 0.68120  0.66490  0.91350  Biso   1.000  H
  H36      1.0000 0.31880  0.33510  0.08650  Biso   1.000  H
  H37      1.0000 0.53970  0.62110  0.83630  Biso   1.000  H
  H38      1.0000 0.46030  0.37890  0.16370  Biso   1.000  H
  C43      1.0000 0.51800  0.66070  0.99430  Biso   1.000  C
  C44      1.0000 0.48200  0.33930  0.00570  Biso   1.000  C
  H39      1.0000 0.51920  0.59410  0.01790  Biso   1.000  H
  H40      1.0000 0.48080  0.40590  0.98210  Biso   1.000  H
  H41      1.0000 0.56800  0.72670  0.05160  Biso   1.000  H
  H42      1.0000 0.43200  0.27330  0.94840  Biso   1.000  H
  C45      1.0000 0.38430  0.64700  0.97190  Biso   1.000  C
  C46      1.0000 0.61570  0.35300  0.02810  Biso   1.000  C
  H43      1.0000 0.34530  0.64360  0.03470  Biso   1.000  H
  H44      1.0000 0.65470  0.35640  0.96530  Biso   1.000  H
  H45      1.0000 0.33150  0.57730  0.92060  Biso   1.000  H
  H46      1.0000 0.66850  0.42270  0.07940  Biso   1.000  H
  H47      1.0000 0.38170  0.71050  0.94480  Biso   1.000  H
  H48      1.0000 0.61830  0.28950  0.05520  Biso   1.000  H
  C47      1.0000 0.54460  0.67000  0.86510  Biso   1.000  C
  C48      1.0000 0.45540  0.33000  0.13490  Biso   1.000  C
  H49      1.0000 0.60040  0.62730  0.87270  Biso   1.000  H
  H50      1.0000 0.39960  0.37270  0.12730  Biso   1.000  H
  H51      1.0000 0.49020  0.64170  0.79480  Biso   1.000  H
  H52      1.0000 0.50980  0.35830  0.20520  Biso   1.000  H
  C49      1.0000 0.45200  0.64980  0.94010  Biso   1.000  C
  C50      1.0000 0.54800  0.35020  0.05990  Biso   1.000  C
  H53      1.0000 0.40220  0.69760  0.93570  Biso   1.000  H
  H54      1.0000 0.59780  0.30240  0.06430  Biso   1.000  H
  H55      1.0000 0.38430  0.57070  0.91960  Biso   1.000  H
  H56      1.0000 0.61570  0.42930  0.08040  Biso   1.000  H
  C51      1.0000 0.51740  0.67160  0.05000  Biso   1.000  C
  C52      1.0000 0.48260  0.32840  0.95000  Biso   1.000  C
  H57      1.0000 0.45170  0.67200  0.09470  Biso   1.000  H
  H58      1.0000 0.54830  0.32800  0.90530  Biso   1.000  H
  H59      1.0000 0.59590  0.74460  0.06780  Biso   1.000  H
  H60      1.0000 0.40410  0.25540  0.93220  Biso   1.000  H
  H61      1.0000 0.54720  0.61260  0.05920  Biso   1.000  H
  H62      1.0000 0.45280  0.38740  0.94080  Biso   1.000  H
  C53      1.0000 0.68930  0.77150  0.70090  Biso   1.000  C
  C54      1.0000 0.31070  0.22850  0.29910  Biso   1.000  C
  H63      1.0000 0.60040  0.72390  0.66400  Biso   1.000  H
  H64      1.0000 0.39960  0.27610  0.33600  Biso   1.000  H
  C55      1.0000 0.66180  0.04670  0.77540  Biso   1.000  C
  C56      1.0000 0.33820  0.95330  0.22460  Biso   1.000  C
  H65      1.0000 0.67200  0.06350  0.85040  Biso   1.000  H
  H66      1.0000 0.32800  0.93650  0.14960  Biso   1.000  H
  H67      1.0000 0.74690  0.04870  0.75610  Biso   1.000  H
  H68      1.0000 0.25310  0.95130  0.24390  Biso   1.000  H
  H69      1.0000 0.58870  0.97200  0.74710  Biso   1.000  H
  H70      1.0000 0.41130  0.02800  0.25290  Biso   1.000  H
  C57      1.0000 0.62770  0.13230  0.73340  Biso   1.000  C
  C58      1.0000 0.37230  0.86770  0.26660  Biso   1.000  C
  H71      1.0000 0.69920  0.20780  0.76590  Biso   1.000  H
  H72      1.0000 0.30080  0.79220  0.23410  Biso   1.000  H
  H73      1.0000 0.54110  0.12900  0.75270  Biso   1.000  H
  H74      1.0000 0.45890  0.87100  0.24730  Biso   1.000  H
  C59      1.0000 0.61450  0.11690  0.61850  Biso   1.000  C
  C60      1.0000 0.38550  0.88310  0.38150  Biso   1.000  C
  H75      1.0000 0.59150  0.17640  0.59770  Biso   1.000  H
  H76      1.0000 0.40850  0.82360  0.40230  Biso   1.000  H
  H77      1.0000 0.70400  0.12780  0.60030  Biso   1.000  H
  H78      1.0000 0.29600  0.87220  0.39970  Biso   1.000  H
  C61      1.0000 0.51060  0.00520  0.55700  Biso   1.000  C
  C62      1.0000 0.48940  0.99480  0.44300  Biso   1.000  C
  H79      1.0000 0.53840  0.94610  0.57260  Biso   1.000  H
  H80      1.0000 0.46160  0.05390  0.42740  Biso   1.000  H
  H81      1.0000 0.42270  0.99090  0.57970  Biso   1.000  H
  H82      1.0000 0.57730  0.00910  0.42030  Biso   1.000  H
