data_image0
_cell_length_a       10.8114
_cell_length_b       13.26
_cell_length_c       13.415
_cell_angle_alpha    99.515
_cell_angle_beta     95.225
_cell_angle_gamma    114.016

_symmetry_space_group_name_H-M    "P 1"
_symmetry_int_tables_number       1

loop_
  _symmetry_equiv_pos_as_xyz
  'x, y, z'

loop_
  _atom_site_label
  _atom_site_occupancy
  _atom_site_fract_x
  _atom_site_fract_y
  _atom_site_fract_z
  _atom_site_thermal_displace_type
  _atom_site_B_iso_or_equiv
  _atom_site_type_symbol
  Cu1      1.0000 0.50000  0.50000  0.50000  Biso   1.000  Cu
  O1       1.0000 0.35866  0.46918  0.37818  Biso   1.000  O
  O2       1.0000 0.64134  0.53082  0.62182  Biso   1.000  O
  C1       1.0000 0.20060  0.48640  0.26120  Biso   1.000  C
  C2       1.0000 0.79940  0.51360  0.73880  Biso   1.000  C
  F1       1.0000 0.29500  0.53300  0.20780  Biso   1.000  F
  F2       1.0000 0.70500  0.46700  0.79220  Biso   1.000  F
  F3       1.0000 0.10580  0.52310  0.25020  Biso   1.000  F
  F4       1.0000 0.89420  0.47690  0.74980  Biso   1.000  F
  F5       1.0000 0.14470  0.36800  0.21550  Biso   1.000  F
  F6       1.0000 0.85530  0.63200  0.78450  Biso   1.000  F
  F7       1.0000 0.28700  0.54600  0.20360  Biso   1.000  F
  F8       1.0000 0.71300  0.45400  0.79640  Biso   1.000  F
  F9       1.0000 0.09880  0.51910  0.25320  Biso   1.000  F
  F10      1.0000 0.90120  0.48090  0.74680  Biso   1.000  F
  F11      1.0000 0.14900  0.38900  0.21510  Biso   1.000  F
  F12      1.0000 0.85100  0.61100  0.78490  Biso   1.000  F
  C3       1.0000 0.26980  0.50660  0.37140  Biso   1.000  C
  C4       1.0000 0.73020  0.49340  0.62860  Biso   1.000  C
  C5       1.0000 0.22920  0.56360  0.44830  Biso   1.000  C
  C6       1.0000 0.77080  0.43640  0.55170  Biso   1.000  C
  H1       1.0000 0.16700  0.58700  0.43100  Biso   1.000  H
  H2       1.0000 0.83300  0.41300  0.56900  Biso   1.000  H
  C7       1.0000 0.28750  0.58870  0.55140  Biso   1.000  C
  C8       1.0000 0.71250  0.41130  0.44860  Biso   1.000  C
  C9       1.0000 0.24170  0.65950  0.62840  Biso   1.000  C
  C10      1.0000 0.75830  0.34050  0.37160  Biso   1.000  C
  F13      1.0000 0.15570  0.68890  0.59360  Biso   1.000  F
  F14      1.0000 0.84430  0.31110  0.40640  Biso   1.000  F
  F15      1.0000 0.36160  0.75770  0.66820  Biso   1.000  F
  F16      1.0000 0.63840  0.24230  0.33180  Biso   1.000  F
  F17      1.0000 0.21500  0.60940  0.70350  Biso   1.000  F
  F18      1.0000 0.78500  0.39060  0.29650  Biso   1.000  F
  F19      1.0000 0.22860  0.63250  0.72050  Biso   1.000  F
  F20      1.0000 0.77140  0.36750  0.27950  Biso   1.000  F
  F21      1.0000 0.30970  0.76690  0.64290  Biso   1.000  F
  F22      1.0000 0.69030  0.23310  0.35710  Biso   1.000  F
  F23      1.0000 0.10290  0.63860  0.59430  Biso   1.000  F
  F24      1.0000 0.89710  0.36140  0.40570  Biso   1.000  F
  O3       1.0000 0.37539  0.56183  0.59076  Biso   1.000  O
  O4       1.0000 0.62461  0.43817  0.40924  Biso   1.000  O
  Cu2      1.0000 0.00000  0.00000  0.00000  Biso   1.000  Cu
  O5       1.0000 0.03227  0.14309  0.95831  Biso   1.000  O
  O6       1.0000 0.96773  0.85691  0.04169  Biso   1.000  O
  C11      1.0000 0.03320  0.31970  0.95860  Biso   1.000  C
  C12      1.0000 0.96680  0.68030  0.04140  Biso   1.000  C
  F25      1.0000 0.16400  0.35700  0.95570  Biso   1.000  F
  F26      1.0000 0.83600  0.64300  0.04430  Biso   1.000  F
  F27      1.0000 0.00680  0.40060  0.02030  Biso   1.000  F
  F28      1.0000 0.99320  0.59940  0.97970  Biso   1.000  F
  F29      1.0000 0.97900  0.31100  0.86300  Biso   1.000  F
  F30      1.0000 0.02100  0.68900  0.13700  Biso   1.000  F
  F31      1.0000 0.98800  0.30200  0.86020  Biso   1.000  F
  F32      1.0000 0.01200  0.69800  0.13980  Biso   1.000  F
  F33      1.0000 0.17000  0.37200  0.98110  Biso   1.000  F
  F34      1.0000 0.83000  0.62800  0.01890  Biso   1.000  F
  F35      1.0000 0.99760  0.39040  0.00520  Biso   1.000  F
  F36      1.0000 0.00240  0.60960  0.99480  Biso   1.000  F
  C13      1.0000 0.97690  0.20600  0.99070  Biso   1.000  C
  C14      1.0000 0.02310  0.79400  0.00930  Biso   1.000  C
  C15      1.0000 0.87090  0.18240  0.04770  Biso   1.000  C
  C16      1.0000 0.12910  0.81760  0.95230  Biso   1.000  C
  H3       1.0000 0.83600  0.23000  0.06500  Biso   1.000  H
  H4       1.0000 0.16400  0.77000  0.93500  Biso   1.000  H
  C17      1.0000 0.81060  0.07980  0.07490  Biso   1.000  C
  C18      1.0000 0.18940  0.92020  0.92510  Biso   1.000  C
  C19      1.0000 0.68680  0.05440  0.12930  Biso   1.000  C
  C20      1.0000 0.31320  0.94560  0.87070  Biso   1.000  C
  F37      1.0000 0.72100  0.05500  0.23100  Biso   1.000  F
  F38      1.0000 0.27900  0.94500  0.76900  Biso   1.000  F
  F39      1.0000 0.59080  0.95090  0.08960  Biso   1.000  F
  F40      1.0000 0.40920  0.04910  0.91040  Biso   1.000  F
  F41      1.0000 0.62800  0.12600  0.13390  Biso   1.000  F
  F42      1.0000 0.37200  0.87400  0.86610  Biso   1.000  F
  F43      1.0000 0.65600  0.14400  0.13700  Biso   1.000  F
  F44      1.0000 0.34400  0.85600  0.86300  Biso   1.000  F
  F45      1.0000 0.71400  0.03600  0.21800  Biso   1.000  F
  F46      1.0000 0.28600  0.96400  0.78200  Biso   1.000  F
  F47      1.0000 0.57300  0.96380  0.07040  Biso   1.000  F
  F48      1.0000 0.42700  0.03620  0.92960  Biso   1.000  F
  O7       1.0000 0.84362  0.99819  0.06068  Biso   1.000  O
  O8       1.0000 0.15638  0.00181  0.93932  Biso   1.000  O
  O9       1.0000 0.58299  0.66367  0.48591  Biso   1.000  O
  O10      1.0000 0.41701  0.33633  0.51409  Biso   1.000  O
  N1       1.0000 0.71120  0.71794  0.47501  Biso   1.000  N
  N2       1.0000 0.28880  0.28206  0.52499  Biso   1.000  N
  C21      1.0000 0.74780  0.73780  0.37280  Biso   1.000  C
  C22      1.0000 0.25220  0.26220  0.62720  Biso   1.000  C
  C23      1.0000 0.67420  0.63160  0.28870  Biso   1.000  C
  C24      1.0000 0.32580  0.36840  0.71130  Biso   1.000  C
  H5       1.0000 0.56500  0.60200  0.28000  Biso   1.000  H
  H6       1.0000 0.43500  0.39800  0.72000  Biso   1.000  H
  H7       1.0000 0.69300  0.56500  0.30400  Biso   1.000  H
  H8       1.0000 0.30700  0.43500  0.69600  Biso   1.000  H
  H9       1.0000 0.70500  0.65200  0.22700  Biso   1.000  H
  H10      1.0000 0.29500  0.34800  0.77300  Biso   1.000  H
  C25      1.0000 0.70490  0.83010  0.35160  Biso   1.000  C
  C26      1.0000 0.29510  0.16990  0.64840  Biso   1.000  C
  H11      1.0000 0.62500  0.80900  0.34700  Biso   1.000  H
  H12      1.0000 0.37500  0.19100  0.65300  Biso   1.000  H
  H13      1.0000 0.73000  0.84800  0.28400  Biso   1.000  H
  H14      1.0000 0.27000  0.15200  0.71600  Biso   1.000  H
  H15      1.0000 0.75700  0.90100  0.40400  Biso   1.000  H
  H16      1.0000 0.24300  0.09900  0.59600  Biso   1.000  H
  C27      1.0000 0.90690  0.78080  0.39870  Biso   1.000  C
  C28      1.0000 0.09310  0.21920  0.60130  Biso   1.000  C
  C29      1.0000 0.95310  0.68540  0.38640  Biso   1.000  C
  C30      1.0000 0.04690  0.31460  0.61360  Biso   1.000  C
  H17      1.0000 0.04000  0.71700  0.41100  Biso   1.000  H
  H18      1.0000 0.96000  0.28300  0.58900  Biso   1.000  H
  H19      1.0000 0.94000  0.65100  0.31500  Biso   1.000  H
  H20      1.0000 0.06000  0.34900  0.68500  Biso   1.000  H
  H21      1.0000 0.90000  0.62600  0.42400  Biso   1.000  H
  H22      1.0000 0.10000  0.37400  0.57600  Biso   1.000  H
  C31      1.0000 0.98860  0.87260  0.34650  Biso   1.000  C
  C32      1.0000 0.01140  0.12740  0.65350  Biso   1.000  C
  H23      1.0000 0.08600  0.89400  0.36700  Biso   1.000  H
  H24      1.0000 0.91400  0.10600  0.63300  Biso   1.000  H
  H25      1.0000 0.97300  0.93400  0.36200  Biso   1.000  H
  H26      1.0000 0.02700  0.06600  0.63800  Biso   1.000  H
  H27      1.0000 0.97300  0.84600  0.27500  Biso   1.000  H
  H28      1.0000 0.02700  0.15400  0.72500  Biso   1.000  H
  N3       1.0000 0.93040  0.82772  0.51218  Biso   1.000  N
  N4       1.0000 0.06960  0.17228  0.48782  Biso   1.000  N
  O11      1.0000 0.05012  0.89206  0.56365  Biso   1.000  O
  O12      1.0000 0.94988  0.10794  0.43635  Biso   1.000  O
  C33      1.0000 0.81390  0.78310  0.55230  Biso   1.000  C
  C34      1.0000 0.18610  0.21690  0.44770  Biso   1.000  C
  C35      1.0000 0.80550  0.80680  0.65910  Biso   1.000  C
  C36      1.0000 0.19450  0.19320  0.34090  Biso   1.000  C
  C37      1.0000 0.91000  0.87500  0.74340  Biso   1.000  C
  C38      1.0000 0.09000  0.12500  0.25660  Biso   1.000  C
  H29      1.0000 1.00000  0.91400  0.74500  Biso   1.000  H
  H30      1.0000 0.00000  0.08600  0.25500  Biso   1.000  H
  N5       1.0000 0.72370  0.80896  0.80301  Biso   1.000  N
  N6       1.0000 0.27630  0.19104  0.19699  Biso   1.000  N
  N7       1.0000 0.86140  0.87745  0.83048  Biso   1.000  N
  N8       1.0000 0.13860  0.12255  0.16952  Biso   1.000  N
  C39      1.0000 0.63550  0.78710  0.88060  Biso   1.000  C
  C40      1.0000 0.36450  0.21290  0.11940  Biso   1.000  C
  H31      1.0000 0.59900  0.83300  0.88000  Biso   1.000  H
  H32      1.0000 0.40100  0.16700  0.12000  Biso   1.000  H
  H33      1.0000 0.69300  0.81200  0.94200  Biso   1.000  H
  H34      1.0000 0.30700  0.18800  0.05800  Biso   1.000  H
  C41      1.0000 0.54380  0.66440  0.86830  Biso   1.000  C
  C42      1.0000 0.45620  0.33560  0.13170  Biso   1.000  C
  H35      1.0000 0.60050  0.62330  0.88000  Biso   1.000  H
  H36      1.0000 0.39950  0.37670  0.12000  Biso   1.000  H
  H37      1.0000 0.49160  0.63300  0.79730  Biso   1.000  H
  H38      1.0000 0.50840  0.36700  0.20270  Biso   1.000  H
  C43      1.0000 0.44040  0.64610  0.94610  Biso   1.000  C
  C44      1.0000 0.55960  0.35390  0.05390  Biso   1.000  C
  H39      1.0000 0.36600  0.66180  0.98200  Biso   1.000  H
  H40      1.0000 0.63400  0.33820  0.01800  Biso   1.000  H
  H41      1.0000 0.36100  0.56500  0.93100  Biso   1.000  H
  H42      1.0000 0.63900  0.43500  0.06900  Biso   1.000  H
  C45      1.0000 0.51610  0.66440  0.04250  Biso   1.000  C
  C46      1.0000 0.48390  0.33560  0.95750  Biso   1.000  C
  H43      1.0000 0.45540  0.65420  0.09370  Biso   1.000  H
  H44      1.0000 0.54460  0.34580  0.90630  Biso   1.000  H
  H45      1.0000 0.58960  0.74160  0.06080  Biso   1.000  H
  H46      1.0000 0.41040  0.25840  0.93920  Biso   1.000  H
  H47      1.0000 0.55640  0.61010  0.04090  Biso   1.000  H
  H48      1.0000 0.44360  0.38990  0.95910  Biso   1.000  H
  C47      1.0000 0.68780  0.76670  0.70250  Biso   1.000  C
  C48      1.0000 0.31220  0.23330  0.29750  Biso   1.000  C
  H49      1.0000 0.60400  0.72500  0.67500  Biso   1.000  H
  H50      1.0000 0.39600  0.27500  0.32500  Biso   1.000  H
  C49      1.0000 0.66600  0.04620  0.77610  Biso   1.000  C
  C50      1.0000 0.33400  0.95380  0.22390  Biso   1.000  C
  H51      1.0000 0.68600  0.06500  0.85600  Biso   1.000  H
  H52      1.0000 0.31400  0.93500  0.14400  Biso   1.000  H
  H53      1.0000 0.74900  0.03700  0.75100  Biso   1.000  H
  H54      1.0000 0.25100  0.96300  0.24900  Biso   1.000  H
  H55      1.0000 0.60100  0.97600  0.74100  Biso   1.000  H
  H56      1.0000 0.39900  0.02400  0.25900  Biso   1.000  H
  C51      1.0000 0.63610  0.13450  0.73340  Biso   1.000  C
  C52      1.0000 0.36390  0.86550  0.26660  Biso   1.000  C
  H57      1.0000 0.71200  0.21100  0.76500  Biso   1.000  H
  H58      1.0000 0.28800  0.78900  0.23500  Biso   1.000  H
  H59      1.0000 0.55400  0.13300  0.75500  Biso   1.000  H
  H60      1.0000 0.44600  0.86700  0.24500  Biso   1.000  H
  C53      1.0000 0.62150  0.11760  0.61750  Biso   1.000  C
  C54      1.0000 0.37850  0.88240  0.38250  Biso   1.000  C
  H61      1.0000 0.60500  0.18000  0.60100  Biso   1.000  H
  H62      1.0000 0.39500  0.82000  0.39900  Biso   1.000  H
  H63      1.0000 0.70900  0.11900  0.59200  Biso   1.000  H
  H64      1.0000 0.29100  0.88100  0.40800  Biso   1.000  H
  C55      1.0000 0.51080  0.00490  0.55790  Biso   1.000  C
  C56      1.0000 0.48920  0.99510  0.44210  Biso   1.000  C
  H65      1.0000 0.42100  0.98900  0.58300  Biso   1.000  H
  H66      1.0000 0.57900  0.01100  0.41700  Biso   1.000  H
  H67      1.0000 0.53900  0.94100  0.57000  Biso   1.000  H
  H68      1.0000 0.46100  0.05900  0.43000  Biso   1.000  H
