data_image0
_cell_length_a       7.1237
_cell_length_b       14.5282
_cell_length_c       13.2247
_cell_angle_alpha    90
_cell_angle_beta     104.139
_cell_angle_gamma    90

_symmetry_space_group_name_H-M    "P 1"
_symmetry_int_tables_number       1

loop_
  _symmetry_equiv_pos_as_xyz
  'x, y, z'

loop_
  _atom_site_label
  _atom_site_occupancy
  _atom_site_fract_x
  _atom_site_fract_y
  _atom_site_fract_z
  _atom_site_thermal_displace_type
  _atom_site_B_iso_or_equiv
  _atom_site_type_symbol
  Cu1      1.0000 0.95406  0.22546  0.88950  Biso   1.000  Cu
  Cu2      1.0000 0.54594  0.72546  0.61050  Biso   1.000  Cu
  Cu3      1.0000 0.04594  0.77454  0.11050  Biso   1.000  Cu
  Cu4      1.0000 0.45406  0.27454  0.38950  Biso   1.000  Cu
  O1       1.0000 0.18110  0.30450  0.92450  Biso   1.000  O
  O2       1.0000 0.31890  0.80450  0.57550  Biso   1.000  O
  O3       1.0000 0.81890  0.69550  0.07550  Biso   1.000  O
  O4       1.0000 0.68110  0.19550  0.42450  Biso   1.000  O
  O5       1.0000 0.10670  0.40750  0.79420  Biso   1.000  O
  O6       1.0000 0.39330  0.90750  0.70580  Biso   1.000  O
  O7       1.0000 0.89330  0.59250  0.20580  Biso   1.000  O
  O8       1.0000 0.60670  0.09250  0.29420  Biso   1.000  O
  O9       1.0000 0.10520  0.13210  0.03280  Biso   1.000  O
  O10      1.0000 0.39480  0.63210  0.46720  Biso   1.000  O
  O11      1.0000 0.89480  0.86790  0.96720  Biso   1.000  O
  O12      1.0000 0.60520  0.36790  0.53280  Biso   1.000  O
  H1       1.0000 0.18170  0.16370  0.07980  Biso   1.000  H
  H2       1.0000 0.31830  0.66370  0.42020  Biso   1.000  H
  H3       1.0000 0.81830  0.83630  0.92020  Biso   1.000  H
  H4       1.0000 0.68170  0.33630  0.57980  Biso   1.000  H
  O13      1.0000 0.72050  0.14590  0.84610  Biso   1.000  O
  O14      1.0000 0.77950  0.64590  0.65390  Biso   1.000  O
  O15      1.0000 0.27950  0.85410  0.15390  Biso   1.000  O
  O16      1.0000 0.22050  0.35410  0.34610  Biso   1.000  O
  H5       1.0000 0.62650  0.18450  0.82380  Biso   1.000  H
  H6       1.0000 0.87350  0.68450  0.67620  Biso   1.000  H
  H7       1.0000 0.37350  0.81550  0.17620  Biso   1.000  H
  H8       1.0000 0.12650  0.31550  0.32380  Biso   1.000  H
  O17      1.0000 0.81250  0.31630  0.94920  Biso   1.000  O
  O18      1.0000 0.68750  0.81630  0.55080  Biso   1.000  O
  O19      1.0000 0.18750  0.68370  0.05080  Biso   1.000  O
  O20      1.0000 0.31250  0.18370  0.44920  Biso   1.000  O
  O21      1.0000 0.52660  0.29770  0.83540  Biso   1.000  O
  O22      1.0000 0.97340  0.79770  0.66460  Biso   1.000  O
  O23      1.0000 0.47340  0.70230  0.16460  Biso   1.000  O
  O24      1.0000 0.02660  0.20230  0.33540  Biso   1.000  O
  O25      1.0000 0.87270  0.28180  0.68990  Biso   1.000  O
  O26      1.0000 0.62730  0.78180  0.81010  Biso   1.000  O
  O27      1.0000 0.12730  0.71820  0.31010  Biso   1.000  O
  O28      1.0000 0.37270  0.21820  0.18990  Biso   1.000  O
  H9       1.0000 0.92180  0.33260  0.72540  Biso   1.000  H
  H10      1.0000 0.57820  0.83260  0.77460  Biso   1.000  H
  H11      1.0000 0.07820  0.66740  0.27460  Biso   1.000  H
  H12      1.0000 0.42180  0.16740  0.22540  Biso   1.000  H
  N1       1.0000 0.08100  0.13070  0.81550  Biso   1.000  N
  N2       1.0000 0.41900  0.63070  0.68450  Biso   1.000  N
  N3       1.0000 0.91900  0.86930  0.18450  Biso   1.000  N
  N4       1.0000 0.58100  0.36930  0.31550  Biso   1.000  N
  C1       1.0000 0.20570  0.37890  0.87880  Biso   1.000  C
  C2       1.0000 0.29430  0.87890  0.62120  Biso   1.000  C
  C3       1.0000 0.79430  0.62110  0.12120  Biso   1.000  C
  C4       1.0000 0.70570  0.12110  0.37880  Biso   1.000  C
  C5       1.0000 0.36420  0.44010  0.93880  Biso   1.000  C
  C6       1.0000 0.13580  0.94010  0.56120  Biso   1.000  C
  C7       1.0000 0.63580  0.55990  0.06120  Biso   1.000  C
  C8       1.0000 0.86420  0.05990  0.43880  Biso   1.000  C
  C9       1.0000 0.21990  0.06590  0.99440  Biso   1.000  C
  C10      1.0000 0.28010  0.56590  0.50560  Biso   1.000  C
  C11      1.0000 0.78010  0.93410  0.00560  Biso   1.000  C
  C12      1.0000 0.71990  0.43410  0.49440  Biso   1.000  C
  H13      1.0000 0.15090  0.00620  0.98380  Biso   1.000  H
  H14      1.0000 0.34910  0.50620  0.51620  Biso   1.000  H
  H15      1.0000 0.84910  0.99380  0.01620  Biso   1.000  H
  H16      1.0000 0.65090  0.49380  0.48380  Biso   1.000  H
  H17      1.0000 0.34410  0.05680  0.04670  Biso   1.000  H
  H18      1.0000 0.15590  0.55680  0.45330  Biso   1.000  H
  H19      1.0000 0.65590  0.94320  0.95330  Biso   1.000  H
  H20      1.0000 0.84410  0.44320  0.54670  Biso   1.000  H
  C13      1.0000 0.25980  0.09690  0.89290  Biso   1.000  C
  C14      1.0000 0.24020  0.59690  0.60710  Biso   1.000  C
  C15      1.0000 0.74020  0.90310  0.10710  Biso   1.000  C
  C16      1.0000 0.75980  0.40310  0.39290  Biso   1.000  C
  H21      1.0000 0.31570  0.04480  0.86170  Biso   1.000  H
  H22      1.0000 0.18430  0.54480  0.63830  Biso   1.000  H
  H23      1.0000 0.68430  0.95520  0.13830  Biso   1.000  H
  H24      1.0000 0.81570  0.45520  0.36170  Biso   1.000  H
  H25      1.0000 0.35710  0.14690  0.90710  Biso   1.000  H
  H26      1.0000 0.14290  0.64690  0.59290  Biso   1.000  H
  H27      1.0000 0.64290  0.85310  0.09290  Biso   1.000  H
  H28      1.0000 0.85710  0.35310  0.40710  Biso   1.000  H
  C17      1.0000 0.93860  0.05550  0.78000  Biso   1.000  C
  C18      1.0000 0.56140  0.55550  0.72000  Biso   1.000  C
  C19      1.0000 0.06140  0.94450  0.22000  Biso   1.000  C
  C20      1.0000 0.43860  0.44450  0.28000  Biso   1.000  C
  H29      1.0000 0.95650  0.00750  0.83470  Biso   1.000  H
  H30      1.0000 0.54350  0.50750  0.66530  Biso   1.000  H
  H31      1.0000 0.04350  0.99250  0.16530  Biso   1.000  H
  H32      1.0000 0.45650  0.49250  0.33470  Biso   1.000  H
  H33      1.0000 0.96250  0.02690  0.71640  Biso   1.000  H
  H34      1.0000 0.53750  0.52690  0.78360  Biso   1.000  H
  H35      1.0000 0.03750  0.97310  0.28360  Biso   1.000  H
  H36      1.0000 0.46250  0.47310  0.21640  Biso   1.000  H
  C21      1.0000 0.73200  0.09070  0.75690  Biso   1.000  C
  C22      1.0000 0.76800  0.59070  0.74310  Biso   1.000  C
  C23      1.0000 0.26800  0.90930  0.24310  Biso   1.000  C
  C24      1.0000 0.23200  0.40930  0.25690  Biso   1.000  C
  H37      1.0000 0.70240  0.12840  0.69260  Biso   1.000  H
  H38      1.0000 0.79760  0.62840  0.80740  Biso   1.000  H
  H39      1.0000 0.29760  0.87160  0.30740  Biso   1.000  H
  H40      1.0000 0.20240  0.37160  0.19260  Biso   1.000  H
  H41      1.0000 0.63940  0.03880  0.74790  Biso   1.000  H
  H42      1.0000 0.86060  0.53880  0.75210  Biso   1.000  H
  H43      1.0000 0.36060  0.96120  0.25210  Biso   1.000  H
  H44      1.0000 0.13940  0.46120  0.24790  Biso   1.000  H
  C25      1.0000 0.63690  0.33790  0.90820  Biso   1.000  C
  C26      1.0000 0.86310  0.83790  0.59180  Biso   1.000  C
  C27      1.0000 0.36310  0.66210  0.09180  Biso   1.000  C
  C28      1.0000 0.13690  0.16210  0.40820  Biso   1.000  C
  C29      1.0000 0.56260  0.42130  0.95690  Biso   1.000  C
  C30      1.0000 0.93740  0.92130  0.54310  Biso   1.000  C
  C31      1.0000 0.43740  0.57870  0.04310  Biso   1.000  C
  C32      1.0000 0.06260  0.07870  0.45690  Biso   1.000  C
  C33      1.0000 0.30530  0.51880  0.98190  Biso   1.000  C
  C34      1.0000 0.19470  0.01880  0.51810  Biso   1.000  C
  C35      1.0000 0.69470  0.48120  0.01810  Biso   1.000  C
  C36      1.0000 0.80530  0.98120  0.48190  Biso   1.000  C
  H45      1.0000 0.17090  0.53210  0.96920  Biso   1.000  H
  H46      1.0000 0.32910  0.03210  0.53080  Biso   1.000  H
  H47      1.0000 0.82910  0.46790  0.03080  Biso   1.000  H
  H48      1.0000 0.67090  0.96790  0.46920  Biso   1.000  H
  C37      1.0000 0.14670  0.17470  0.72910  Biso   1.000  C
  C38      1.0000 0.35330  0.67470  0.77090  Biso   1.000  C
  C39      1.0000 0.85330  0.82530  0.27090  Biso   1.000  C
  C40      1.0000 0.64670  0.32530  0.22910  Biso   1.000  C
  H49      1.0000 0.21100  0.12750  0.69520  Biso   1.000  H
  H50      1.0000 0.28900  0.62750  0.80480  Biso   1.000  H
  H51      1.0000 0.78900  0.87250  0.30480  Biso   1.000  H
  H52      1.0000 0.71100  0.37250  0.19520  Biso   1.000  H
  H53      1.0000 0.24480  0.22200  0.75880  Biso   1.000  H
  H54      1.0000 0.25520  0.72200  0.74120  Biso   1.000  H
  H55      1.0000 0.75520  0.77800  0.24120  Biso   1.000  H
  H56      1.0000 0.74480  0.27800  0.25880  Biso   1.000  H
  C41      1.0000 0.99000  0.21900  0.64760  Biso   1.000  C
  C42      1.0000 0.51000  0.71900  0.85240  Biso   1.000  C
  C43      1.0000 0.01000  0.78100  0.35240  Biso   1.000  C
  C44      1.0000 0.49000  0.28100  0.14760  Biso   1.000  C
  H57      1.0000 0.04940  0.25280  0.59820  Biso   1.000  H
  H58      1.0000 0.45060  0.75280  0.90180  Biso   1.000  H
  H59      1.0000 0.95060  0.74720  0.40180  Biso   1.000  H
  H60      1.0000 0.54940  0.24720  0.09820  Biso   1.000  H
  H61      1.0000 0.90590  0.17040  0.60780  Biso   1.000  H
  H62      1.0000 0.59410  0.67040  0.89220  Biso   1.000  H
  H63      1.0000 0.09410  0.82960  0.39220  Biso   1.000  H
  H64      1.0000 0.40590  0.32960  0.10780  Biso   1.000  H
