data_image0
_cell_length_a       7.4688
_cell_length_b       13.2245
_cell_length_c       21.046
_cell_angle_alpha    90
_cell_angle_beta     93.657
_cell_angle_gamma    90

_symmetry_space_group_name_H-M    "P 1"
_symmetry_int_tables_number       1

loop_
  _symmetry_equiv_pos_as_xyz
  'x, y, z'

loop_
  _atom_site_label
  _atom_site_occupancy
  _atom_site_fract_x
  _atom_site_fract_y
  _atom_site_fract_z
  _atom_site_thermal_displace_type
  _atom_site_B_iso_or_equiv
  _atom_site_type_symbol
  Cu1      1.0000 0.37048  0.37319  0.11799  Biso   1.000  Cu
  Cu2      1.0000 0.62952  0.87319  0.38201  Biso   1.000  Cu
  Cu3      1.0000 0.62952  0.62681  0.88201  Biso   1.000  Cu
  Cu4      1.0000 0.37048  0.12681  0.61799  Biso   1.000  Cu
  N1       1.0000 0.32580  0.23429  0.07961  Biso   1.000  N
  N2       1.0000 0.67420  0.73429  0.42039  Biso   1.000  N
  N3       1.0000 0.67420  0.76571  0.92039  Biso   1.000  N
  N4       1.0000 0.32580  0.26571  0.57961  Biso   1.000  N
  N5       1.0000 0.27577  0.41084  0.03319  Biso   1.000  N
  N6       1.0000 0.72423  0.91084  0.46681  Biso   1.000  N
  N7       1.0000 0.72423  0.58916  0.96681  Biso   1.000  N
  N8       1.0000 0.27577  0.08916  0.53319  Biso   1.000  N
  N9       1.0000 0.40623  0.52558  0.12192  Biso   1.000  N
  N10      1.0000 0.59377  0.02558  0.37808  Biso   1.000  N
  N11      1.0000 0.59377  0.47442  0.87808  Biso   1.000  N
  N12      1.0000 0.40623  0.97442  0.62192  Biso   1.000  N
  C1       1.0000 0.35580  0.14573  0.10900  Biso   1.000  C
  C2       1.0000 0.64420  0.64573  0.39100  Biso   1.000  C
  C3       1.0000 0.64420  0.85427  0.89100  Biso   1.000  C
  C4       1.0000 0.35580  0.35427  0.60900  Biso   1.000  C
  H1       1.0000 0.40950  0.14540  0.15010  Biso   1.000  H
  H2       1.0000 0.59050  0.64540  0.34990  Biso   1.000  H
  H3       1.0000 0.59050  0.85460  0.84990  Biso   1.000  H
  H4       1.0000 0.40950  0.35460  0.65010  Biso   1.000  H
  C5       1.0000 0.30960  0.05476  0.08027  Biso   1.000  C
  C6       1.0000 0.69040  0.55476  0.41973  Biso   1.000  C
  C7       1.0000 0.69040  0.94524  0.91973  Biso   1.000  C
  C8       1.0000 0.30960  0.44524  0.58027  Biso   1.000  C
  H5       1.0000 0.32950  0.99410  0.10190  Biso   1.000  H
  H6       1.0000 0.67050  0.49410  0.39810  Biso   1.000  H
  H7       1.0000 0.67050  0.00590  0.89810  Biso   1.000  H
  H8       1.0000 0.32950  0.50590  0.60190  Biso   1.000  H
  C9       1.0000 0.23400  0.05543  0.01926  Biso   1.000  C
  C10      1.0000 0.76600  0.55543  0.48074  Biso   1.000  C
  C11      1.0000 0.76600  0.94457  0.98074  Biso   1.000  C
  C12      1.0000 0.23400  0.44457  0.51926  Biso   1.000  C
  H9       1.0000 0.20430  0.99490  0.99870  Biso   1.000  H
  H10      1.0000 0.79570  0.49490  0.50130  Biso   1.000  H
  H11      1.0000 0.79570  0.00510  0.00130  Biso   1.000  H
  H12      1.0000 0.20430  0.50510  0.49870  Biso   1.000  H
  C13      1.0000 0.20250  0.14608  0.98866  Biso   1.000  C
  C14      1.0000 0.79750  0.64608  0.51134  Biso   1.000  C
  C15      1.0000 0.79750  0.85392  0.01134  Biso   1.000  C
  C16      1.0000 0.20250  0.35392  0.48866  Biso   1.000  C
  H13      1.0000 0.15090  0.14750  0.94730  Biso   1.000  H
  H14      1.0000 0.84910  0.64750  0.55270  Biso   1.000  H
  H15      1.0000 0.84910  0.85250  0.05270  Biso   1.000  H
  H16      1.0000 0.15090  0.35250  0.44730  Biso   1.000  H
  C17      1.0000 0.24770  0.23455  0.01977  Biso   1.000  C
  C18      1.0000 0.75230  0.73455  0.48023  Biso   1.000  C
  C19      1.0000 0.75230  0.76545  0.98023  Biso   1.000  C
  C20      1.0000 0.24770  0.26545  0.51977  Biso   1.000  C
  C21      1.0000 0.21860  0.33710  0.99310  Biso   1.000  C
  C22      1.0000 0.78140  0.83710  0.50690  Biso   1.000  C
  C23      1.0000 0.78140  0.66290  0.00690  Biso   1.000  C
  C24      1.0000 0.21860  0.16290  0.49310  Biso   1.000  C
  C25      1.0000 0.14560  0.36219  0.93281  Biso   1.000  C
  C26      1.0000 0.85440  0.86219  0.56719  Biso   1.000  C
  C27      1.0000 0.85440  0.63781  0.06719  Biso   1.000  C
  C28      1.0000 0.14560  0.13781  0.43281  Biso   1.000  C
  H17      1.0000 0.10400  0.31230  0.90450  Biso   1.000  H
  H18      1.0000 0.89600  0.81230  0.59550  Biso   1.000  H
  H19      1.0000 0.89600  0.68770  0.09550  Biso   1.000  H
  H20      1.0000 0.10400  0.18770  0.40450  Biso   1.000  H
  C29      1.0000 0.13650  0.46276  0.91600  Biso   1.000  C
  C30      1.0000 0.86350  0.96276  0.58400  Biso   1.000  C
  C31      1.0000 0.86350  0.53724  0.08400  Biso   1.000  C
  C32      1.0000 0.13650  0.03724  0.41600  Biso   1.000  C
  H21      1.0000 0.08750  0.48050  0.87580  Biso   1.000  H
  H22      1.0000 0.91250  0.98050  0.62420  Biso   1.000  H
  H23      1.0000 0.91250  0.51950  0.12420  Biso   1.000  H
  H24      1.0000 0.08750  0.01950  0.37580  Biso   1.000  H
  C33      1.0000 0.19820  0.53797  0.95734  Biso   1.000  C
  C34      1.0000 0.80180  0.03797  0.54266  Biso   1.000  C
  C35      1.0000 0.80180  0.46203  0.04266  Biso   1.000  C
  C36      1.0000 0.19820  0.96203  0.45734  Biso   1.000  C
  H25      1.0000 0.19260  0.60570  0.94550  Biso   1.000  H
  H26      1.0000 0.80740  0.10570  0.55450  Biso   1.000  H
  H27      1.0000 0.80740  0.39430  0.05450  Biso   1.000  H
  H28      1.0000 0.19260  0.89430  0.44550  Biso   1.000  H
  C37      1.0000 0.26895  0.50873  0.01737  Biso   1.000  C
  C38      1.0000 0.73105  0.00873  0.48263  Biso   1.000  C
  C39      1.0000 0.73105  0.49127  0.98263  Biso   1.000  C
  C40      1.0000 0.26895  0.99127  0.51737  Biso   1.000  C
  C41      1.0000 0.34620  0.57584  0.06829  Biso   1.000  C
  C42      1.0000 0.65380  0.07584  0.43171  Biso   1.000  C
  C43      1.0000 0.65380  0.42416  0.93171  Biso   1.000  C
  C44      1.0000 0.34620  0.92416  0.56829  Biso   1.000  C
  C45      1.0000 0.36110  0.67912  0.06312  Biso   1.000  C
  C46      1.0000 0.63890  0.17912  0.43688  Biso   1.000  C
  C47      1.0000 0.63890  0.32088  0.93688  Biso   1.000  C
  C48      1.0000 0.36110  0.82088  0.56312  Biso   1.000  C
  H29      1.0000 0.31740  0.71240  0.02640  Biso   1.000  H
  H30      1.0000 0.68260  0.21240  0.47360  Biso   1.000  H
  H31      1.0000 0.68260  0.28760  0.97360  Biso   1.000  H
  H32      1.0000 0.31740  0.78760  0.52640  Biso   1.000  H
  C49      1.0000 0.44240  0.73271  0.11359  Biso   1.000  C
  C50      1.0000 0.55760  0.23271  0.38641  Biso   1.000  C
  C51      1.0000 0.55760  0.26729  0.88641  Biso   1.000  C
  C52      1.0000 0.44240  0.76729  0.61359  Biso   1.000  C
  H33      1.0000 0.45530  0.80250  0.11090  Biso   1.000  H
  H34      1.0000 0.54470  0.30250  0.38910  Biso   1.000  H
  H35      1.0000 0.54470  0.19750  0.88910  Biso   1.000  H
  H36      1.0000 0.45530  0.69750  0.61090  Biso   1.000  H
  C53      1.0000 0.50360  0.68227  0.16753  Biso   1.000  C
  C54      1.0000 0.49640  0.18227  0.33247  Biso   1.000  C
  C55      1.0000 0.49640  0.31773  0.83247  Biso   1.000  C
  C56      1.0000 0.50360  0.81773  0.66753  Biso   1.000  C
  H37      1.0000 0.55890  0.71740  0.20170  Biso   1.000  H
  H38      1.0000 0.44110  0.21740  0.29830  Biso   1.000  H
  H39      1.0000 0.44110  0.28260  0.79830  Biso   1.000  H
  H40      1.0000 0.55890  0.78260  0.70170  Biso   1.000  H
  C57      1.0000 0.48240  0.57880  0.17064  Biso   1.000  C
  C58      1.0000 0.51760  0.07880  0.32936  Biso   1.000  C
  C59      1.0000 0.51760  0.42120  0.82936  Biso   1.000  C
  C60      1.0000 0.48240  0.92120  0.67064  Biso   1.000  C
  H41      1.0000 0.52220  0.54500  0.20760  Biso   1.000  H
  H42      1.0000 0.47780  0.04500  0.29240  Biso   1.000  H
  H43      1.0000 0.47780  0.45500  0.79240  Biso   1.000  H
  H44      1.0000 0.52220  0.95500  0.70760  Biso   1.000  H
  N13      1.0000 0.57155  0.33773  0.17876  Biso   1.000  N
  N14      1.0000 0.42845  0.83773  0.32124  Biso   1.000  N
  N15      1.0000 0.42845  0.66227  0.82124  Biso   1.000  N
  N16      1.0000 0.57155  0.16227  0.67876  Biso   1.000  N
  N17      1.0000 0.14970  0.36397  0.17647  Biso   1.000  N
  N18      1.0000 0.85030  0.86397  0.32353  Biso   1.000  N
  N19      1.0000 0.85030  0.63603  0.82353  Biso   1.000  N
  N20      1.0000 0.14970  0.13603  0.67647  Biso   1.000  N
  N21      1.0000 0.91090  0.34409  0.36153  Biso   1.000  N
  N22      1.0000 0.08910  0.84409  0.13847  Biso   1.000  N
  N23      1.0000 0.08910  0.65591  0.63847  Biso   1.000  N
  N24      1.0000 0.91090  0.15591  0.86153  Biso   1.000  N
  C61      1.0000 0.87470  0.34376  0.24032  Biso   1.000  C
  C62      1.0000 0.12530  0.84376  0.25968  Biso   1.000  C
  C63      1.0000 0.12530  0.65624  0.75968  Biso   1.000  C
  C64      1.0000 0.87470  0.15624  0.74032  Biso   1.000  C
  C65      1.0000 0.70670  0.34045  0.20750  Biso   1.000  C
  C66      1.0000 0.29330  0.84045  0.29250  Biso   1.000  C
  C67      1.0000 0.29330  0.65955  0.79250  Biso   1.000  C
  C68      1.0000 0.70670  0.15955  0.70750  Biso   1.000  C
  C69      1.0000 0.02650  0.35370  0.20528  Biso   1.000  C
  C70      1.0000 0.97350  0.85370  0.29472  Biso   1.000  C
  C71      1.0000 0.97350  0.64630  0.79472  Biso   1.000  C
  C72      1.0000 0.02650  0.14630  0.70528  Biso   1.000  C
  C73      1.0000 0.89310  0.34390  0.30727  Biso   1.000  C
  C74      1.0000 0.10690  0.84390  0.19273  Biso   1.000  C
  C75      1.0000 0.10690  0.65610  0.69273  Biso   1.000  C
  C76      1.0000 0.89310  0.15610  0.80727  Biso   1.000  C
  C77      1.0000 0.85250  0.08492  0.16995  Biso   1.000  C
  C78      1.0000 0.14750  0.58492  0.33005  Biso   1.000  C
  C79      1.0000 0.14750  0.91508  0.83005  Biso   1.000  C
  C80      1.0000 0.85250  0.41508  0.66995  Biso   1.000  C
  C81      1.0000 0.84030  0.14895  0.11742  Biso   1.000  C
  C82      1.0000 0.15970  0.64895  0.38258  Biso   1.000  C
  C83      1.0000 0.15970  0.85105  0.88258  Biso   1.000  C
  C84      1.0000 0.84030  0.35105  0.61742  Biso   1.000  C
  C85      1.0000 0.72620  0.00690  0.17547  Biso   1.000  C
  C86      1.0000 0.27380  0.50690  0.32453  Biso   1.000  C
  C87      1.0000 0.27380  0.99310  0.82453  Biso   1.000  C
  C88      1.0000 0.72620  0.49310  0.67547  Biso   1.000  C
  C89      1.0000 0.99390  0.09590  0.21694  Biso   1.000  C
  C90      1.0000 0.00610  0.59590  0.28306  Biso   1.000  C
  C91      1.0000 0.00610  0.90410  0.78306  Biso   1.000  C
  C92      1.0000 0.99390  0.40410  0.71694  Biso   1.000  C
  N25      1.0000 0.82800  0.20238  0.07373  Biso   1.000  N
  N26      1.0000 0.17200  0.70238  0.42627  Biso   1.000  N
  N27      1.0000 0.17200  0.79762  0.92627  Biso   1.000  N
  N28      1.0000 0.82800  0.29762  0.57373  Biso   1.000  N
  N29      1.0000 0.62230  0.94392  0.18018  Biso   1.000  N
  N30      1.0000 0.37770  0.44392  0.31982  Biso   1.000  N
  N31      1.0000 0.37770  0.05608  0.81982  Biso   1.000  N
  N32      1.0000 0.62230  0.55608  0.68018  Biso   1.000  N
  N33      1.0000 0.10770  0.10540  0.25518  Biso   1.000  N
  N34      1.0000 0.89230  0.60540  0.24482  Biso   1.000  N
  N35      1.0000 0.89230  0.89460  0.74482  Biso   1.000  N
  N36      1.0000 0.10770  0.39460  0.75518  Biso   1.000  N
