data_image0
_cell_length_a       7.4889
_cell_length_b       11.0496
_cell_length_c       11.5924
_cell_angle_alpha    116.319
_cell_angle_beta     90.635
_cell_angle_gamma    108.26

_symmetry_space_group_name_H-M    "P 1"
_symmetry_int_tables_number       1

loop_
  _symmetry_equiv_pos_as_xyz
  'x, y, z'

loop_
  _atom_site_label
  _atom_site_occupancy
  _atom_site_fract_x
  _atom_site_fract_y
  _atom_site_fract_z
  _atom_site_thermal_displace_type
  _atom_site_B_iso_or_equiv
  _atom_site_type_symbol
  Cu1      1.0000 0.42695  0.35207  0.74257  Biso   1.000  Cu
  Cu2      1.0000 0.57305  0.64793  0.25743  Biso   1.000  Cu
  N1       1.0000 0.33560  0.13783  0.61227  Biso   1.000  N
  N2       1.0000 0.66440  0.86217  0.38773  Biso   1.000  N
  N3       1.0000 0.31120  0.35686  0.59090  Biso   1.000  N
  N4       1.0000 0.68880  0.64314  0.40910  Biso   1.000  N
  C1       1.0000 0.17130  0.96130  0.39571  Biso   1.000  C
  C2       1.0000 0.82870  0.03870  0.60429  Biso   1.000  C
  N5       1.0000 0.61430  0.32983  0.84801  Biso   1.000  N
  N6       1.0000 0.38570  0.67017  0.15199  Biso   1.000  N
  N7       1.0000 0.19080  0.33344  0.85129  Biso   1.000  N
  N8       1.0000 0.80920  0.66656  0.14871  Biso   1.000  N
  N9       1.0000 0.91040  0.33960  0.18740  Biso   1.000  N
  N10      1.0000 0.08960  0.66040  0.81260  Biso   1.000  N
  N11      1.0000 0.54540  0.56340  0.83649  Biso   1.000  N
  N12      1.0000 0.45460  0.43660  0.16351  Biso   1.000  N
  N13      1.0000 0.92170  0.99400  0.14833  Biso   1.000  N
  N14      1.0000 0.07830  0.00600  0.85167  Biso   1.000  N
  N15      1.0000 0.56220  0.94710  0.81370  Biso   1.000  N
  N16      1.0000 0.43780  0.05290  0.18630  Biso   1.000  N
  C3       1.0000 0.34860  0.03270  0.63620  Biso   1.000  C
  C4       1.0000 0.65140  0.96730  0.36380  Biso   1.000  C
  C5       1.0000 0.27330  0.88900  0.54310  Biso   1.000  C
  C6       1.0000 0.72670  0.11100  0.45690  Biso   1.000  C
  C7       1.0000 0.18310  0.85320  0.42210  Biso   1.000  C
  C8       1.0000 0.81690  0.14680  0.57790  Biso   1.000  C
  C9       1.0000 0.24820  0.10225  0.49333  Biso   1.000  C
  C10      1.0000 0.75180  0.89775  0.50667  Biso   1.000  C
  C11      1.0000 0.23960  0.22800  0.48590  Biso   1.000  C
  C12      1.0000 0.76040  0.77200  0.51410  Biso   1.000  C
  N17      1.0000 0.15920  0.23850  0.38864  Biso   1.000  N
  N18      1.0000 0.84080  0.76150  0.61136  Biso   1.000  N
  C13      1.0000 0.17830  0.37880  0.43300  Biso   1.000  C
  C14      1.0000 0.82170  0.62120  0.56700  Biso   1.000  C
  C15      1.0000 0.27380  0.45230  0.55850  Biso   1.000  C
  C16      1.0000 0.72620  0.54770  0.44150  Biso   1.000  C
  C17      1.0000 0.89930  0.32430  0.96259  Biso   1.000  C
  C18      1.0000 0.10070  0.67570  0.03741  Biso   1.000  C
  C19      1.0000 0.74020  0.32690  0.90176  Biso   1.000  C
  C20      1.0000 0.25980  0.67310  0.09824  Biso   1.000  C
  C21      1.0000 0.06090  0.32915  0.90279  Biso   1.000  C
  C22      1.0000 0.93910  0.67085  0.09721  Biso   1.000  C
  C23      1.0000 0.90390  0.33150  0.08610  Biso   1.000  C
  C24      1.0000 0.09610  0.66850  0.91390  Biso   1.000  C
  C25      1.0000 0.60530  0.68700  0.88469  Biso   1.000  C
  C26      1.0000 0.39470  0.31300  0.11531  Biso   1.000  C
  C27      1.0000 0.67450  0.83628  0.93894  Biso   1.000  C
  C28      1.0000 0.32550  0.16372  0.06106  Biso   1.000  C
  C29      1.0000 0.81040  0.92280  0.05446  Biso   1.000  C
  C30      1.0000 0.18960  0.07720  0.94554  Biso   1.000  C
  C31      1.0000 0.61210  0.89930  0.87130  Biso   1.000  C
  C32      1.0000 0.38790  0.10070  0.12870  Biso   1.000  C
  H1       1.0000 0.40600  0.06000  0.71900  Biso   1.000  H
  H2       1.0000 0.59400  0.94000  0.28100  Biso   1.000  H
  H3       1.0000 0.31900  0.54800  0.61700  Biso   1.000  H
  H4       1.0000 0.68100  0.45200  0.38300  Biso   1.000  H
  H5       1.0000 0.12000  0.94300  0.31800  Biso   1.000  H
  H6       1.0000 0.88000  0.05700  0.68200  Biso   1.000  H
  H7       1.0000 0.13700  0.41100  0.38200  Biso   1.000  H
  H8       1.0000 0.86300  0.58900  0.61800  Biso   1.000  H
  H9       1.0000 0.28300  0.81500  0.56800  Biso   1.000  H
  H10      1.0000 0.71700  0.18500  0.43200  Biso   1.000  H
  H11      1.0000 0.09500  0.16900  0.31600  Biso   1.000  H
  H12      1.0000 0.90500  0.83100  0.68400  Biso   1.000  H
  H13      1.0000 0.13500  0.75800  0.35800  Biso   1.000  H
  H14      1.0000 0.86500  0.24200  0.64200  Biso   1.000  H
