data_image0
_cell_length_a       18.6355
_cell_length_b       18.6355
_cell_length_c       34.4019
_cell_angle_alpha    90
_cell_angle_beta     90
_cell_angle_gamma    120

_symmetry_space_group_name_H-M    "P 1"
_symmetry_int_tables_number       1

loop_
  _symmetry_equiv_pos_as_xyz
  'x, y, z'

loop_
  _atom_site_label
  _atom_site_occupancy
  _atom_site_fract_x
  _atom_site_fract_y
  _atom_site_fract_z
  _atom_site_thermal_displace_type
  _atom_site_B_iso_or_equiv
  _atom_site_type_symbol
  Cu1      1.0000 0.14330  0.85670  0.30179  Biso   1.000  Cu
  Cu2      1.0000 0.14330  0.28660  0.30179  Biso   1.000  Cu
  Cu3      1.0000 0.71340  0.85670  0.30179  Biso   1.000  Cu
  Cu4      1.0000 0.85670  0.14330  0.69821  Biso   1.000  Cu
  Cu5      1.0000 0.28660  0.14330  0.69821  Biso   1.000  Cu
  Cu6      1.0000 0.85670  0.71340  0.69821  Biso   1.000  Cu
  Cu7      1.0000 0.80997  0.19003  0.63512  Biso   1.000  Cu
  Cu8      1.0000 0.80997  0.61993  0.63512  Biso   1.000  Cu
  Cu9      1.0000 0.38007  0.19003  0.63512  Biso   1.000  Cu
  Cu10     1.0000 0.52337  0.47663  0.03154  Biso   1.000  Cu
  Cu11     1.0000 0.95327  0.47663  0.03154  Biso   1.000  Cu
  Cu12     1.0000 0.52337  0.04673  0.03154  Biso   1.000  Cu
  Cu13     1.0000 0.47663  0.52337  0.96846  Biso   1.000  Cu
  Cu14     1.0000 0.47663  0.95327  0.96846  Biso   1.000  Cu
  Cu15     1.0000 0.04673  0.52337  0.96846  Biso   1.000  Cu
  Cu16     1.0000 0.19003  0.80997  0.36488  Biso   1.000  Cu
  Cu17     1.0000 0.61993  0.80997  0.36488  Biso   1.000  Cu
  Cu18     1.0000 0.19003  0.38007  0.36488  Biso   1.000  Cu
  O1       1.0000 0.07712  0.77466  0.38306  Biso   1.000  O
  O2       1.0000 0.22534  0.30246  0.38306  Biso   1.000  O
  O3       1.0000 0.69754  0.92288  0.38306  Biso   1.000  O
  O4       1.0000 0.77466  0.07712  0.61694  Biso   1.000  O
  O5       1.0000 0.30246  0.22534  0.61694  Biso   1.000  O
  O6       1.0000 0.92288  0.69754  0.61694  Biso   1.000  O
  O7       1.0000 0.74379  0.10799  0.71639  Biso   1.000  O
  O8       1.0000 0.89201  0.63579  0.71639  Biso   1.000  O
  O9       1.0000 0.36421  0.25621  0.71639  Biso   1.000  O
  O10      1.0000 0.44133  0.41045  0.95027  Biso   1.000  O
  O11      1.0000 0.96913  0.55867  0.95027  Biso   1.000  O
  O12      1.0000 0.58955  0.03087  0.95027  Biso   1.000  O
  O13      1.0000 0.41045  0.44133  0.04973  Biso   1.000  O
  O14      1.0000 0.55867  0.96913  0.04973  Biso   1.000  O
  O15      1.0000 0.03087  0.58955  0.04973  Biso   1.000  O
  O16      1.0000 0.10799  0.74379  0.28361  Biso   1.000  O
  O17      1.0000 0.63579  0.89201  0.28361  Biso   1.000  O
  O18      1.0000 0.25621  0.36421  0.28361  Biso   1.000  O
  O19      1.0000 0.92288  0.22534  0.61694  Biso   1.000  O
  O20      1.0000 0.77466  0.69754  0.61694  Biso   1.000  O
  O21      1.0000 0.30246  0.07712  0.61694  Biso   1.000  O
  O22      1.0000 0.22534  0.92288  0.38306  Biso   1.000  O
  O23      1.0000 0.69754  0.77466  0.38306  Biso   1.000  O
  O24      1.0000 0.07712  0.30246  0.38306  Biso   1.000  O
  O25      1.0000 0.58955  0.55867  0.95027  Biso   1.000  O
  O26      1.0000 0.44133  0.03087  0.95027  Biso   1.000  O
  O27      1.0000 0.96913  0.41045  0.95027  Biso   1.000  O
  O28      1.0000 0.89201  0.25621  0.71639  Biso   1.000  O
  O29      1.0000 0.36421  0.10799  0.71639  Biso   1.000  O
  O30      1.0000 0.74379  0.63579  0.71639  Biso   1.000  O
  O31      1.0000 0.25621  0.89201  0.28361  Biso   1.000  O
  O32      1.0000 0.10799  0.36421  0.28361  Biso   1.000  O
  O33      1.0000 0.63579  0.74379  0.28361  Biso   1.000  O
  O34      1.0000 0.55867  0.58955  0.04973  Biso   1.000  O
  O35      1.0000 0.03087  0.44133  0.04973  Biso   1.000  O
  O36      1.0000 0.41045  0.96913  0.04973  Biso   1.000  O
  O37      1.0000 0.03815  0.81507  0.32974  Biso   1.000  O
  O38      1.0000 0.18493  0.22308  0.32974  Biso   1.000  O
  O39      1.0000 0.77692  0.96185  0.32974  Biso   1.000  O
  O40      1.0000 0.81507  0.03815  0.67026  Biso   1.000  O
  O41      1.0000 0.22308  0.18493  0.67026  Biso   1.000  O
  O42      1.0000 0.96185  0.77692  0.67026  Biso   1.000  O
  O43      1.0000 0.70482  0.14840  0.66307  Biso   1.000  O
  O44      1.0000 0.85160  0.55641  0.66307  Biso   1.000  O
  O45      1.0000 0.44359  0.29518  0.66307  Biso   1.000  O
  O46      1.0000 0.48174  0.37148  0.00359  Biso   1.000  O
  O47      1.0000 0.88975  0.51826  0.00359  Biso   1.000  O
  O48      1.0000 0.62852  0.11025  0.00359  Biso   1.000  O
  O49      1.0000 0.37148  0.48174  0.99641  Biso   1.000  O
  O50      1.0000 0.51826  0.88975  0.99641  Biso   1.000  O
  O51      1.0000 0.11025  0.62852  0.99641  Biso   1.000  O
  O52      1.0000 0.14840  0.70482  0.33693  Biso   1.000  O
  O53      1.0000 0.55641  0.85160  0.33693  Biso   1.000  O
  O54      1.0000 0.29518  0.44359  0.33693  Biso   1.000  O
  O55      1.0000 0.96185  0.18493  0.67026  Biso   1.000  O
  O56      1.0000 0.81507  0.77692  0.67026  Biso   1.000  O
  O57      1.0000 0.22308  0.03815  0.67026  Biso   1.000  O
  O58      1.0000 0.18493  0.96185  0.32974  Biso   1.000  O
  O59      1.0000 0.77692  0.81507  0.32974  Biso   1.000  O
  O60      1.0000 0.03815  0.22308  0.32974  Biso   1.000  O
  O61      1.0000 0.62852  0.51826  0.00359  Biso   1.000  O
  O62      1.0000 0.48174  0.11025  0.00359  Biso   1.000  O
  O63      1.0000 0.88975  0.37148  0.00359  Biso   1.000  O
  O64      1.0000 0.85160  0.29518  0.66307  Biso   1.000  O
  O65      1.0000 0.44359  0.14840  0.66307  Biso   1.000  O
  O66      1.0000 0.70482  0.55641  0.66307  Biso   1.000  O
  O67      1.0000 0.29518  0.85160  0.33693  Biso   1.000  O
  O68      1.0000 0.14840  0.44359  0.33693  Biso   1.000  O
  O69      1.0000 0.55641  0.70482  0.33693  Biso   1.000  O
  O70      1.0000 0.51826  0.62852  0.99641  Biso   1.000  O
  O71      1.0000 0.11025  0.48174  0.99641  Biso   1.000  O
  O72      1.0000 0.37148  0.88975  0.99641  Biso   1.000  O
  N1       1.0000 0.76862  0.53723  0.58431  Biso   1.000  N
  N2       1.0000 0.46277  0.23139  0.58431  Biso   1.000  N
  N3       1.0000 0.76861  0.23138  0.58431  Biso   1.000  N
  N4       1.0000 0.53723  0.76862  0.41569  Biso   1.000  N
  N5       1.0000 0.23139  0.46277  0.41569  Biso   1.000  N
  N6       1.0000 0.23138  0.76861  0.41569  Biso   1.000  N
  N7       1.0000 0.43529  0.87056  0.91764  Biso   1.000  N
  N8       1.0000 0.12944  0.56472  0.91764  Biso   1.000  N
  N9       1.0000 0.43528  0.56471  0.91764  Biso   1.000  N
  N10      1.0000 0.20390  0.10195  0.74902  Biso   1.000  N
  N11      1.0000 0.89806  0.79610  0.74902  Biso   1.000  N
  N12      1.0000 0.89805  0.10194  0.74902  Biso   1.000  N
  N13      1.0000 0.10195  0.20390  0.25098  Biso   1.000  N
  N14      1.0000 0.79610  0.89806  0.25098  Biso   1.000  N
  N15      1.0000 0.10194  0.89805  0.25098  Biso   1.000  N
  N16      1.0000 0.87056  0.43529  0.08236  Biso   1.000  N
  N17      1.0000 0.56472  0.12944  0.08236  Biso   1.000  N
  N18      1.0000 0.56471  0.43528  0.08236  Biso   1.000  N
  H1       1.0000 0.79090  0.50470  0.58570  Biso   1.000  H
  H2       1.0000 0.49530  0.28620  0.58570  Biso   1.000  H
  H3       1.0000 0.71380  0.20910  0.58570  Biso   1.000  H
  H4       1.0000 0.50470  0.79090  0.41430  Biso   1.000  H
  H5       1.0000 0.28620  0.49530  0.41430  Biso   1.000  H
  H6       1.0000 0.20910  0.71380  0.41430  Biso   1.000  H
  H7       1.0000 0.45757  0.83803  0.91903  Biso   1.000  H
  H8       1.0000 0.16197  0.61953  0.91903  Biso   1.000  H
  H9       1.0000 0.38047  0.54243  0.91903  Biso   1.000  H
  H10      1.0000 0.17137  0.12423  0.74763  Biso   1.000  H
  H11      1.0000 0.95287  0.82863  0.74763  Biso   1.000  H
  H12      1.0000 0.87577  0.04713  0.74763  Biso   1.000  H
  H13      1.0000 0.12423  0.17137  0.25237  Biso   1.000  H
  H14      1.0000 0.82863  0.95287  0.25237  Biso   1.000  H
  H15      1.0000 0.04713  0.87577  0.25237  Biso   1.000  H
  H16      1.0000 0.83803  0.45757  0.08097  Biso   1.000  H
  H17      1.0000 0.61953  0.16197  0.08097  Biso   1.000  H
  H18      1.0000 0.54243  0.38047  0.08097  Biso   1.000  H
  H19      1.0000 0.20910  0.49530  0.41430  Biso   1.000  H
  H20      1.0000 0.50470  0.71380  0.41430  Biso   1.000  H
  H21      1.0000 0.28620  0.79090  0.41430  Biso   1.000  H
  H22      1.0000 0.49530  0.20910  0.58570  Biso   1.000  H
  H23      1.0000 0.71380  0.50470  0.58570  Biso   1.000  H
  H24      1.0000 0.79090  0.28620  0.58570  Biso   1.000  H
  H25      1.0000 0.87577  0.82863  0.74763  Biso   1.000  H
  H26      1.0000 0.17137  0.04713  0.74763  Biso   1.000  H
  H27      1.0000 0.95287  0.12423  0.74763  Biso   1.000  H
  H28      1.0000 0.16197  0.54243  0.91903  Biso   1.000  H
  H29      1.0000 0.38047  0.83803  0.91903  Biso   1.000  H
  H30      1.0000 0.45757  0.61953  0.91903  Biso   1.000  H
  H31      1.0000 0.54243  0.16197  0.08097  Biso   1.000  H
  H32      1.0000 0.83803  0.38047  0.08097  Biso   1.000  H
  H33      1.0000 0.61953  0.45757  0.08097  Biso   1.000  H
  H34      1.0000 0.82863  0.87577  0.25237  Biso   1.000  H
  H35      1.0000 0.04713  0.17137  0.25237  Biso   1.000  H
  H36      1.0000 0.12423  0.95287  0.25237  Biso   1.000  H
  C1       1.0000 0.83015  0.66030  0.47556  Biso   1.000  C
  C2       1.0000 0.33970  0.16985  0.47556  Biso   1.000  C
  C3       1.0000 0.83015  0.16985  0.47556  Biso   1.000  C
  C4       1.0000 0.66030  0.83015  0.52444  Biso   1.000  C
  C5       1.0000 0.16985  0.33970  0.52444  Biso   1.000  C
  C6       1.0000 0.16985  0.83015  0.52444  Biso   1.000  C
  C7       1.0000 0.49682  0.99363  0.80889  Biso   1.000  C
  C8       1.0000 0.00637  0.50318  0.80889  Biso   1.000  C
  C9       1.0000 0.49682  0.50318  0.80889  Biso   1.000  C
  C10      1.0000 0.32697  0.16348  0.85777  Biso   1.000  C
  C11      1.0000 0.83652  0.67303  0.85777  Biso   1.000  C
  C12      1.0000 0.83652  0.16348  0.85777  Biso   1.000  C
  C13      1.0000 0.16348  0.32697  0.14223  Biso   1.000  C
  C14      1.0000 0.67303  0.83652  0.14223  Biso   1.000  C
  C15      1.0000 0.16348  0.83652  0.14223  Biso   1.000  C
  C16      1.0000 0.99363  0.49682  0.19111  Biso   1.000  C
  C17      1.0000 0.50318  0.00637  0.19111  Biso   1.000  C
  C18      1.0000 0.50318  0.49682  0.19111  Biso   1.000  C
  C19      1.0000 0.02690  0.78571  0.36374  Biso   1.000  C
  C20      1.0000 0.21429  0.24119  0.36374  Biso   1.000  C
  C21      1.0000 0.75881  0.97310  0.36374  Biso   1.000  C
  C22      1.0000 0.78571  0.02690  0.63626  Biso   1.000  C
  C23      1.0000 0.24119  0.21429  0.63626  Biso   1.000  C
  C24      1.0000 0.97310  0.75881  0.63626  Biso   1.000  C
  C25      1.0000 0.69357  0.11904  0.69707  Biso   1.000  C
  C26      1.0000 0.88096  0.57452  0.69707  Biso   1.000  C
  C27      1.0000 0.42548  0.30643  0.69707  Biso   1.000  C
  C28      1.0000 0.45238  0.36023  0.96959  Biso   1.000  C
  C29      1.0000 0.90786  0.54762  0.96959  Biso   1.000  C
  C30      1.0000 0.63977  0.09214  0.96959  Biso   1.000  C
  C31      1.0000 0.36023  0.45238  0.03041  Biso   1.000  C
  C32      1.0000 0.54762  0.90786  0.03041  Biso   1.000  C
  C33      1.0000 0.09214  0.63977  0.03041  Biso   1.000  C
  C34      1.0000 0.11904  0.69357  0.30293  Biso   1.000  C
  C35      1.0000 0.57452  0.88096  0.30293  Biso   1.000  C
  C36      1.0000 0.30643  0.42548  0.30293  Biso   1.000  C
  C37      1.0000 0.97310  0.21429  0.63626  Biso   1.000  C
  C38      1.0000 0.78571  0.75881  0.63626  Biso   1.000  C
  C39      1.0000 0.24119  0.02690  0.63626  Biso   1.000  C
  C40      1.0000 0.21429  0.97310  0.36374  Biso   1.000  C
  C41      1.0000 0.75881  0.78571  0.36374  Biso   1.000  C
  C42      1.0000 0.02690  0.24119  0.36374  Biso   1.000  C
  C43      1.0000 0.63977  0.54762  0.96959  Biso   1.000  C
  C44      1.0000 0.45238  0.09214  0.96959  Biso   1.000  C
  C45      1.0000 0.90786  0.36023  0.96959  Biso   1.000  C
  C46      1.0000 0.88096  0.30643  0.69707  Biso   1.000  C
  C47      1.0000 0.42548  0.11904  0.69707  Biso   1.000  C
  C48      1.0000 0.69357  0.57452  0.69707  Biso   1.000  C
  C49      1.0000 0.30643  0.88096  0.30293  Biso   1.000  C
  C50      1.0000 0.11904  0.42548  0.30293  Biso   1.000  C
  C51      1.0000 0.57452  0.69357  0.30293  Biso   1.000  C
  C52      1.0000 0.54762  0.63977  0.03041  Biso   1.000  C
  C53      1.0000 0.09214  0.45238  0.03041  Biso   1.000  C
  C54      1.0000 0.36023  0.90786  0.03041  Biso   1.000  C
  C55      1.0000 0.89028  0.78060  0.36387  Biso   1.000  C
  C56      1.0000 0.21940  0.10968  0.36387  Biso   1.000  C
  C57      1.0000 0.89032  0.10972  0.36387  Biso   1.000  C
  C58      1.0000 0.78060  0.89028  0.63613  Biso   1.000  C
  C59      1.0000 0.10968  0.21940  0.63613  Biso   1.000  C
  C60      1.0000 0.10972  0.89032  0.63613  Biso   1.000  C
  C61      1.0000 0.55695  0.11393  0.69720  Biso   1.000  C
  C62      1.0000 0.88607  0.44301  0.69720  Biso   1.000  C
  C63      1.0000 0.55699  0.44305  0.69720  Biso   1.000  C
  C64      1.0000 0.44727  0.22361  0.96946  Biso   1.000  C
  C65      1.0000 0.77635  0.55273  0.96946  Biso   1.000  C
  C66      1.0000 0.77639  0.22365  0.96946  Biso   1.000  C
  C67      1.0000 0.22361  0.44727  0.03054  Biso   1.000  C
  C68      1.0000 0.55273  0.77635  0.03054  Biso   1.000  C
  C69      1.0000 0.22365  0.77639  0.03054  Biso   1.000  C
  C70      1.0000 0.11393  0.55695  0.30280  Biso   1.000  C
  C71      1.0000 0.44301  0.88607  0.30280  Biso   1.000  C
  C72      1.0000 0.44305  0.55699  0.30280  Biso   1.000  C
  H37      1.0000 0.90260  0.80520  0.33940  Biso   1.000  H
  H38      1.0000 0.19480  0.09740  0.33940  Biso   1.000  H
  H39      1.0000 0.90260  0.09740  0.33940  Biso   1.000  H
  H40      1.0000 0.80520  0.90260  0.66060  Biso   1.000  H
  H41      1.0000 0.09740  0.19480  0.66060  Biso   1.000  H
  H42      1.0000 0.09740  0.90260  0.66060  Biso   1.000  H
  H43      1.0000 0.56927  0.13853  0.67273  Biso   1.000  H
  H44      1.0000 0.86147  0.43073  0.67273  Biso   1.000  H
  H45      1.0000 0.56927  0.43073  0.67273  Biso   1.000  H
  H46      1.0000 0.47187  0.23593  0.99393  Biso   1.000  H
  H47      1.0000 0.76407  0.52813  0.99393  Biso   1.000  H
  H48      1.0000 0.76407  0.23593  0.99393  Biso   1.000  H
  H49      1.0000 0.23593  0.47187  0.00607  Biso   1.000  H
  H50      1.0000 0.52813  0.76407  0.00607  Biso   1.000  H
  H51      1.0000 0.23593  0.76407  0.00607  Biso   1.000  H
  H52      1.0000 0.13853  0.56927  0.32727  Biso   1.000  H
  H53      1.0000 0.43073  0.86147  0.32727  Biso   1.000  H
  H54      1.0000 0.43073  0.56927  0.32727  Biso   1.000  H
  C73      1.0000 0.94554  0.76209  0.38220  Biso   1.000  C
  C74      1.0000 0.23791  0.18345  0.38220  Biso   1.000  C
  C75      1.0000 0.81655  0.05446  0.38220  Biso   1.000  C
  C76      1.0000 0.76209  0.94554  0.61780  Biso   1.000  C
  C77      1.0000 0.18345  0.23791  0.61780  Biso   1.000  C
  C78      1.0000 0.05446  0.81655  0.61780  Biso   1.000  C
  C79      1.0000 0.61221  0.09542  0.71553  Biso   1.000  C
  C80      1.0000 0.90458  0.51678  0.71553  Biso   1.000  C
  C81      1.0000 0.48322  0.38779  0.71553  Biso   1.000  C
  C82      1.0000 0.42876  0.27887  0.95113  Biso   1.000  C
  C83      1.0000 0.85012  0.57124  0.95113  Biso   1.000  C
  C84      1.0000 0.72113  0.14988  0.95113  Biso   1.000  C
  C85      1.0000 0.27887  0.42876  0.04887  Biso   1.000  C
  C86      1.0000 0.57124  0.85012  0.04887  Biso   1.000  C
  C87      1.0000 0.14988  0.72113  0.04887  Biso   1.000  C
  C88      1.0000 0.09542  0.61221  0.28447  Biso   1.000  C
  C89      1.0000 0.51678  0.90458  0.28447  Biso   1.000  C
  C90      1.0000 0.38779  0.48322  0.28447  Biso   1.000  C
  C91      1.0000 0.05446  0.23791  0.61780  Biso   1.000  C
  C92      1.0000 0.76209  0.81655  0.61780  Biso   1.000  C
  C93      1.0000 0.18345  0.94554  0.61780  Biso   1.000  C
  C94      1.0000 0.23791  0.05446  0.38220  Biso   1.000  C
  C95      1.0000 0.81655  0.76209  0.38220  Biso   1.000  C
  C96      1.0000 0.94554  0.18345  0.38220  Biso   1.000  C
  C97      1.0000 0.72113  0.57124  0.95113  Biso   1.000  C
  C98      1.0000 0.42876  0.14988  0.95113  Biso   1.000  C
  C99      1.0000 0.85012  0.27887  0.95113  Biso   1.000  C
  C100     1.0000 0.90458  0.38779  0.71553  Biso   1.000  C
  C101     1.0000 0.48322  0.09542  0.71553  Biso   1.000  C
  C102     1.0000 0.61221  0.51678  0.71553  Biso   1.000  C
  C103     1.0000 0.38779  0.90458  0.28447  Biso   1.000  C
  C104     1.0000 0.09542  0.48322  0.28447  Biso   1.000  C
  C105     1.0000 0.51678  0.61221  0.28447  Biso   1.000  C
  C106     1.0000 0.57124  0.72113  0.04887  Biso   1.000  C
  C107     1.0000 0.14988  0.42876  0.04887  Biso   1.000  C
  C108     1.0000 0.27887  0.85012  0.04887  Biso   1.000  C
  C109     1.0000 0.78875  0.57750  0.54751  Biso   1.000  C
  C110     1.0000 0.42250  0.21125  0.54751  Biso   1.000  C
  C111     1.0000 0.78875  0.21125  0.54751  Biso   1.000  C
  C112     1.0000 0.57750  0.78875  0.45249  Biso   1.000  C
  C113     1.0000 0.21125  0.42250  0.45249  Biso   1.000  C
  C114     1.0000 0.21125  0.78875  0.45249  Biso   1.000  C
  C115     1.0000 0.45542  0.91083  0.88084  Biso   1.000  C
  C116     1.0000 0.08917  0.54458  0.88084  Biso   1.000  C
  C117     1.0000 0.45542  0.54458  0.88084  Biso   1.000  C
  C118     1.0000 0.24417  0.12208  0.78582  Biso   1.000  C
  C119     1.0000 0.87792  0.75583  0.78582  Biso   1.000  C
  C120     1.0000 0.87792  0.12208  0.78582  Biso   1.000  C
  C121     1.0000 0.12208  0.24417  0.21418  Biso   1.000  C
  C122     1.0000 0.75583  0.87792  0.21418  Biso   1.000  C
  C123     1.0000 0.12208  0.87792  0.21418  Biso   1.000  C
  C124     1.0000 0.91083  0.45542  0.11916  Biso   1.000  C
  C125     1.0000 0.54458  0.08917  0.11916  Biso   1.000  C
  C126     1.0000 0.54458  0.45542  0.11916  Biso   1.000  C
  C127     1.0000 0.92613  0.72405  0.41853  Biso   1.000  C
  C128     1.0000 0.27595  0.20208  0.41853  Biso   1.000  C
  C129     1.0000 0.79792  0.07387  0.41853  Biso   1.000  C
  C130     1.0000 0.72405  0.92613  0.58147  Biso   1.000  C
  C131     1.0000 0.20208  0.27595  0.58147  Biso   1.000  C
  C132     1.0000 0.07387  0.79792  0.58147  Biso   1.000  C
  C133     1.0000 0.59280  0.05738  0.75186  Biso   1.000  C
  C134     1.0000 0.94262  0.53541  0.75186  Biso   1.000  C
  C135     1.0000 0.46459  0.40720  0.75186  Biso   1.000  C
  C136     1.0000 0.39072  0.25946  0.91480  Biso   1.000  C
  C137     1.0000 0.86875  0.60928  0.91480  Biso   1.000  C
  C138     1.0000 0.74054  0.13125  0.91480  Biso   1.000  C
  C139     1.0000 0.25946  0.39072  0.08520  Biso   1.000  C
  C140     1.0000 0.60928  0.86875  0.08520  Biso   1.000  C
  C141     1.0000 0.13125  0.74054  0.08520  Biso   1.000  C
  C142     1.0000 0.05738  0.59280  0.24814  Biso   1.000  C
  C143     1.0000 0.53541  0.94262  0.24814  Biso   1.000  C
  C144     1.0000 0.40720  0.46459  0.24814  Biso   1.000  C
  C145     1.0000 0.07387  0.27595  0.58147  Biso   1.000  C
  C146     1.0000 0.72405  0.79792  0.58147  Biso   1.000  C
  C147     1.0000 0.20208  0.92613  0.58147  Biso   1.000  C
  C148     1.0000 0.27595  0.07387  0.41853  Biso   1.000  C
  C149     1.0000 0.79792  0.72405  0.41853  Biso   1.000  C
  C150     1.0000 0.92613  0.20208  0.41853  Biso   1.000  C
  C151     1.0000 0.74054  0.60928  0.91480  Biso   1.000  C
  C152     1.0000 0.39072  0.13125  0.91480  Biso   1.000  C
  C153     1.0000 0.86875  0.25946  0.91480  Biso   1.000  C
  C154     1.0000 0.94262  0.40720  0.75186  Biso   1.000  C
  C155     1.0000 0.46459  0.05738  0.75186  Biso   1.000  C
  C156     1.0000 0.59280  0.53541  0.75186  Biso   1.000  C
  C157     1.0000 0.40720  0.94262  0.24814  Biso   1.000  C
  C158     1.0000 0.05738  0.46459  0.24814  Biso   1.000  C
  C159     1.0000 0.53541  0.59280  0.24814  Biso   1.000  C
  C160     1.0000 0.60928  0.74054  0.08520  Biso   1.000  C
  C161     1.0000 0.13125  0.39072  0.08520  Biso   1.000  C
  C162     1.0000 0.25946  0.86875  0.08520  Biso   1.000  C
  H55      1.0000 0.96390  0.71260  0.43070  Biso   1.000  H
  H56      1.0000 0.28740  0.25130  0.43070  Biso   1.000  H
  H57      1.0000 0.74870  0.03610  0.43070  Biso   1.000  H
  H58      1.0000 0.71260  0.96390  0.56930  Biso   1.000  H
  H59      1.0000 0.25130  0.28740  0.56930  Biso   1.000  H
  H60      1.0000 0.03610  0.74870  0.56930  Biso   1.000  H
  H61      1.0000 0.63057  0.04593  0.76403  Biso   1.000  H
  H62      1.0000 0.95407  0.58463  0.76403  Biso   1.000  H
  H63      1.0000 0.41537  0.36943  0.76403  Biso   1.000  H
  H64      1.0000 0.37927  0.29723  0.90263  Biso   1.000  H
  H65      1.0000 0.91797  0.62073  0.90263  Biso   1.000  H
  H66      1.0000 0.70277  0.08203  0.90263  Biso   1.000  H
  H67      1.0000 0.29723  0.37927  0.09737  Biso   1.000  H
  H68      1.0000 0.62073  0.91797  0.09737  Biso   1.000  H
  H69      1.0000 0.08203  0.70277  0.09737  Biso   1.000  H
  H70      1.0000 0.04593  0.63057  0.23597  Biso   1.000  H
  H71      1.0000 0.58463  0.95407  0.23597  Biso   1.000  H
  H72      1.0000 0.36943  0.41537  0.23597  Biso   1.000  H
  H73      1.0000 0.03610  0.28740  0.56930  Biso   1.000  H
  H74      1.0000 0.71260  0.74870  0.56930  Biso   1.000  H
  H75      1.0000 0.25130  0.96390  0.56930  Biso   1.000  H
  H76      1.0000 0.28740  0.03610  0.43070  Biso   1.000  H
  H77      1.0000 0.74870  0.71260  0.43070  Biso   1.000  H
  H78      1.0000 0.96390  0.25130  0.43070  Biso   1.000  H
  H79      1.0000 0.70277  0.62073  0.90263  Biso   1.000  H
  H80      1.0000 0.37927  0.08203  0.90263  Biso   1.000  H
  H81      1.0000 0.91797  0.29723  0.90263  Biso   1.000  H
  H82      1.0000 0.95407  0.36943  0.76403  Biso   1.000  H
  H83      1.0000 0.41537  0.04593  0.76403  Biso   1.000  H
  H84      1.0000 0.63057  0.58463  0.76403  Biso   1.000  H
  H85      1.0000 0.36943  0.95407  0.23597  Biso   1.000  H
  H86      1.0000 0.04593  0.41537  0.23597  Biso   1.000  H
  H87      1.0000 0.58463  0.63057  0.23597  Biso   1.000  H
  H88      1.0000 0.62073  0.70277  0.09737  Biso   1.000  H
  H89      1.0000 0.08203  0.37927  0.09737  Biso   1.000  H
  H90      1.0000 0.29723  0.91797  0.09737  Biso   1.000  H
  C163     1.0000 0.85130  0.70260  0.43733  Biso   1.000  C
  C164     1.0000 0.29740  0.14870  0.43733  Biso   1.000  C
  C165     1.0000 0.85130  0.14870  0.43733  Biso   1.000  C
  C166     1.0000 0.70260  0.85130  0.56267  Biso   1.000  C
  C167     1.0000 0.14870  0.29740  0.56267  Biso   1.000  C
  C168     1.0000 0.14870  0.85130  0.56267  Biso   1.000  C
  C169     1.0000 0.51797  0.03593  0.77066  Biso   1.000  C
  C170     1.0000 0.96407  0.48203  0.77066  Biso   1.000  C
  C171     1.0000 0.51797  0.48203  0.77066  Biso   1.000  C
  C172     1.0000 0.36927  0.18463  0.89600  Biso   1.000  C
  C173     1.0000 0.81537  0.63073  0.89600  Biso   1.000  C
  C174     1.0000 0.81537  0.18463  0.89600  Biso   1.000  C
  C175     1.0000 0.18463  0.36927  0.10400  Biso   1.000  C
  C176     1.0000 0.63073  0.81537  0.10400  Biso   1.000  C
  C177     1.0000 0.18463  0.81537  0.10400  Biso   1.000  C
  C178     1.0000 0.03593  0.51797  0.22934  Biso   1.000  C
  C179     1.0000 0.48203  0.96407  0.22934  Biso   1.000  C
  C180     1.0000 0.48203  0.51797  0.22934  Biso   1.000  C
  C181     1.0000 0.73630  0.59790  0.52972  Biso   1.000  C
  C182     1.0000 0.40210  0.13840  0.52972  Biso   1.000  C
  C183     1.0000 0.86160  0.26370  0.52972  Biso   1.000  C
  C184     1.0000 0.59790  0.73630  0.47028  Biso   1.000  C
  C185     1.0000 0.13840  0.40210  0.47028  Biso   1.000  C
  C186     1.0000 0.26370  0.86160  0.47028  Biso   1.000  C
  C187     1.0000 0.40297  0.93123  0.86305  Biso   1.000  C
  C188     1.0000 0.06877  0.47173  0.86305  Biso   1.000  C
  C189     1.0000 0.52827  0.59703  0.86305  Biso   1.000  C
  C190     1.0000 0.26457  0.06963  0.80361  Biso   1.000  C
  C191     1.0000 0.80507  0.73543  0.80361  Biso   1.000  C
  C192     1.0000 0.93037  0.19493  0.80361  Biso   1.000  C
  C193     1.0000 0.06963  0.26457  0.19639  Biso   1.000  C
  C194     1.0000 0.73543  0.80507  0.19639  Biso   1.000  C
  C195     1.0000 0.19493  0.93037  0.19639  Biso   1.000  C
  C196     1.0000 0.93123  0.40297  0.13695  Biso   1.000  C
  C197     1.0000 0.47173  0.06877  0.13695  Biso   1.000  C
  C198     1.0000 0.59703  0.52827  0.13695  Biso   1.000  C
  C199     1.0000 0.26370  0.40210  0.47028  Biso   1.000  C
  C200     1.0000 0.59790  0.86160  0.47028  Biso   1.000  C
  C201     1.0000 0.13840  0.73630  0.47028  Biso   1.000  C
  C202     1.0000 0.40210  0.26370  0.52972  Biso   1.000  C
  C203     1.0000 0.86160  0.59790  0.52972  Biso   1.000  C
  C204     1.0000 0.73630  0.13840  0.52972  Biso   1.000  C
  C205     1.0000 0.93037  0.73543  0.80361  Biso   1.000  C
  C206     1.0000 0.26457  0.19493  0.80361  Biso   1.000  C
  C207     1.0000 0.80507  0.06963  0.80361  Biso   1.000  C
  C208     1.0000 0.06877  0.59703  0.86305  Biso   1.000  C
  C209     1.0000 0.52827  0.93123  0.86305  Biso   1.000  C
  C210     1.0000 0.40297  0.47173  0.86305  Biso   1.000  C
  C211     1.0000 0.59703  0.06877  0.13695  Biso   1.000  C
  C212     1.0000 0.93123  0.52827  0.13695  Biso   1.000  C
  C213     1.0000 0.47173  0.40297  0.13695  Biso   1.000  C
  C214     1.0000 0.73543  0.93037  0.19639  Biso   1.000  C
  C215     1.0000 0.19493  0.26457  0.19639  Biso   1.000  C
  C216     1.0000 0.06963  0.80507  0.19639  Biso   1.000  C
  H91      1.0000 0.68590  0.58420  0.54130  Biso   1.000  H
  H92      1.0000 0.41580  0.10170  0.54130  Biso   1.000  H
  H93      1.0000 0.89830  0.31410  0.54130  Biso   1.000  H
  H94      1.0000 0.58420  0.68590  0.45870  Biso   1.000  H
  H95      1.0000 0.10170  0.41580  0.45870  Biso   1.000  H
  H96      1.0000 0.31410  0.89830  0.45870  Biso   1.000  H
  H97      1.0000 0.35257  0.91753  0.87463  Biso   1.000  H
  H98      1.0000 0.08247  0.43503  0.87463  Biso   1.000  H
  H99      1.0000 0.56497  0.64743  0.87463  Biso   1.000  H
  H100     1.0000 0.25087  0.01923  0.79203  Biso   1.000  H
  H101     1.0000 0.76837  0.74913  0.79203  Biso   1.000  H
  H102     1.0000 0.98077  0.23163  0.79203  Biso   1.000  H
  H103     1.0000 0.01923  0.25087  0.20797  Biso   1.000  H
  H104     1.0000 0.74913  0.76837  0.20797  Biso   1.000  H
  H105     1.0000 0.23163  0.98077  0.20797  Biso   1.000  H
  H106     1.0000 0.91753  0.35257  0.12537  Biso   1.000  H
  H107     1.0000 0.43503  0.08247  0.12537  Biso   1.000  H
  H108     1.0000 0.64743  0.56497  0.12537  Biso   1.000  H
  H109     1.0000 0.31410  0.41580  0.45870  Biso   1.000  H
  H110     1.0000 0.58420  0.89830  0.45870  Biso   1.000  H
  H111     1.0000 0.10170  0.68590  0.45870  Biso   1.000  H
  H112     1.0000 0.41580  0.31410  0.54130  Biso   1.000  H
  H113     1.0000 0.89830  0.58420  0.54130  Biso   1.000  H
  H114     1.0000 0.68590  0.10170  0.54130  Biso   1.000  H
  H115     1.0000 0.98077  0.74913  0.79203  Biso   1.000  H
  H116     1.0000 0.25087  0.23163  0.79203  Biso   1.000  H
  H117     1.0000 0.76837  0.01923  0.79203  Biso   1.000  H
  H118     1.0000 0.08247  0.64743  0.87463  Biso   1.000  H
  H119     1.0000 0.56497  0.91753  0.87463  Biso   1.000  H
  H120     1.0000 0.35257  0.43503  0.87463  Biso   1.000  H
  H121     1.0000 0.64743  0.08247  0.12537  Biso   1.000  H
  H122     1.0000 0.91753  0.56497  0.12537  Biso   1.000  H
  H123     1.0000 0.43503  0.35257  0.12537  Biso   1.000  H
  H124     1.0000 0.74913  0.98077  0.20797  Biso   1.000  H
  H125     1.0000 0.23163  0.25087  0.20797  Biso   1.000  H
  H126     1.0000 0.01923  0.76837  0.20797  Biso   1.000  H
  C217     1.0000 0.75790  0.63930  0.49419  Biso   1.000  C
  C218     1.0000 0.36070  0.11860  0.49419  Biso   1.000  C
  C219     1.0000 0.88140  0.24210  0.49419  Biso   1.000  C
  C220     1.0000 0.63930  0.75790  0.50581  Biso   1.000  C
  C221     1.0000 0.11860  0.36070  0.50581  Biso   1.000  C
  C222     1.0000 0.24210  0.88140  0.50581  Biso   1.000  C
  C223     1.0000 0.42457  0.97263  0.82752  Biso   1.000  C
  C224     1.0000 0.02737  0.45193  0.82752  Biso   1.000  C
  C225     1.0000 0.54807  0.57543  0.82752  Biso   1.000  C
  C226     1.0000 0.30597  0.09123  0.83914  Biso   1.000  C
  C227     1.0000 0.78527  0.69403  0.83914  Biso   1.000  C
  C228     1.0000 0.90877  0.21473  0.83914  Biso   1.000  C
  C229     1.0000 0.09123  0.30597  0.16086  Biso   1.000  C
  C230     1.0000 0.69403  0.78527  0.16086  Biso   1.000  C
  C231     1.0000 0.21473  0.90877  0.16086  Biso   1.000  C
  C232     1.0000 0.97263  0.42457  0.17248  Biso   1.000  C
  C233     1.0000 0.45193  0.02737  0.17248  Biso   1.000  C
  C234     1.0000 0.57543  0.54807  0.17248  Biso   1.000  C
  C235     1.0000 0.24210  0.36070  0.50581  Biso   1.000  C
  C236     1.0000 0.63930  0.88140  0.50581  Biso   1.000  C
  C237     1.0000 0.11860  0.75790  0.50581  Biso   1.000  C
  C238     1.0000 0.36070  0.24210  0.49419  Biso   1.000  C
  C239     1.0000 0.88140  0.63930  0.49419  Biso   1.000  C
  C240     1.0000 0.75790  0.11860  0.49419  Biso   1.000  C
  C241     1.0000 0.90877  0.69403  0.83914  Biso   1.000  C
  C242     1.0000 0.30597  0.21473  0.83914  Biso   1.000  C
  C243     1.0000 0.78527  0.09123  0.83914  Biso   1.000  C
  C244     1.0000 0.02737  0.57543  0.82752  Biso   1.000  C
  C245     1.0000 0.54807  0.97263  0.82752  Biso   1.000  C
  C246     1.0000 0.42457  0.45193  0.82752  Biso   1.000  C
  C247     1.0000 0.57543  0.02737  0.17248  Biso   1.000  C
  C248     1.0000 0.97263  0.54807  0.17248  Biso   1.000  C
  C249     1.0000 0.45193  0.42457  0.17248  Biso   1.000  C
  C250     1.0000 0.69403  0.90877  0.16086  Biso   1.000  C
  C251     1.0000 0.21473  0.30597  0.16086  Biso   1.000  C
  C252     1.0000 0.09123  0.78527  0.16086  Biso   1.000  C
  H127     1.0000 0.72130  0.65310  0.48270  Biso   1.000  H
  H128     1.0000 0.34690  0.06820  0.48270  Biso   1.000  H
  H129     1.0000 0.93180  0.27870  0.48270  Biso   1.000  H
  H130     1.0000 0.65310  0.72130  0.51730  Biso   1.000  H
  H131     1.0000 0.06820  0.34690  0.51730  Biso   1.000  H
  H132     1.0000 0.27870  0.93180  0.51730  Biso   1.000  H
  H133     1.0000 0.38797  0.98643  0.81603  Biso   1.000  H
  H134     1.0000 0.01357  0.40153  0.81603  Biso   1.000  H
  H135     1.0000 0.59847  0.61203  0.81603  Biso   1.000  H
  H136     1.0000 0.31977  0.05463  0.85063  Biso   1.000  H
  H137     1.0000 0.73487  0.68023  0.85063  Biso   1.000  H
  H138     1.0000 0.94537  0.26513  0.85063  Biso   1.000  H
  H139     1.0000 0.05463  0.31977  0.14937  Biso   1.000  H
  H140     1.0000 0.68023  0.73487  0.14937  Biso   1.000  H
  H141     1.0000 0.26513  0.94537  0.14937  Biso   1.000  H
  H142     1.0000 0.98643  0.38797  0.18397  Biso   1.000  H
  H143     1.0000 0.40153  0.01357  0.18397  Biso   1.000  H
  H144     1.0000 0.61203  0.59847  0.18397  Biso   1.000  H
  H145     1.0000 0.27870  0.34690  0.51730  Biso   1.000  H
  H146     1.0000 0.65310  0.93180  0.51730  Biso   1.000  H
  H147     1.0000 0.06820  0.72130  0.51730  Biso   1.000  H
  H148     1.0000 0.34690  0.27870  0.48270  Biso   1.000  H
  H149     1.0000 0.93180  0.65310  0.48270  Biso   1.000  H
  H150     1.0000 0.72130  0.06820  0.48270  Biso   1.000  H
  H151     1.0000 0.94537  0.68023  0.85063  Biso   1.000  H
  H152     1.0000 0.31977  0.26513  0.85063  Biso   1.000  H
  H153     1.0000 0.73487  0.05463  0.85063  Biso   1.000  H
  H154     1.0000 0.01357  0.61203  0.81603  Biso   1.000  H
  H155     1.0000 0.59847  0.98643  0.81603  Biso   1.000  H
  H156     1.0000 0.38797  0.40153  0.81603  Biso   1.000  H
  H157     1.0000 0.61203  0.01357  0.18397  Biso   1.000  H
  H158     1.0000 0.98643  0.59847  0.18397  Biso   1.000  H
  H159     1.0000 0.40153  0.38797  0.18397  Biso   1.000  H
  H160     1.0000 0.68023  0.94537  0.14937  Biso   1.000  H
  H161     1.0000 0.26513  0.31977  0.14937  Biso   1.000  H
  H162     1.0000 0.05463  0.73487  0.14937  Biso   1.000  H
