data_image0
_cell_length_a       24.344
_cell_length_b       24.344
_cell_length_c       15.067
_cell_angle_alpha    90
_cell_angle_beta     90
_cell_angle_gamma    90

_symmetry_space_group_name_H-M    "P 1"
_symmetry_int_tables_number       1

loop_
  _symmetry_equiv_pos_as_xyz
  'x, y, z'

loop_
  _atom_site_label
  _atom_site_occupancy
  _atom_site_fract_x
  _atom_site_fract_y
  _atom_site_fract_z
  _atom_site_thermal_displace_type
  _atom_site_B_iso_or_equiv
  _atom_site_type_symbol
  Cu1      1.0000 0.93916  0.40224  0.05186  Biso   1.000  Cu
  Cu2      1.0000 0.56084  0.59776  0.55186  Biso   1.000  Cu
  Cu3      1.0000 0.34776  0.18916  0.30186  Biso   1.000  Cu
  Cu4      1.0000 0.15224  0.81084  0.80186  Biso   1.000  Cu
  Cu5      1.0000 0.43916  0.90224  0.55186  Biso   1.000  Cu
  Cu6      1.0000 0.06084  0.09776  0.05186  Biso   1.000  Cu
  Cu7      1.0000 0.84776  0.68916  0.80186  Biso   1.000  Cu
  Cu8      1.0000 0.65224  0.31084  0.30186  Biso   1.000  Cu
  Cu9      1.0000 0.06084  0.59776  0.94814  Biso   1.000  Cu
  Cu10     1.0000 0.43916  0.40224  0.44814  Biso   1.000  Cu
  Cu11     1.0000 0.15224  0.31084  0.19814  Biso   1.000  Cu
  Cu12     1.0000 0.34776  0.68916  0.69814  Biso   1.000  Cu
  Cu13     1.0000 0.56084  0.09776  0.44814  Biso   1.000  Cu
  Cu14     1.0000 0.93916  0.90224  0.94814  Biso   1.000  Cu
  Cu15     1.0000 0.65224  0.81084  0.69814  Biso   1.000  Cu
  Cu16     1.0000 0.84776  0.18916  0.19814  Biso   1.000  Cu
  Cu17     1.0000 0.95484  0.53485  0.05401  Biso   1.000  Cu
  Cu18     1.0000 0.54516  0.46515  0.55401  Biso   1.000  Cu
  Cu19     1.0000 0.21515  0.20484  0.30401  Biso   1.000  Cu
  Cu20     1.0000 0.28485  0.79516  0.80401  Biso   1.000  Cu
  Cu21     1.0000 0.45484  0.03485  0.55401  Biso   1.000  Cu
  Cu22     1.0000 0.04516  0.96515  0.05401  Biso   1.000  Cu
  Cu23     1.0000 0.71515  0.70484  0.80401  Biso   1.000  Cu
  Cu24     1.0000 0.78485  0.29516  0.30401  Biso   1.000  Cu
  Cu25     1.0000 0.04516  0.46515  0.94599  Biso   1.000  Cu
  Cu26     1.0000 0.45484  0.53485  0.44599  Biso   1.000  Cu
  Cu27     1.0000 0.28485  0.29516  0.19599  Biso   1.000  Cu
  Cu28     1.0000 0.21515  0.70484  0.69599  Biso   1.000  Cu
  Cu29     1.0000 0.54516  0.96515  0.44599  Biso   1.000  Cu
  Cu30     1.0000 0.95484  0.03485  0.94599  Biso   1.000  Cu
  Cu31     1.0000 0.78485  0.79516  0.69599  Biso   1.000  Cu
  Cu32     1.0000 0.71515  0.20484  0.19599  Biso   1.000  Cu
  S1       1.0000 0.60227  0.50374  0.10923  Biso   1.000  S
  S2       1.0000 0.89773  0.49626  0.60923  Biso   1.000  S
  S3       1.0000 0.24626  0.85227  0.35923  Biso   1.000  S
  S4       1.0000 0.25374  0.14773  0.85923  Biso   1.000  S
  S5       1.0000 0.10227  0.00374  0.60923  Biso   1.000  S
  S6       1.0000 0.39773  0.99626  0.10923  Biso   1.000  S
  S7       1.0000 0.74626  0.35227  0.85923  Biso   1.000  S
  S8       1.0000 0.75374  0.64773  0.35923  Biso   1.000  S
  S9       1.0000 0.39773  0.49626  0.89077  Biso   1.000  S
  S10      1.0000 0.10227  0.50374  0.39077  Biso   1.000  S
  S11      1.0000 0.25374  0.64773  0.14077  Biso   1.000  S
  S12      1.0000 0.24626  0.35227  0.64077  Biso   1.000  S
  S13      1.0000 0.89773  0.99626  0.39077  Biso   1.000  S
  S14      1.0000 0.60227  0.00374  0.89077  Biso   1.000  S
  S15      1.0000 0.75374  0.14773  0.64077  Biso   1.000  S
  S16      1.0000 0.74626  0.85227  0.14077  Biso   1.000  S
  O1       1.0000 0.96702  0.45757  0.96960  Biso   1.000  O
  O2       1.0000 0.53298  0.54243  0.46960  Biso   1.000  O
  O3       1.0000 0.29243  0.21702  0.21960  Biso   1.000  O
  O4       1.0000 0.20757  0.78298  0.71960  Biso   1.000  O
  O5       1.0000 0.46702  0.95757  0.46960  Biso   1.000  O
  O6       1.0000 0.03298  0.04243  0.96960  Biso   1.000  O
  O7       1.0000 0.79243  0.71702  0.71960  Biso   1.000  O
  O8       1.0000 0.70757  0.28298  0.21960  Biso   1.000  O
  O9       1.0000 0.03298  0.54243  0.03040  Biso   1.000  O
  O10      1.0000 0.46702  0.45757  0.53040  Biso   1.000  O
  O11      1.0000 0.20757  0.28298  0.28040  Biso   1.000  O
  O12      1.0000 0.29243  0.71702  0.78040  Biso   1.000  O
  O13      1.0000 0.53298  0.04243  0.53040  Biso   1.000  O
  O14      1.0000 0.96702  0.95757  0.03040  Biso   1.000  O
  O15      1.0000 0.70757  0.78298  0.78040  Biso   1.000  O
  O16      1.0000 0.79243  0.21702  0.28040  Biso   1.000  O
  O17      1.0000 0.91500  0.34030  0.92430  Biso   1.000  O
  O18      1.0000 0.58500  0.65970  0.42430  Biso   1.000  O
  O19      1.0000 0.40970  0.16500  0.17430  Biso   1.000  O
  O20      1.0000 0.09030  0.83500  0.67430  Biso   1.000  O
  O21      1.0000 0.41500  0.84030  0.42430  Biso   1.000  O
  O22      1.0000 0.08500  0.15970  0.92430  Biso   1.000  O
  O23      1.0000 0.90970  0.66500  0.67430  Biso   1.000  O
  O24      1.0000 0.59030  0.33500  0.17430  Biso   1.000  O
  O25      1.0000 0.08500  0.65970  0.07570  Biso   1.000  O
  O26      1.0000 0.41500  0.34030  0.57570  Biso   1.000  O
  O27      1.0000 0.09030  0.33500  0.32570  Biso   1.000  O
  O28      1.0000 0.40970  0.66500  0.82570  Biso   1.000  O
  O29      1.0000 0.58500  0.15970  0.57570  Biso   1.000  O
  O30      1.0000 0.91500  0.84030  0.07570  Biso   1.000  O
  O31      1.0000 0.59030  0.83500  0.82570  Biso   1.000  O
  O32      1.0000 0.90970  0.16500  0.32570  Biso   1.000  O
  O33      1.0000 0.86493  0.43434  0.04500  Biso   1.000  O
  O34      1.0000 0.63507  0.56566  0.54500  Biso   1.000  O
  O35      1.0000 0.31566  0.11493  0.29500  Biso   1.000  O
  O36      1.0000 0.18434  0.88507  0.79500  Biso   1.000  O
  O37      1.0000 0.36493  0.93434  0.54500  Biso   1.000  O
  O38      1.0000 0.13507  0.06566  0.04500  Biso   1.000  O
  O39      1.0000 0.81566  0.61493  0.79500  Biso   1.000  O
  O40      1.0000 0.68434  0.38507  0.29500  Biso   1.000  O
  O41      1.0000 0.13507  0.56566  0.95500  Biso   1.000  O
  O42      1.0000 0.36493  0.43434  0.45500  Biso   1.000  O
  O43      1.0000 0.18434  0.38507  0.20500  Biso   1.000  O
  O44      1.0000 0.31566  0.61493  0.70500  Biso   1.000  O
  O45      1.0000 0.63507  0.06566  0.45500  Biso   1.000  O
  O46      1.0000 0.86493  0.93434  0.95500  Biso   1.000  O
  O47      1.0000 0.68434  0.88507  0.70500  Biso   1.000  O
  O48      1.0000 0.81566  0.11493  0.20500  Biso   1.000  O
  O49      1.0000 0.87500  0.52526  0.06340  Biso   1.000  O
  O50      1.0000 0.62500  0.47474  0.56340  Biso   1.000  O
  O51      1.0000 0.22474  0.12500  0.31340  Biso   1.000  O
  O52      1.0000 0.27526  0.87500  0.81340  Biso   1.000  O
  O53      1.0000 0.37500  0.02526  0.56340  Biso   1.000  O
  O54      1.0000 0.12500  0.97474  0.06340  Biso   1.000  O
  O55      1.0000 0.72474  0.62500  0.81340  Biso   1.000  O
  O56      1.0000 0.77526  0.37500  0.31340  Biso   1.000  O
  O57      1.0000 0.12500  0.47474  0.93660  Biso   1.000  O
  O58      1.0000 0.37500  0.52526  0.43660  Biso   1.000  O
  O59      1.0000 0.27526  0.37500  0.18660  Biso   1.000  O
  O60      1.0000 0.22474  0.62500  0.68660  Biso   1.000  O
  O61      1.0000 0.62500  0.97474  0.43660  Biso   1.000  O
  O62      1.0000 0.87500  0.02526  0.93660  Biso   1.000  O
  O63      1.0000 0.77526  0.87500  0.68660  Biso   1.000  O
  O64      1.0000 0.72474  0.12500  0.18660  Biso   1.000  O
  O65      1.0000 0.59190  0.55780  0.14270  Biso   1.000  O
  O66      1.0000 0.90810  0.44220  0.64270  Biso   1.000  O
  O67      1.0000 0.19220  0.84190  0.39270  Biso   1.000  O
  O68      1.0000 0.30780  0.15810  0.89270  Biso   1.000  O
  O69      1.0000 0.09190  0.05780  0.64270  Biso   1.000  O
  O70      1.0000 0.40810  0.94220  0.14270  Biso   1.000  O
  O71      1.0000 0.69220  0.34190  0.89270  Biso   1.000  O
  O72      1.0000 0.80780  0.65810  0.39270  Biso   1.000  O
  O73      1.0000 0.40810  0.44220  0.85730  Biso   1.000  O
  O74      1.0000 0.09190  0.55780  0.35730  Biso   1.000  O
  O75      1.0000 0.30780  0.65810  0.10730  Biso   1.000  O
  O76      1.0000 0.19220  0.34190  0.60730  Biso   1.000  O
  O77      1.0000 0.90810  0.94220  0.35730  Biso   1.000  O
  O78      1.0000 0.59190  0.05780  0.85730  Biso   1.000  O
  O79      1.0000 0.80780  0.15810  0.60730  Biso   1.000  O
  O80      1.0000 0.69220  0.84190  0.10730  Biso   1.000  O
  O81      1.0000 0.58250  0.45700  0.15760  Biso   1.000  O
  O82      1.0000 0.91750  0.54300  0.65760  Biso   1.000  O
  O83      1.0000 0.29300  0.83250  0.40760  Biso   1.000  O
  O84      1.0000 0.20700  0.16750  0.90760  Biso   1.000  O
  O85      1.0000 0.08250  0.95700  0.65760  Biso   1.000  O
  O86      1.0000 0.41750  0.04300  0.15760  Biso   1.000  O
  O87      1.0000 0.79300  0.33250  0.90760  Biso   1.000  O
  O88      1.0000 0.70700  0.66750  0.40760  Biso   1.000  O
  O89      1.0000 0.41750  0.54300  0.84240  Biso   1.000  O
  O90      1.0000 0.08250  0.45700  0.34240  Biso   1.000  O
  O91      1.0000 0.20700  0.66750  0.09240  Biso   1.000  O
  O92      1.0000 0.29300  0.33250  0.59240  Biso   1.000  O
  O93      1.0000 0.91750  0.04300  0.34240  Biso   1.000  O
  O94      1.0000 0.58250  0.95700  0.84240  Biso   1.000  O
  O95      1.0000 0.70700  0.16750  0.59240  Biso   1.000  O
  O96      1.0000 0.79300  0.83250  0.09240  Biso   1.000  O
  O97      1.0000 0.53480  0.45590  0.69350  Biso   1.000  O
  O98      1.0000 0.96520  0.54410  0.19350  Biso   1.000  O
  O99      1.0000 0.29410  0.78480  0.94350  Biso   1.000  O
  O100     1.0000 0.20590  0.21520  0.44350  Biso   1.000  O
  O101     1.0000 0.03480  0.95590  0.19350  Biso   1.000  O
  O102     1.0000 0.46520  0.04410  0.69350  Biso   1.000  O
  O103     1.0000 0.79410  0.28480  0.44350  Biso   1.000  O
  O104     1.0000 0.70590  0.71520  0.94350  Biso   1.000  O
  O105     1.0000 0.46520  0.54410  0.30650  Biso   1.000  O
  O106     1.0000 0.03480  0.45590  0.80650  Biso   1.000  O
  O107     1.0000 0.20590  0.71520  0.55650  Biso   1.000  O
  O108     1.0000 0.29410  0.28480  0.05650  Biso   1.000  O
  O109     1.0000 0.96520  0.04410  0.80650  Biso   1.000  O
  O110     1.0000 0.53480  0.95590  0.30650  Biso   1.000  O
  O111     1.0000 0.70590  0.21520  0.05650  Biso   1.000  O
  O112     1.0000 0.79410  0.78480  0.55650  Biso   1.000  O
  O113     1.0000 0.54640  0.53730  0.68010  Biso   1.000  O
  O114     1.0000 0.95360  0.46270  0.18010  Biso   1.000  O
  O115     1.0000 0.21270  0.79640  0.93010  Biso   1.000  O
  O116     1.0000 0.28730  0.20360  0.43010  Biso   1.000  O
  O117     1.0000 0.04640  0.03730  0.18010  Biso   1.000  O
  O118     1.0000 0.45360  0.96270  0.68010  Biso   1.000  O
  O119     1.0000 0.71270  0.29640  0.43010  Biso   1.000  O
  O120     1.0000 0.78730  0.70360  0.93010  Biso   1.000  O
  O121     1.0000 0.45360  0.46270  0.31990  Biso   1.000  O
  O122     1.0000 0.04640  0.53730  0.81990  Biso   1.000  O
  O123     1.0000 0.28730  0.70360  0.56990  Biso   1.000  O
  O124     1.0000 0.21270  0.29640  0.06990  Biso   1.000  O
  O125     1.0000 0.95360  0.96270  0.81990  Biso   1.000  O
  O126     1.0000 0.54640  0.03730  0.31990  Biso   1.000  O
  O127     1.0000 0.78730  0.20360  0.06990  Biso   1.000  O
  O128     1.0000 0.71270  0.79640  0.56990  Biso   1.000  O
  N1       1.0000 0.87200  0.26570  0.17630  Biso   1.000  N
  N2       1.0000 0.62800  0.73430  0.67630  Biso   1.000  N
  N3       1.0000 0.48430  0.12200  0.42630  Biso   1.000  N
  N4       1.0000 0.01570  0.87800  0.92630  Biso   1.000  N
  N5       1.0000 0.37200  0.76570  0.67630  Biso   1.000  N
  N6       1.0000 0.12800  0.23430  0.17630  Biso   1.000  N
  N7       1.0000 0.98430  0.62200  0.92630  Biso   1.000  N
  N8       1.0000 0.51570  0.37800  0.42630  Biso   1.000  N
  N9       1.0000 0.12800  0.73430  0.82370  Biso   1.000  N
  N10      1.0000 0.37200  0.26570  0.32370  Biso   1.000  N
  N11      1.0000 0.01570  0.37800  0.07370  Biso   1.000  N
  N12      1.0000 0.48430  0.62200  0.57370  Biso   1.000  N
  N13      1.0000 0.62800  0.23430  0.32370  Biso   1.000  N
  N14      1.0000 0.87200  0.76570  0.82370  Biso   1.000  N
  N15      1.0000 0.51570  0.87800  0.57370  Biso   1.000  N
  N16      1.0000 0.98430  0.12200  0.07370  Biso   1.000  N
  N17      1.0000 0.90560  0.34370  0.12620  Biso   1.000  N
  N18      1.0000 0.59440  0.65630  0.62620  Biso   1.000  N
  N19      1.0000 0.40630  0.15560  0.37620  Biso   1.000  N
  N20      1.0000 0.09370  0.84440  0.87620  Biso   1.000  N
  N21      1.0000 0.40560  0.84370  0.62620  Biso   1.000  N
  N22      1.0000 0.09440  0.15630  0.12620  Biso   1.000  N
  N23      1.0000 0.90630  0.65560  0.87620  Biso   1.000  N
  N24      1.0000 0.59370  0.34440  0.37620  Biso   1.000  N
  N25      1.0000 0.09440  0.65630  0.87380  Biso   1.000  N
  N26      1.0000 0.40560  0.34370  0.37380  Biso   1.000  N
  N27      1.0000 0.09370  0.34440  0.12380  Biso   1.000  N
  N28      1.0000 0.40630  0.65560  0.62380  Biso   1.000  N
  N29      1.0000 0.59440  0.15630  0.37380  Biso   1.000  N
  N30      1.0000 0.90560  0.84370  0.87380  Biso   1.000  N
  N31      1.0000 0.59370  0.84440  0.62380  Biso   1.000  N
  N32      1.0000 0.90630  0.15560  0.12380  Biso   1.000  N
  N33      1.0000 0.84550  0.30775  0.21900  Biso   1.000  N
  N34      1.0000 0.65450  0.69225  0.71900  Biso   1.000  N
  N35      1.0000 0.44225  0.09550  0.46900  Biso   1.000  N
  N36      1.0000 0.05775  0.90450  0.96900  Biso   1.000  N
  N37      1.0000 0.34550  0.80775  0.71900  Biso   1.000  N
  N38      1.0000 0.15450  0.19225  0.21900  Biso   1.000  N
  N39      1.0000 0.94225  0.59550  0.96900  Biso   1.000  N
  N40      1.0000 0.55775  0.40450  0.46900  Biso   1.000  N
  N41      1.0000 0.15450  0.69225  0.78100  Biso   1.000  N
  N42      1.0000 0.34550  0.30775  0.28100  Biso   1.000  N
  N43      1.0000 0.05775  0.40450  0.03100  Biso   1.000  N
  N44      1.0000 0.44225  0.59550  0.53100  Biso   1.000  N
  N45      1.0000 0.65450  0.19225  0.28100  Biso   1.000  N
  N46      1.0000 0.84550  0.80775  0.78100  Biso   1.000  N
  N47      1.0000 0.55775  0.90450  0.53100  Biso   1.000  N
  N48      1.0000 0.94225  0.09550  0.03100  Biso   1.000  N
  C1       1.0000 0.90680  0.28880  0.12120  Biso   1.000  C
  C2       1.0000 0.59320  0.71120  0.62120  Biso   1.000  C
  C3       1.0000 0.46120  0.15680  0.37120  Biso   1.000  C
  C4       1.0000 0.03880  0.84320  0.87120  Biso   1.000  C
  C5       1.0000 0.40680  0.78880  0.62120  Biso   1.000  C
  C6       1.0000 0.09320  0.21120  0.12120  Biso   1.000  C
  C7       1.0000 0.96120  0.65680  0.87120  Biso   1.000  C
  C8       1.0000 0.53880  0.34320  0.37120  Biso   1.000  C
  C9       1.0000 0.09320  0.71120  0.87880  Biso   1.000  C
  C10      1.0000 0.40680  0.28880  0.37880  Biso   1.000  C
  C11      1.0000 0.03880  0.34320  0.12880  Biso   1.000  C
  C12      1.0000 0.46120  0.65680  0.62880  Biso   1.000  C
  C13      1.0000 0.59320  0.21120  0.37880  Biso   1.000  C
  C14      1.0000 0.90680  0.78880  0.87880  Biso   1.000  C
  C15      1.0000 0.53880  0.84320  0.62880  Biso   1.000  C
  C16      1.0000 0.96120  0.15680  0.12880  Biso   1.000  C
  H1       1.0000 0.92970  0.26930  0.08310  Biso   1.000  H
  H2       1.0000 0.57030  0.73070  0.58310  Biso   1.000  H
  H3       1.0000 0.48070  0.17970  0.33310  Biso   1.000  H
  H4       1.0000 0.01930  0.82030  0.83310  Biso   1.000  H
  H5       1.0000 0.42970  0.76930  0.58310  Biso   1.000  H
  H6       1.0000 0.07030  0.23070  0.08310  Biso   1.000  H
  H7       1.0000 0.98070  0.67970  0.83310  Biso   1.000  H
  H8       1.0000 0.51930  0.32030  0.33310  Biso   1.000  H
  H9       1.0000 0.07030  0.73070  0.91690  Biso   1.000  H
  H10      1.0000 0.42970  0.26930  0.41690  Biso   1.000  H
  H11      1.0000 0.01930  0.32030  0.16690  Biso   1.000  H
  H12      1.0000 0.48070  0.67970  0.66690  Biso   1.000  H
  H13      1.0000 0.57030  0.23070  0.41690  Biso   1.000  H
  H14      1.0000 0.92970  0.76930  0.91690  Biso   1.000  H
  H15      1.0000 0.51930  0.82030  0.66690  Biso   1.000  H
  H16      1.0000 0.98070  0.17970  0.16690  Biso   1.000  H
  C17      1.0000 0.86720  0.35340  0.18740  Biso   1.000  C
  C18      1.0000 0.63280  0.64660  0.68740  Biso   1.000  C
  C19      1.0000 0.39660  0.11720  0.43740  Biso   1.000  C
  C20      1.0000 0.10340  0.88280  0.93740  Biso   1.000  C
  C21      1.0000 0.36720  0.85340  0.68740  Biso   1.000  C
  C22      1.0000 0.13280  0.14660  0.18740  Biso   1.000  C
  C23      1.0000 0.89660  0.61720  0.93740  Biso   1.000  C
  C24      1.0000 0.60340  0.38280  0.43740  Biso   1.000  C
  C25      1.0000 0.13280  0.64660  0.81260  Biso   1.000  C
  C26      1.0000 0.36720  0.35340  0.31260  Biso   1.000  C
  C27      1.0000 0.10340  0.38280  0.06260  Biso   1.000  C
  C28      1.0000 0.39660  0.61720  0.56260  Biso   1.000  C
  C29      1.0000 0.63280  0.14660  0.31260  Biso   1.000  C
  C30      1.0000 0.86720  0.85340  0.81260  Biso   1.000  C
  C31      1.0000 0.60340  0.88280  0.56260  Biso   1.000  C
  C32      1.0000 0.89660  0.11720  0.06260  Biso   1.000  C
  H17      1.0000 0.85690  0.38840  0.20580  Biso   1.000  H
  H18      1.0000 0.64310  0.61160  0.70580  Biso   1.000  H
  H19      1.0000 0.36160  0.10690  0.45580  Biso   1.000  H
  H20      1.0000 0.13840  0.89310  0.95580  Biso   1.000  H
  H21      1.0000 0.35690  0.88840  0.70580  Biso   1.000  H
  H22      1.0000 0.14310  0.11160  0.20580  Biso   1.000  H
  H23      1.0000 0.86160  0.60690  0.95580  Biso   1.000  H
  H24      1.0000 0.63840  0.39310  0.45580  Biso   1.000  H
  H25      1.0000 0.14310  0.61160  0.79420  Biso   1.000  H
  H26      1.0000 0.35690  0.38840  0.29420  Biso   1.000  H
  H27      1.0000 0.13840  0.39310  0.04420  Biso   1.000  H
  H28      1.0000 0.36160  0.60690  0.54420  Biso   1.000  H
  H29      1.0000 0.64310  0.11160  0.29420  Biso   1.000  H
  H30      1.0000 0.85690  0.88840  0.79420  Biso   1.000  H
  H31      1.0000 0.63840  0.89310  0.54420  Biso   1.000  H
  H32      1.0000 0.86160  0.10690  0.04420  Biso   1.000  H
  C33      1.0000 0.84710  0.48200  0.05890  Biso   1.000  C
  C34      1.0000 0.65290  0.51800  0.55890  Biso   1.000  C
  C35      1.0000 0.26800  0.09710  0.30890  Biso   1.000  C
  C36      1.0000 0.23200  0.90290  0.80890  Biso   1.000  C
  C37      1.0000 0.34710  0.98200  0.55890  Biso   1.000  C
  C38      1.0000 0.15290  0.01800  0.05890  Biso   1.000  C
  C39      1.0000 0.76800  0.59710  0.80890  Biso   1.000  C
  C40      1.0000 0.73200  0.40290  0.30890  Biso   1.000  C
  C41      1.0000 0.15290  0.51800  0.94110  Biso   1.000  C
  C42      1.0000 0.34710  0.48200  0.44110  Biso   1.000  C
  C43      1.0000 0.23200  0.40290  0.19110  Biso   1.000  C
  C44      1.0000 0.26800  0.59710  0.69110  Biso   1.000  C
  C45      1.0000 0.65290  0.01800  0.44110  Biso   1.000  C
  C46      1.0000 0.84710  0.98200  0.94110  Biso   1.000  C
  C47      1.0000 0.73200  0.90290  0.69110  Biso   1.000  C
  C48      1.0000 0.76800  0.09710  0.19110  Biso   1.000  C
  C49      1.0000 0.78600  0.48750  0.07050  Biso   1.000  C
  C50      1.0000 0.71400  0.51250  0.57050  Biso   1.000  C
  C51      1.0000 0.26250  0.03600  0.32050  Biso   1.000  C
  C52      1.0000 0.23750  0.96400  0.82050  Biso   1.000  C
  C53      1.0000 0.28600  0.98750  0.57050  Biso   1.000  C
  C54      1.0000 0.21400  0.01250  0.07050  Biso   1.000  C
  C55      1.0000 0.76250  0.53600  0.82050  Biso   1.000  C
  C56      1.0000 0.73750  0.46400  0.32050  Biso   1.000  C
  C57      1.0000 0.21400  0.51250  0.92950  Biso   1.000  C
  C58      1.0000 0.28600  0.48750  0.42950  Biso   1.000  C
  C59      1.0000 0.23750  0.46400  0.17950  Biso   1.000  C
  C60      1.0000 0.26250  0.53600  0.67950  Biso   1.000  C
  C61      1.0000 0.71400  0.01250  0.42950  Biso   1.000  C
  C62      1.0000 0.78600  0.98750  0.92950  Biso   1.000  C
  C63      1.0000 0.73750  0.96400  0.67950  Biso   1.000  C
  C64      1.0000 0.76250  0.03600  0.17950  Biso   1.000  C
  C65      1.0000 0.76250  0.53910  0.07980  Biso   1.000  C
  C66      1.0000 0.73750  0.46090  0.57980  Biso   1.000  C
  C67      1.0000 0.21090  0.01250  0.32980  Biso   1.000  C
  C68      1.0000 0.28910  0.98750  0.82980  Biso   1.000  C
  C69      1.0000 0.26250  0.03910  0.57980  Biso   1.000  C
  C70      1.0000 0.23750  0.96090  0.07980  Biso   1.000  C
  C71      1.0000 0.71090  0.51250  0.82980  Biso   1.000  C
  C72      1.0000 0.78910  0.48750  0.32980  Biso   1.000  C
  C73      1.0000 0.23750  0.46090  0.92020  Biso   1.000  C
  C74      1.0000 0.26250  0.53910  0.42020  Biso   1.000  C
  C75      1.0000 0.28910  0.48750  0.17020  Biso   1.000  C
  C76      1.0000 0.21090  0.51250  0.67020  Biso   1.000  C
  C77      1.0000 0.73750  0.96090  0.42020  Biso   1.000  C
  C78      1.0000 0.76250  0.03910  0.92020  Biso   1.000  C
  C79      1.0000 0.78910  0.98750  0.67020  Biso   1.000  C
  C80      1.0000 0.71090  0.01250  0.17020  Biso   1.000  C
  H33      1.0000 0.78450  0.57030  0.07840  Biso   1.000  H
  H34      1.0000 0.71550  0.42970  0.57840  Biso   1.000  H
  H35      1.0000 0.17970  0.03450  0.32840  Biso   1.000  H
  H36      1.0000 0.32030  0.96550  0.82840  Biso   1.000  H
  H37      1.0000 0.28450  0.07030  0.57840  Biso   1.000  H
  H38      1.0000 0.21550  0.92970  0.07840  Biso   1.000  H
  H39      1.0000 0.67970  0.53450  0.82840  Biso   1.000  H
  H40      1.0000 0.82030  0.46550  0.32840  Biso   1.000  H
  H41      1.0000 0.21550  0.42970  0.92160  Biso   1.000  H
  H42      1.0000 0.28450  0.57030  0.42160  Biso   1.000  H
  H43      1.0000 0.32030  0.46550  0.17160  Biso   1.000  H
  H44      1.0000 0.17970  0.53450  0.67160  Biso   1.000  H
  H45      1.0000 0.71550  0.92970  0.42160  Biso   1.000  H
  H46      1.0000 0.78450  0.07030  0.92160  Biso   1.000  H
  H47      1.0000 0.82030  0.96550  0.67160  Biso   1.000  H
  H48      1.0000 0.67970  0.03450  0.17160  Biso   1.000  H
  C81      1.0000 0.70610  0.54420  0.09110  Biso   1.000  C
  C82      1.0000 0.79390  0.45580  0.59110  Biso   1.000  C
  C83      1.0000 0.20580  0.95610  0.34110  Biso   1.000  C
  C84      1.0000 0.29420  0.04390  0.84110  Biso   1.000  C
  C85      1.0000 0.20610  0.04420  0.59110  Biso   1.000  C
  C86      1.0000 0.29390  0.95580  0.09110  Biso   1.000  C
  C87      1.0000 0.70580  0.45610  0.84110  Biso   1.000  C
  C88      1.0000 0.79420  0.54390  0.34110  Biso   1.000  C
  C89      1.0000 0.29390  0.45580  0.90890  Biso   1.000  C
  C90      1.0000 0.20610  0.54420  0.40890  Biso   1.000  C
  C91      1.0000 0.29420  0.54390  0.15890  Biso   1.000  C
  C92      1.0000 0.20580  0.45610  0.65890  Biso   1.000  C
  C93      1.0000 0.79390  0.95580  0.40890  Biso   1.000  C
  C94      1.0000 0.70610  0.04420  0.90890  Biso   1.000  C
  C95      1.0000 0.79420  0.04390  0.65890  Biso   1.000  C
  C96      1.0000 0.70580  0.95610  0.15890  Biso   1.000  C
  H49      1.0000 0.69000  0.57870  0.09570  Biso   1.000  H
  H50      1.0000 0.81000  0.42130  0.59570  Biso   1.000  H
  H51      1.0000 0.17130  0.94000  0.34570  Biso   1.000  H
  H52      1.0000 0.32870  0.06000  0.84570  Biso   1.000  H
  H53      1.0000 0.19000  0.07870  0.59570  Biso   1.000  H
  H54      1.0000 0.31000  0.92130  0.09570  Biso   1.000  H
  H55      1.0000 0.67130  0.44000  0.84570  Biso   1.000  H
  H56      1.0000 0.82870  0.56000  0.34570  Biso   1.000  H
  H57      1.0000 0.31000  0.42130  0.90430  Biso   1.000  H
  H58      1.0000 0.19000  0.57870  0.40430  Biso   1.000  H
  H59      1.0000 0.32870  0.56000  0.15430  Biso   1.000  H
  H60      1.0000 0.17130  0.44000  0.65430  Biso   1.000  H
  H61      1.0000 0.81000  0.92130  0.40430  Biso   1.000  H
  H62      1.0000 0.69000  0.07870  0.90430  Biso   1.000  H
  H63      1.0000 0.82870  0.06000  0.65430  Biso   1.000  H
  H64      1.0000 0.67130  0.94000  0.15430  Biso   1.000  H
  C97      1.0000 0.67420  0.49720  0.09540  Biso   1.000  C
  C98      1.0000 0.82580  0.50280  0.59540  Biso   1.000  C
  C99      1.0000 0.25280  0.92420  0.34540  Biso   1.000  C
  C100     1.0000 0.24720  0.07580  0.84540  Biso   1.000  C
  C101     1.0000 0.17420  0.99720  0.59540  Biso   1.000  C
  C102     1.0000 0.32580  0.00280  0.09540  Biso   1.000  C
  C103     1.0000 0.75280  0.42420  0.84540  Biso   1.000  C
  C104     1.0000 0.74720  0.57580  0.34540  Biso   1.000  C
  C105     1.0000 0.32580  0.50280  0.90460  Biso   1.000  C
  C106     1.0000 0.17420  0.49720  0.40460  Biso   1.000  C
  C107     1.0000 0.24720  0.57580  0.15460  Biso   1.000  C
  C108     1.0000 0.25280  0.42420  0.65460  Biso   1.000  C
  C109     1.0000 0.82580  0.00280  0.40460  Biso   1.000  C
  C110     1.0000 0.67420  0.99720  0.90460  Biso   1.000  C
  C111     1.0000 0.74720  0.07580  0.65460  Biso   1.000  C
  C112     1.0000 0.75280  0.92420  0.15460  Biso   1.000  C
  C113     1.0000 0.69730  0.44570  0.08730  Biso   1.000  C
  C114     1.0000 0.80270  0.55430  0.58730  Biso   1.000  C
  C115     1.0000 0.30430  0.94730  0.33730  Biso   1.000  C
  C116     1.0000 0.19570  0.05270  0.83730  Biso   1.000  C
  C117     1.0000 0.19730  0.94570  0.58730  Biso   1.000  C
  C118     1.0000 0.30270  0.05430  0.08730  Biso   1.000  C
  C119     1.0000 0.80430  0.44730  0.83730  Biso   1.000  C
  C120     1.0000 0.69570  0.55270  0.33730  Biso   1.000  C
  C121     1.0000 0.30270  0.55430  0.91270  Biso   1.000  C
  C122     1.0000 0.19730  0.44570  0.41270  Biso   1.000  C
  C123     1.0000 0.19570  0.55270  0.16270  Biso   1.000  C
  C124     1.0000 0.30430  0.44730  0.66270  Biso   1.000  C
  C125     1.0000 0.80270  0.05430  0.41270  Biso   1.000  C
  C126     1.0000 0.69730  0.94570  0.91270  Biso   1.000  C
  C127     1.0000 0.69570  0.05270  0.66270  Biso   1.000  C
  C128     1.0000 0.80430  0.94730  0.16270  Biso   1.000  C
  H65      1.0000 0.67540  0.41450  0.09040  Biso   1.000  H
  H66      1.0000 0.82460  0.58550  0.59040  Biso   1.000  H
  H67      1.0000 0.33550  0.92540  0.34040  Biso   1.000  H
  H68      1.0000 0.16450  0.07460  0.84040  Biso   1.000  H
  H69      1.0000 0.17540  0.91450  0.59040  Biso   1.000  H
  H70      1.0000 0.32460  0.08550  0.09040  Biso   1.000  H
  H71      1.0000 0.83550  0.42540  0.84040  Biso   1.000  H
  H72      1.0000 0.66450  0.57460  0.34040  Biso   1.000  H
  H73      1.0000 0.32460  0.58550  0.90960  Biso   1.000  H
  H74      1.0000 0.17540  0.41450  0.40960  Biso   1.000  H
  H75      1.0000 0.16450  0.57460  0.15960  Biso   1.000  H
  H76      1.0000 0.33550  0.42540  0.65960  Biso   1.000  H
  H77      1.0000 0.82460  0.08550  0.40960  Biso   1.000  H
  H78      1.0000 0.67540  0.91450  0.90960  Biso   1.000  H
  H79      1.0000 0.66450  0.07460  0.65960  Biso   1.000  H
  H80      1.0000 0.83550  0.92540  0.15960  Biso   1.000  H
  C129     1.0000 0.75310  0.44090  0.07440  Biso   1.000  C
  C130     1.0000 0.74690  0.55910  0.57440  Biso   1.000  C
  C131     1.0000 0.30910  0.00310  0.32440  Biso   1.000  C
  C132     1.0000 0.19090  0.99690  0.82440  Biso   1.000  C
  C133     1.0000 0.25310  0.94090  0.57440  Biso   1.000  C
  C134     1.0000 0.24690  0.05910  0.07440  Biso   1.000  C
  C135     1.0000 0.80910  0.50310  0.82440  Biso   1.000  C
  C136     1.0000 0.69090  0.49690  0.32440  Biso   1.000  C
  C137     1.0000 0.24690  0.55910  0.92560  Biso   1.000  C
  C138     1.0000 0.25310  0.44090  0.42560  Biso   1.000  C
  C139     1.0000 0.19090  0.49690  0.17560  Biso   1.000  C
  C140     1.0000 0.30910  0.50310  0.67560  Biso   1.000  C
  C141     1.0000 0.74690  0.05910  0.42560  Biso   1.000  C
  C142     1.0000 0.75310  0.94090  0.92560  Biso   1.000  C
  C143     1.0000 0.69090  0.99690  0.67560  Biso   1.000  C
  C144     1.0000 0.80910  0.00310  0.17560  Biso   1.000  C
  H81      1.0000 0.76880  0.40630  0.06830  Biso   1.000  H
  H82      1.0000 0.73120  0.59370  0.56830  Biso   1.000  H
  H83      1.0000 0.34370  0.01880  0.31830  Biso   1.000  H
  H84      1.0000 0.15630  0.98120  0.81830  Biso   1.000  H
  H85      1.0000 0.26880  0.90630  0.56830  Biso   1.000  H
  H86      1.0000 0.23120  0.09370  0.06830  Biso   1.000  H
  H87      1.0000 0.84370  0.51880  0.81830  Biso   1.000  H
  H88      1.0000 0.65630  0.48120  0.31830  Biso   1.000  H
  H89      1.0000 0.23120  0.59370  0.93170  Biso   1.000  H
  H90      1.0000 0.26880  0.40630  0.43170  Biso   1.000  H
  H91      1.0000 0.15630  0.48120  0.18170  Biso   1.000  H
  H92      1.0000 0.34370  0.51880  0.68170  Biso   1.000  H
  H93      1.0000 0.73120  0.09370  0.43170  Biso   1.000  H
  H94      1.0000 0.76880  0.90630  0.93170  Biso   1.000  H
  H95      1.0000 0.65630  0.98120  0.68170  Biso   1.000  H
  H96      1.0000 0.84370  0.01880  0.18170  Biso   1.000  H
  C145     1.0000 0.57730  0.50040  0.99950  Biso   1.000  C
  C146     1.0000 0.92270  0.49960  0.49950  Biso   1.000  C
  C147     1.0000 0.24960  0.82730  0.24950  Biso   1.000  C
  C148     1.0000 0.25040  0.17270  0.74950  Biso   1.000  C
  C149     1.0000 0.07730  0.00040  0.49950  Biso   1.000  C
  C150     1.0000 0.42270  0.99960  0.99950  Biso   1.000  C
  C151     1.0000 0.74960  0.32730  0.74950  Biso   1.000  C
  C152     1.0000 0.75040  0.67270  0.24950  Biso   1.000  C
  C153     1.0000 0.42270  0.49960  0.00050  Biso   1.000  C
  C154     1.0000 0.07730  0.50040  0.50050  Biso   1.000  C
  C155     1.0000 0.25040  0.67270  0.25050  Biso   1.000  C
  C156     1.0000 0.24960  0.32730  0.75050  Biso   1.000  C
  C157     1.0000 0.92270  0.99960  0.50050  Biso   1.000  C
  C158     1.0000 0.57730  0.00040  0.00050  Biso   1.000  C
  C159     1.0000 0.75040  0.17270  0.75050  Biso   1.000  C
  C160     1.0000 0.74960  0.82730  0.25050  Biso   1.000  C
  C161     1.0000 0.57380  0.54690  0.94940  Biso   1.000  C
  C162     1.0000 0.92620  0.45310  0.44940  Biso   1.000  C
  C163     1.0000 0.20310  0.82380  0.19940  Biso   1.000  C
  C164     1.0000 0.29690  0.17620  0.69940  Biso   1.000  C
  C165     1.0000 0.07380  0.04690  0.44940  Biso   1.000  C
  C166     1.0000 0.42620  0.95310  0.94940  Biso   1.000  C
  C167     1.0000 0.70310  0.32380  0.69940  Biso   1.000  C
  C168     1.0000 0.79690  0.67620  0.19940  Biso   1.000  C
  C169     1.0000 0.42620  0.45310  0.05060  Biso   1.000  C
  C170     1.0000 0.07380  0.54690  0.55060  Biso   1.000  C
  C171     1.0000 0.29690  0.67620  0.30060  Biso   1.000  C
  C172     1.0000 0.20310  0.32380  0.80060  Biso   1.000  C
  C173     1.0000 0.92620  0.95310  0.55060  Biso   1.000  C
  C174     1.0000 0.57380  0.04690  0.05060  Biso   1.000  C
  C175     1.0000 0.79690  0.17620  0.80060  Biso   1.000  C
  C176     1.0000 0.70310  0.82380  0.30060  Biso   1.000  C
  H97      1.0000 0.58070  0.58110  0.97460  Biso   1.000  H
  H98      1.0000 0.91930  0.41890  0.47460  Biso   1.000  H
  H99      1.0000 0.16890  0.83070  0.22460  Biso   1.000  H
  H100     1.0000 0.33110  0.16930  0.72460  Biso   1.000  H
  H101     1.0000 0.08070  0.08110  0.47460  Biso   1.000  H
  H102     1.0000 0.41930  0.91890  0.97460  Biso   1.000  H
  H103     1.0000 0.66890  0.33070  0.72460  Biso   1.000  H
  H104     1.0000 0.83110  0.66930  0.22460  Biso   1.000  H
  H105     1.0000 0.41930  0.41890  0.02540  Biso   1.000  H
  H106     1.0000 0.08070  0.58110  0.52540  Biso   1.000  H
  H107     1.0000 0.33110  0.66930  0.27540  Biso   1.000  H
  H108     1.0000 0.16890  0.33070  0.77540  Biso   1.000  H
  H109     1.0000 0.91930  0.91890  0.52540  Biso   1.000  H
  H110     1.0000 0.58070  0.08110  0.02540  Biso   1.000  H
  H111     1.0000 0.83110  0.16930  0.77540  Biso   1.000  H
  H112     1.0000 0.66890  0.83070  0.27540  Biso   1.000  H
  C177     1.0000 0.55970  0.54270  0.85940  Biso   1.000  C
  C178     1.0000 0.94030  0.45730  0.35940  Biso   1.000  C
  C179     1.0000 0.20730  0.80970  0.10940  Biso   1.000  C
  C180     1.0000 0.29270  0.19030  0.60940  Biso   1.000  C
  C181     1.0000 0.05970  0.04270  0.35940  Biso   1.000  C
  C182     1.0000 0.44030  0.95730  0.85940  Biso   1.000  C
  C183     1.0000 0.70730  0.30970  0.60940  Biso   1.000  C
  C184     1.0000 0.79270  0.69030  0.10940  Biso   1.000  C
  C185     1.0000 0.44030  0.45730  0.14060  Biso   1.000  C
  C186     1.0000 0.05970  0.54270  0.64060  Biso   1.000  C
  C187     1.0000 0.29270  0.69030  0.39060  Biso   1.000  C
  C188     1.0000 0.20730  0.30970  0.89060  Biso   1.000  C
  C189     1.0000 0.94030  0.95730  0.64060  Biso   1.000  C
  C190     1.0000 0.55970  0.04270  0.14060  Biso   1.000  C
  C191     1.0000 0.79270  0.19030  0.89060  Biso   1.000  C
  C192     1.0000 0.70730  0.80970  0.39060  Biso   1.000  C
  H113     1.0000 0.55680  0.57440  0.82530  Biso   1.000  H
  H114     1.0000 0.94320  0.42560  0.32530  Biso   1.000  H
  H115     1.0000 0.17560  0.80680  0.07530  Biso   1.000  H
  H116     1.0000 0.32440  0.19320  0.57530  Biso   1.000  H
  H117     1.0000 0.05680  0.07440  0.32530  Biso   1.000  H
  H118     1.0000 0.44320  0.92560  0.82530  Biso   1.000  H
  H119     1.0000 0.67560  0.30680  0.57530  Biso   1.000  H
  H120     1.0000 0.82440  0.69320  0.07530  Biso   1.000  H
  H121     1.0000 0.44320  0.42560  0.17470  Biso   1.000  H
  H122     1.0000 0.05680  0.57440  0.67470  Biso   1.000  H
  H123     1.0000 0.32440  0.69320  0.42470  Biso   1.000  H
  H124     1.0000 0.17560  0.30680  0.92470  Biso   1.000  H
  H125     1.0000 0.94320  0.92560  0.67470  Biso   1.000  H
  H126     1.0000 0.55680  0.07440  0.17470  Biso   1.000  H
  H127     1.0000 0.82440  0.19320  0.92470  Biso   1.000  H
  H128     1.0000 0.67560  0.80680  0.42470  Biso   1.000  H
  C193     1.0000 0.55040  0.49400  0.82200  Biso   1.000  C
  C194     1.0000 0.94960  0.50600  0.32200  Biso   1.000  C
  C195     1.0000 0.25600  0.80040  0.07200  Biso   1.000  C
  C196     1.0000 0.24400  0.19960  0.57200  Biso   1.000  C
  C197     1.0000 0.05040  0.99400  0.32200  Biso   1.000  C
  C198     1.0000 0.44960  0.00600  0.82200  Biso   1.000  C
  C199     1.0000 0.75600  0.30040  0.57200  Biso   1.000  C
  C200     1.0000 0.74400  0.69960  0.07200  Biso   1.000  C
  C201     1.0000 0.44960  0.50600  0.17800  Biso   1.000  C
  C202     1.0000 0.05040  0.49400  0.67800  Biso   1.000  C
  C203     1.0000 0.24400  0.69960  0.42800  Biso   1.000  C
  C204     1.0000 0.25600  0.30040  0.92800  Biso   1.000  C
  C205     1.0000 0.94960  0.00600  0.67800  Biso   1.000  C
  C206     1.0000 0.55040  0.99400  0.17800  Biso   1.000  C
  C207     1.0000 0.74400  0.19960  0.92800  Biso   1.000  C
  C208     1.0000 0.75600  0.80040  0.42800  Biso   1.000  C
  C209     1.0000 0.55220  0.44720  0.87260  Biso   1.000  C
  C210     1.0000 0.94780  0.55280  0.37260  Biso   1.000  C
  C211     1.0000 0.30280  0.80220  0.12260  Biso   1.000  C
  C212     1.0000 0.19720  0.19780  0.62260  Biso   1.000  C
  C213     1.0000 0.05220  0.94720  0.37260  Biso   1.000  C
  C214     1.0000 0.44780  0.05280  0.87260  Biso   1.000  C
  C215     1.0000 0.80280  0.30220  0.62260  Biso   1.000  C
  C216     1.0000 0.69720  0.69780  0.12260  Biso   1.000  C
  C217     1.0000 0.44780  0.55280  0.12740  Biso   1.000  C
  C218     1.0000 0.05220  0.44720  0.62740  Biso   1.000  C
  C219     1.0000 0.19720  0.69780  0.37740  Biso   1.000  C
  C220     1.0000 0.30280  0.30220  0.87740  Biso   1.000  C
  C221     1.0000 0.94780  0.05280  0.62740  Biso   1.000  C
  C222     1.0000 0.55220  0.94720  0.12740  Biso   1.000  C
  C223     1.0000 0.69720  0.19780  0.87740  Biso   1.000  C
  C224     1.0000 0.80280  0.80220  0.37740  Biso   1.000  C
  H129     1.0000 0.54430  0.41330  0.84710  Biso   1.000  H
  H130     1.0000 0.95570  0.58670  0.34710  Biso   1.000  H
  H131     1.0000 0.33670  0.79430  0.09710  Biso   1.000  H
  H132     1.0000 0.16330  0.20570  0.59710  Biso   1.000  H
  H133     1.0000 0.04430  0.91330  0.34710  Biso   1.000  H
  H134     1.0000 0.45570  0.08670  0.84710  Biso   1.000  H
  H135     1.0000 0.83670  0.29430  0.59710  Biso   1.000  H
  H136     1.0000 0.66330  0.70570  0.09710  Biso   1.000  H
  H137     1.0000 0.45570  0.58670  0.15290  Biso   1.000  H
  H138     1.0000 0.04430  0.41330  0.65290  Biso   1.000  H
  H139     1.0000 0.16330  0.70570  0.40290  Biso   1.000  H
  H140     1.0000 0.33670  0.29430  0.90290  Biso   1.000  H
  H141     1.0000 0.95570  0.08670  0.65290  Biso   1.000  H
  H142     1.0000 0.54430  0.91330  0.15290  Biso   1.000  H
  H143     1.0000 0.66330  0.20570  0.90290  Biso   1.000  H
  H144     1.0000 0.83670  0.79430  0.40290  Biso   1.000  H
  C225     1.0000 0.56590  0.45040  0.96310  Biso   1.000  C
  C226     1.0000 0.93410  0.54960  0.46310  Biso   1.000  C
  C227     1.0000 0.29960  0.81590  0.21310  Biso   1.000  C
  C228     1.0000 0.20040  0.18410  0.71310  Biso   1.000  C
  C229     1.0000 0.06590  0.95040  0.46310  Biso   1.000  C
  C230     1.0000 0.43410  0.04960  0.96310  Biso   1.000  C
  C231     1.0000 0.79960  0.31590  0.71310  Biso   1.000  C
  C232     1.0000 0.70040  0.68410  0.21310  Biso   1.000  C
  C233     1.0000 0.43410  0.54960  0.03690  Biso   1.000  C
  C234     1.0000 0.06590  0.45040  0.53690  Biso   1.000  C
  C235     1.0000 0.20040  0.68410  0.28690  Biso   1.000  C
  C236     1.0000 0.29960  0.31590  0.78690  Biso   1.000  C
  C237     1.0000 0.93410  0.04960  0.53690  Biso   1.000  C
  C238     1.0000 0.56590  0.95040  0.03690  Biso   1.000  C
  C239     1.0000 0.70040  0.18410  0.78690  Biso   1.000  C
  C240     1.0000 0.79960  0.81590  0.28690  Biso   1.000  C
  H145     1.0000 0.56720  0.41880  0.99770  Biso   1.000  H
  H146     1.0000 0.93280  0.58120  0.49770  Biso   1.000  H
  H147     1.0000 0.33120  0.81720  0.24770  Biso   1.000  H
  H148     1.0000 0.16880  0.18280  0.74770  Biso   1.000  H
  H149     1.0000 0.06720  0.91880  0.49770  Biso   1.000  H
  H150     1.0000 0.43280  0.08120  0.99770  Biso   1.000  H
  H151     1.0000 0.83120  0.31720  0.74770  Biso   1.000  H
  H152     1.0000 0.66880  0.68280  0.24770  Biso   1.000  H
  H153     1.0000 0.43280  0.58120  0.00230  Biso   1.000  H
  H154     1.0000 0.06720  0.41880  0.50230  Biso   1.000  H
  H155     1.0000 0.16880  0.68280  0.25230  Biso   1.000  H
  H156     1.0000 0.33120  0.31720  0.75230  Biso   1.000  H
  H157     1.0000 0.93280  0.08120  0.50230  Biso   1.000  H
  H158     1.0000 0.56720  0.91880  0.00230  Biso   1.000  H
  H159     1.0000 0.66880  0.18280  0.75230  Biso   1.000  H
  H160     1.0000 0.83120  0.81720  0.25230  Biso   1.000  H
  C241     1.0000 0.54160  0.49520  0.71880  Biso   1.000  C
  C242     1.0000 0.95840  0.50480  0.21880  Biso   1.000  C
  C243     1.0000 0.25480  0.79160  0.96880  Biso   1.000  C
  C244     1.0000 0.24520  0.20840  0.46880  Biso   1.000  C
  C245     1.0000 0.04160  0.99520  0.21880  Biso   1.000  C
  C246     1.0000 0.45840  0.00480  0.71880  Biso   1.000  C
  C247     1.0000 0.75480  0.29160  0.46880  Biso   1.000  C
  C248     1.0000 0.74520  0.70840  0.96880  Biso   1.000  C
  C249     1.0000 0.45840  0.50480  0.28120  Biso   1.000  C
  C250     1.0000 0.04160  0.49520  0.78120  Biso   1.000  C
  C251     1.0000 0.24520  0.70840  0.53120  Biso   1.000  C
  C252     1.0000 0.25480  0.29160  0.03120  Biso   1.000  C
  C253     1.0000 0.95840  0.00480  0.78120  Biso   1.000  C
  C254     1.0000 0.54160  0.99520  0.28120  Biso   1.000  C
  C255     1.0000 0.74520  0.20840  0.03120  Biso   1.000  C
  C256     1.0000 0.75480  0.79160  0.53120  Biso   1.000  C
