data_image0
_cell_length_a       12.248
_cell_length_b       22.262
_cell_length_c       7.1435
_cell_angle_alpha    90
_cell_angle_beta     124.47
_cell_angle_gamma    90

_symmetry_space_group_name_H-M    "P 1"
_symmetry_int_tables_number       1

loop_
  _symmetry_equiv_pos_as_xyz
  'x, y, z'

loop_
  _atom_site_label
  _atom_site_occupancy
  _atom_site_fract_x
  _atom_site_fract_y
  _atom_site_fract_z
  _atom_site_thermal_displace_type
  _atom_site_B_iso_or_equiv
  _atom_site_type_symbol
  Cu1      1.0000 0.42127  0.50000  0.06977  Biso   1.000  Cu
  Cu2      1.0000 0.57873  0.50000  0.93023  Biso   1.000  Cu
  Cu3      1.0000 0.92127  0.00000  0.06977  Biso   1.000  Cu
  Cu4      1.0000 0.07873  0.00000  0.93023  Biso   1.000  Cu
  S1       1.0000 0.00000  0.23856  0.00000  Biso   1.000  S
  S2       1.0000 0.50000  0.73856  0.00000  Biso   1.000  S
  S3       1.0000 0.00000  0.76144  0.00000  Biso   1.000  S
  S4       1.0000 0.50000  0.26144  0.00000  Biso   1.000  S
  O1       1.0000 0.45950  0.43858  0.71270  Biso   1.000  O
  O2       1.0000 0.54050  0.43858  0.28730  Biso   1.000  O
  O3       1.0000 0.95950  0.93858  0.71270  Biso   1.000  O
  O4       1.0000 0.04050  0.93858  0.28730  Biso   1.000  O
  O5       1.0000 0.54050  0.56142  0.28730  Biso   1.000  O
  O6       1.0000 0.45950  0.56142  0.71270  Biso   1.000  O
  O7       1.0000 0.04050  0.06142  0.28730  Biso   1.000  O
  O8       1.0000 0.95950  0.06142  0.71270  Biso   1.000  O
  O9       1.0000 0.32760  0.43763  0.83760  Biso   1.000  O
  O10      1.0000 0.67240  0.43763  0.16240  Biso   1.000  O
  O11      1.0000 0.82760  0.93763  0.83760  Biso   1.000  O
  O12      1.0000 0.17240  0.93763  0.16240  Biso   1.000  O
  O13      1.0000 0.67240  0.56237  0.16240  Biso   1.000  O
  O14      1.0000 0.32760  0.56237  0.83760  Biso   1.000  O
  O15      1.0000 0.17240  0.06237  0.16240  Biso   1.000  O
  O16      1.0000 0.82760  0.06237  0.83760  Biso   1.000  O
  O17      1.0000 0.06750  0.20626  0.91990  Biso   1.000  O
  O18      1.0000 0.93250  0.20626  0.08010  Biso   1.000  O
  O19      1.0000 0.56750  0.70626  0.91990  Biso   1.000  O
  O20      1.0000 0.43250  0.70626  0.08010  Biso   1.000  O
  O21      1.0000 0.93250  0.79374  0.08010  Biso   1.000  O
  O22      1.0000 0.06750  0.79374  0.91990  Biso   1.000  O
  O23      1.0000 0.43250  0.29374  0.08010  Biso   1.000  O
  O24      1.0000 0.56750  0.29374  0.91990  Biso   1.000  O
  O25      1.0000 0.30270  0.50000  0.21190  Biso   1.000  O
  O26      1.0000 0.69730  0.50000  0.78810  Biso   1.000  O
  O27      1.0000 0.80270  0.00000  0.21190  Biso   1.000  O
  O28      1.0000 0.19730  0.00000  0.78810  Biso   1.000  O
  C1       1.0000 0.36190  0.41963  0.71090  Biso   1.000  C
  C2       1.0000 0.63810  0.41963  0.28910  Biso   1.000  C
  C3       1.0000 0.86190  0.91963  0.71090  Biso   1.000  C
  C4       1.0000 0.13810  0.91963  0.28910  Biso   1.000  C
  C5       1.0000 0.63810  0.58037  0.28910  Biso   1.000  C
  C6       1.0000 0.36190  0.58037  0.71090  Biso   1.000  C
  C7       1.0000 0.13810  0.08037  0.28910  Biso   1.000  C
  C8       1.0000 0.86190  0.08037  0.71090  Biso   1.000  C
  C9       1.0000 0.27740  0.37241  0.53950  Biso   1.000  C
  C10      1.0000 0.72260  0.37241  0.46050  Biso   1.000  C
  C11      1.0000 0.77740  0.87241  0.53950  Biso   1.000  C
  C12      1.0000 0.22260  0.87241  0.46050  Biso   1.000  C
  C13      1.0000 0.72260  0.62759  0.46050  Biso   1.000  C
  C14      1.0000 0.27740  0.62759  0.53950  Biso   1.000  C
  C15      1.0000 0.22260  0.12759  0.46050  Biso   1.000  C
  C16      1.0000 0.77740  0.12759  0.53950  Biso   1.000  C
  C17      1.0000 0.29990  0.35412  0.37800  Biso   1.000  C
  C18      1.0000 0.70010  0.35412  0.62200  Biso   1.000  C
  C19      1.0000 0.79990  0.85412  0.37800  Biso   1.000  C
  C20      1.0000 0.20010  0.85412  0.62200  Biso   1.000  C
  C21      1.0000 0.70010  0.64588  0.62200  Biso   1.000  C
  C22      1.0000 0.29990  0.64588  0.37800  Biso   1.000  C
  C23      1.0000 0.20010  0.14588  0.62200  Biso   1.000  C
  C24      1.0000 0.79990  0.14588  0.37800  Biso   1.000  C
  H1       1.0000 0.37080  0.37010  0.38020  Biso   1.000  H
  H2       1.0000 0.62920  0.37010  0.61980  Biso   1.000  H
  H3       1.0000 0.87080  0.87010  0.38020  Biso   1.000  H
  H4       1.0000 0.12920  0.87010  0.61980  Biso   1.000  H
  H5       1.0000 0.62920  0.62990  0.61980  Biso   1.000  H
  H6       1.0000 0.37080  0.62990  0.38020  Biso   1.000  H
  H7       1.0000 0.12920  0.12990  0.61980  Biso   1.000  H
  H8       1.0000 0.87080  0.12990  0.38020  Biso   1.000  H
  C25      1.0000 0.21830  0.31265  0.21520  Biso   1.000  C
  C26      1.0000 0.78170  0.31265  0.78480  Biso   1.000  C
  C27      1.0000 0.71830  0.81265  0.21520  Biso   1.000  C
  C28      1.0000 0.28170  0.81265  0.78480  Biso   1.000  C
  C29      1.0000 0.78170  0.68735  0.78480  Biso   1.000  C
  C30      1.0000 0.21830  0.68735  0.21520  Biso   1.000  C
  C31      1.0000 0.28170  0.18735  0.78480  Biso   1.000  C
  C32      1.0000 0.71830  0.18735  0.21520  Biso   1.000  C
  H9       1.0000 0.23290  0.30070  0.10630  Biso   1.000  H
  H10      1.0000 0.76710  0.30070  0.89370  Biso   1.000  H
  H11      1.0000 0.73290  0.80070  0.10630  Biso   1.000  H
  H12      1.0000 0.26710  0.80070  0.89370  Biso   1.000  H
  H13      1.0000 0.76710  0.69930  0.89370  Biso   1.000  H
  H14      1.0000 0.23290  0.69930  0.10630  Biso   1.000  H
  H15      1.0000 0.26710  0.19930  0.89370  Biso   1.000  H
  H16      1.0000 0.73290  0.19930  0.10630  Biso   1.000  H
  C33      1.0000 0.11340  0.28869  0.21580  Biso   1.000  C
  C34      1.0000 0.88660  0.28869  0.78420  Biso   1.000  C
  C35      1.0000 0.61340  0.78869  0.21580  Biso   1.000  C
  C36      1.0000 0.38660  0.78869  0.78420  Biso   1.000  C
  C37      1.0000 0.88660  0.71131  0.78420  Biso   1.000  C
  C38      1.0000 0.11340  0.71131  0.21580  Biso   1.000  C
  C39      1.0000 0.38660  0.21131  0.78420  Biso   1.000  C
  C40      1.0000 0.61340  0.21131  0.21580  Biso   1.000  C
  C41      1.0000 0.09200  0.30518  0.37780  Biso   1.000  C
  C42      1.0000 0.90800  0.30518  0.62220  Biso   1.000  C
  C43      1.0000 0.59200  0.80518  0.37780  Biso   1.000  C
  C44      1.0000 0.40800  0.80518  0.62220  Biso   1.000  C
  C45      1.0000 0.90800  0.69482  0.62220  Biso   1.000  C
  C46      1.0000 0.09200  0.69482  0.37780  Biso   1.000  C
  C47      1.0000 0.40800  0.19482  0.62220  Biso   1.000  C
  C48      1.0000 0.59200  0.19482  0.37780  Biso   1.000  C
  H17      1.0000 0.02230  0.28850  0.37760  Biso   1.000  H
  H18      1.0000 0.97770  0.28850  0.62240  Biso   1.000  H
  H19      1.0000 0.52230  0.78850  0.37760  Biso   1.000  H
  H20      1.0000 0.47770  0.78850  0.62240  Biso   1.000  H
  H21      1.0000 0.97770  0.71150  0.62240  Biso   1.000  H
  H22      1.0000 0.02230  0.71150  0.37760  Biso   1.000  H
  H23      1.0000 0.47770  0.21150  0.62240  Biso   1.000  H
  H24      1.0000 0.52230  0.21150  0.37760  Biso   1.000  H
  C49      1.0000 0.17510  0.34673  0.54110  Biso   1.000  C
  C50      1.0000 0.82490  0.34673  0.45890  Biso   1.000  C
  C51      1.0000 0.67510  0.84673  0.54110  Biso   1.000  C
  C52      1.0000 0.32490  0.84673  0.45890  Biso   1.000  C
  C53      1.0000 0.82490  0.65327  0.45890  Biso   1.000  C
  C54      1.0000 0.17510  0.65327  0.54110  Biso   1.000  C
  C55      1.0000 0.32490  0.15327  0.45890  Biso   1.000  C
  C56      1.0000 0.67510  0.15327  0.54110  Biso   1.000  C
  H25      1.0000 0.16220  0.35750  0.65300  Biso   1.000  H
  H26      1.0000 0.83780  0.35750  0.34700  Biso   1.000  H
  H27      1.0000 0.66220  0.85750  0.65300  Biso   1.000  H
  H28      1.0000 0.33780  0.85750  0.34700  Biso   1.000  H
  H29      1.0000 0.83780  0.64250  0.34700  Biso   1.000  H
  H30      1.0000 0.16220  0.64250  0.65300  Biso   1.000  H
  H31      1.0000 0.33780  0.14250  0.34700  Biso   1.000  H
  H32      1.0000 0.66220  0.14250  0.65300  Biso   1.000  H
