data_image0
_cell_length_a       11.997
_cell_length_b       14.888
_cell_length_c       16.429
_cell_angle_alpha    90
_cell_angle_beta     102.35
_cell_angle_gamma    90

_symmetry_space_group_name_H-M    "P 1"
_symmetry_int_tables_number       1

loop_
  _symmetry_equiv_pos_as_xyz
  'x, y, z'

loop_
  _atom_site_label
  _atom_site_occupancy
  _atom_site_fract_x
  _atom_site_fract_y
  _atom_site_fract_z
  _atom_site_thermal_displace_type
  _atom_site_B_iso_or_equiv
  _atom_site_type_symbol
  Cu1      1.0000 0.49768  0.68849  0.29636  Biso   1.000  Cu
  Cu2      1.0000 0.00232  0.18849  0.20364  Biso   1.000  Cu
  Cu3      1.0000 0.50232  0.31151  0.70364  Biso   1.000  Cu
  Cu4      1.0000 0.99768  0.81151  0.79636  Biso   1.000  Cu
  Mn1      1.0000 0.68072  0.56110  0.22307  Biso   1.000  Mn
  Mn2      1.0000 0.81928  0.06110  0.27693  Biso   1.000  Mn
  Mn3      1.0000 0.31928  0.43890  0.77693  Biso   1.000  Mn
  Mn4      1.0000 0.18072  0.93890  0.72307  Biso   1.000  Mn
  O1       1.0000 0.62170  0.60420  0.33470  Biso   1.000  O
  O2       1.0000 0.87830  0.10420  0.16530  Biso   1.000  O
  O3       1.0000 0.37830  0.39580  0.66530  Biso   1.000  O
  O4       1.0000 0.12170  0.89580  0.83470  Biso   1.000  O
  O5       1.0000 0.54490  0.66020  0.19220  Biso   1.000  O
  O6       1.0000 0.95510  0.16020  0.30780  Biso   1.000  O
  O7       1.0000 0.45510  0.33980  0.80780  Biso   1.000  O
  O8       1.0000 0.04490  0.83980  0.69220  Biso   1.000  O
  O9       1.0000 0.35140  0.57630  0.25880  Biso   1.000  O
  O10      1.0000 0.14860  0.07630  0.24120  Biso   1.000  O
  O11      1.0000 0.64860  0.42370  0.74120  Biso   1.000  O
  O12      1.0000 0.85140  0.92370  0.75880  Biso   1.000  O
  H1       1.0000 0.38710  0.51960  0.26040  Biso   1.000  H
  H2       1.0000 0.11290  0.01960  0.23960  Biso   1.000  H
  H3       1.0000 0.61290  0.48040  0.73960  Biso   1.000  H
  H4       1.0000 0.88710  0.98040  0.76040  Biso   1.000  H
  O13      1.0000 0.79160  0.49470  0.35200  Biso   1.000  O
  O14      1.0000 0.70840  0.99470  0.14800  Biso   1.000  O
  O15      1.0000 0.20840  0.50530  0.64800  Biso   1.000  O
  O16      1.0000 0.29160  0.00530  0.85200  Biso   1.000  O
  O17      1.0000 0.62010  0.58610  0.07190  Biso   1.000  O
  O18      1.0000 0.87990  0.08610  0.42810  Biso   1.000  O
  O19      1.0000 0.37990  0.41390  0.92810  Biso   1.000  O
  O20      1.0000 0.12010  0.91390  0.57190  Biso   1.000  O
  O21      1.0000 0.60530  0.43300  0.20820  Biso   1.000  O
  O22      1.0000 0.89470  0.93300  0.29180  Biso   1.000  O
  O23      1.0000 0.39470  0.56700  0.79180  Biso   1.000  O
  O24      1.0000 0.10530  0.06700  0.70820  Biso   1.000  O
  O25      1.0000 0.45410  0.41450  0.26510  Biso   1.000  O
  O26      1.0000 0.04590  0.91450  0.23490  Biso   1.000  O
  O27      1.0000 0.54590  0.58550  0.73490  Biso   1.000  O
  O28      1.0000 0.95410  0.08550  0.76510  Biso   1.000  O
  O29      1.0000 0.67540  0.00730  0.32480  Biso   1.000  O
  O30      1.0000 0.82460  0.50730  0.17520  Biso   1.000  O
  O31      1.0000 0.32460  0.99270  0.67520  Biso   1.000  O
  O32      1.0000 0.17540  0.49270  0.82480  Biso   1.000  O
  O33      1.0000 0.52220  0.03840  0.37610  Biso   1.000  O
  O34      1.0000 0.97780  0.53840  0.12390  Biso   1.000  O
  O35      1.0000 0.47780  0.96160  0.62390  Biso   1.000  O
  O36      1.0000 0.02220  0.46160  0.87610  Biso   1.000  O
  N1       1.0000 0.46380  0.69780  0.41020  Biso   1.000  N
  N2       1.0000 0.03620  0.19780  0.08980  Biso   1.000  N
  N3       1.0000 0.53620  0.30220  0.58980  Biso   1.000  N
  N4       1.0000 0.96380  0.80220  0.91020  Biso   1.000  N
  N5       1.0000 0.39770  0.78630  0.24260  Biso   1.000  N
  N6       1.0000 0.10230  0.28630  0.25740  Biso   1.000  N
  N7       1.0000 0.60230  0.21370  0.75740  Biso   1.000  N
  N8       1.0000 0.89770  0.71370  0.74260  Biso   1.000  N
  N9       1.0000 0.67490  0.26070  0.24820  Biso   1.000  N
  N10      1.0000 0.82510  0.76070  0.25180  Biso   1.000  N
  N11      1.0000 0.32510  0.73930  0.75180  Biso   1.000  N
  N12      1.0000 0.17490  0.23930  0.74820  Biso   1.000  N
  N13      1.0000 0.68960  0.17320  0.27110  Biso   1.000  N
  N14      1.0000 0.81040  0.67320  0.22890  Biso   1.000  N
  N15      1.0000 0.31040  0.82680  0.72890  Biso   1.000  N
  N16      1.0000 0.18960  0.32680  0.77110  Biso   1.000  N
  H5       1.0000 0.72600  0.28460  0.22090  Biso   1.000  H
  H6       1.0000 0.77400  0.78460  0.27910  Biso   1.000  H
  H7       1.0000 0.27400  0.71540  0.77910  Biso   1.000  H
  H8       1.0000 0.22600  0.21540  0.72090  Biso   1.000  H
  C1       1.0000 0.37540  0.75850  0.42860  Biso   1.000  C
  C2       1.0000 0.12460  0.25850  0.07140  Biso   1.000  C
  C3       1.0000 0.62460  0.24150  0.57140  Biso   1.000  C
  C4       1.0000 0.87540  0.74150  0.92860  Biso   1.000  C
  H9       1.0000 0.33600  0.72870  0.46680  Biso   1.000  H
  H10      1.0000 0.16400  0.22870  0.03320  Biso   1.000  H
  H11      1.0000 0.66400  0.27130  0.53320  Biso   1.000  H
  H12      1.0000 0.83600  0.77130  0.96680  Biso   1.000  H
  H13      1.0000 0.41180  0.81180  0.45610  Biso   1.000  H
  H14      1.0000 0.08820  0.31180  0.04390  Biso   1.000  H
  H15      1.0000 0.58820  0.18820  0.54390  Biso   1.000  H
  H16      1.0000 0.91180  0.68820  0.95610  Biso   1.000  H
  C5       1.0000 0.29240  0.78530  0.35470  Biso   1.000  C
  C6       1.0000 0.20760  0.28530  0.14530  Biso   1.000  C
  C7       1.0000 0.70760  0.21470  0.64530  Biso   1.000  C
  C8       1.0000 0.79240  0.71470  0.85470  Biso   1.000  C
  H17      1.0000 0.23120  0.81730  0.37240  Biso   1.000  H
  H18      1.0000 0.26880  0.31730  0.12760  Biso   1.000  H
  H19      1.0000 0.76880  0.18270  0.62760  Biso   1.000  H
  H20      1.0000 0.73120  0.68270  0.87240  Biso   1.000  H
  H21      1.0000 0.25960  0.73130  0.32610  Biso   1.000  H
  H22      1.0000 0.24040  0.23130  0.17390  Biso   1.000  H
  H23      1.0000 0.74040  0.26870  0.67390  Biso   1.000  H
  H24      1.0000 0.75960  0.76870  0.82610  Biso   1.000  H
  C9       1.0000 0.33540  0.84320  0.29300  Biso   1.000  C
  C10      1.0000 0.16460  0.34320  0.20700  Biso   1.000  C
  C11      1.0000 0.66460  0.15680  0.70700  Biso   1.000  C
  C12      1.0000 0.83540  0.65680  0.79300  Biso   1.000  C
  H25      1.0000 0.27180  0.87290  0.25660  Biso   1.000  H
  H26      1.0000 0.22820  0.37290  0.24340  Biso   1.000  H
  H27      1.0000 0.72820  0.12710  0.74340  Biso   1.000  H
  H28      1.0000 0.77180  0.62710  0.75660  Biso   1.000  H
  H29      1.0000 0.38620  0.88900  0.32230  Biso   1.000  H
  H30      1.0000 0.11380  0.38900  0.17770  Biso   1.000  H
  H31      1.0000 0.61380  0.11100  0.67770  Biso   1.000  H
  H32      1.0000 0.88620  0.61100  0.82230  Biso   1.000  H
  C13      1.0000 0.38250  0.80540  0.16600  Biso   1.000  C
  C14      1.0000 0.11750  0.30540  0.33400  Biso   1.000  C
  C15      1.0000 0.61750  0.19460  0.83400  Biso   1.000  C
  C16      1.0000 0.88250  0.69460  0.66600  Biso   1.000  C
  H33      1.0000 0.33060  0.85150  0.14820  Biso   1.000  H
  H34      1.0000 0.16940  0.35150  0.35180  Biso   1.000  H
  H35      1.0000 0.66940  0.14850  0.85180  Biso   1.000  H
  H36      1.0000 0.83060  0.64850  0.64820  Biso   1.000  H
  C17      1.0000 0.43310  0.76680  0.10170  Biso   1.000  C
  C18      1.0000 0.06690  0.26680  0.39830  Biso   1.000  C
  C19      1.0000 0.56690  0.23320  0.89830  Biso   1.000  C
  C20      1.0000 0.93310  0.73320  0.60170  Biso   1.000  C
  C21      1.0000 0.40650  0.80340  0.01950  Biso   1.000  C
  C22      1.0000 0.09350  0.30340  0.48050  Biso   1.000  C
  C23      1.0000 0.59350  0.19660  0.98050  Biso   1.000  C
  C24      1.0000 0.90650  0.69660  0.51950  Biso   1.000  C
  H37      1.0000 0.35620  0.85160  0.00870  Biso   1.000  H
  H38      1.0000 0.14380  0.35160  0.49130  Biso   1.000  H
  H39      1.0000 0.64380  0.14840  0.99130  Biso   1.000  H
  H40      1.0000 0.85620  0.64840  0.50870  Biso   1.000  H
  C25      1.0000 0.45140  0.77080  0.95680  Biso   1.000  C
  C26      1.0000 0.04860  0.27080  0.54320  Biso   1.000  C
  C27      1.0000 0.54860  0.22920  0.04320  Biso   1.000  C
  C28      1.0000 0.95140  0.72920  0.45680  Biso   1.000  C
  H41      1.0000 0.43460  0.79760  0.90440  Biso   1.000  H
  H42      1.0000 0.06540  0.29760  0.59560  Biso   1.000  H
  H43      1.0000 0.56540  0.20240  0.09560  Biso   1.000  H
  H44      1.0000 0.93460  0.70240  0.40440  Biso   1.000  H
  C29      1.0000 0.52320  0.69640  0.97190  Biso   1.000  C
  C30      1.0000 0.97680  0.19640  0.52810  Biso   1.000  C
  C31      1.0000 0.47680  0.30360  0.02810  Biso   1.000  C
  C32      1.0000 0.02320  0.80360  0.47190  Biso   1.000  C
  H45      1.0000 0.55170  0.67160  0.92860  Biso   1.000  H
  H46      1.0000 0.94830  0.17160  0.57140  Biso   1.000  H
  H47      1.0000 0.44830  0.32840  0.07140  Biso   1.000  H
  H48      1.0000 0.05170  0.82840  0.42860  Biso   1.000  H
  C33      1.0000 0.55220  0.65920  0.04980  Biso   1.000  C
  C34      1.0000 0.94780  0.15920  0.45020  Biso   1.000  C
  C35      1.0000 0.44780  0.34080  0.95020  Biso   1.000  C
  C36      1.0000 0.05220  0.84080  0.54980  Biso   1.000  C
  C37      1.0000 0.51030  0.69610  0.11820  Biso   1.000  C
  C38      1.0000 0.98970  0.19610  0.38180  Biso   1.000  C
  C39      1.0000 0.48970  0.30390  0.88180  Biso   1.000  C
  C40      1.0000 0.01030  0.80390  0.61820  Biso   1.000  C
  C41      1.0000 0.65270  0.53510  0.00700  Biso   1.000  C
  C42      1.0000 0.84730  0.03510  0.49300  Biso   1.000  C
  C43      1.0000 0.34730  0.46490  0.99300  Biso   1.000  C
  C44      1.0000 0.15270  0.96490  0.50700  Biso   1.000  C
  H49      1.0000 0.58680  0.52400  0.96350  Biso   1.000  H
  H50      1.0000 0.91320  0.02400  0.53650  Biso   1.000  H
  H51      1.0000 0.41320  0.47600  0.03650  Biso   1.000  H
  H52      1.0000 0.08680  0.97600  0.46350  Biso   1.000  H
  H53      1.0000 0.68510  0.47900  0.02910  Biso   1.000  H
  H54      1.0000 0.81490  0.97900  0.47090  Biso   1.000  H
  H55      1.0000 0.31490  0.52100  0.97090  Biso   1.000  H
  H56      1.0000 0.18510  0.02100  0.52910  Biso   1.000  H
  H57      1.0000 0.70820  0.56820  0.98480  Biso   1.000  H
  H58      1.0000 0.79180  0.06820  0.51520  Biso   1.000  H
  H59      1.0000 0.29180  0.43180  0.01520  Biso   1.000  H
  H60      1.0000 0.20820  0.93180  0.48480  Biso   1.000  H
  C45      1.0000 0.51210  0.64880  0.47120  Biso   1.000  C
  C46      1.0000 0.98790  0.14880  0.02880  Biso   1.000  C
  C47      1.0000 0.48790  0.35120  0.52880  Biso   1.000  C
  C48      1.0000 0.01210  0.85120  0.97120  Biso   1.000  C
  H61      1.0000 0.48350  0.65520  0.51930  Biso   1.000  H
  H62      1.0000 0.01650  0.15520  0.98070  Biso   1.000  H
  H63      1.0000 0.51650  0.34480  0.48070  Biso   1.000  H
  H64      1.0000 0.98350  0.84480  0.01930  Biso   1.000  H
  C49      1.0000 0.60470  0.58490  0.47760  Biso   1.000  C
  C50      1.0000 0.89530  0.08490  0.02240  Biso   1.000  C
  C51      1.0000 0.39530  0.41510  0.52240  Biso   1.000  C
  C52      1.0000 0.10470  0.91510  0.97760  Biso   1.000  C
  C53      1.0000 0.64400  0.53960  0.55360  Biso   1.000  C
  C54      1.0000 0.85600  0.03960  0.94640  Biso   1.000  C
  C55      1.0000 0.35600  0.46040  0.44640  Biso   1.000  C
  C56      1.0000 0.14400  0.96040  0.05360  Biso   1.000  C
  H65      1.0000 0.61040  0.55140  0.59860  Biso   1.000  H
  H66      1.0000 0.88960  0.05140  0.90140  Biso   1.000  H
  H67      1.0000 0.38960  0.44860  0.40140  Biso   1.000  H
  H68      1.0000 0.11040  0.94860  0.09860  Biso   1.000  H
  C57      1.0000 0.72930  0.47960  0.56210  Biso   1.000  C
  C58      1.0000 0.77070  0.97960  0.93790  Biso   1.000  C
  C59      1.0000 0.27070  0.52040  0.43790  Biso   1.000  C
  C60      1.0000 0.22930  0.02040  0.06210  Biso   1.000  C
  H69      1.0000 0.75420  0.45040  0.61280  Biso   1.000  H
  H70      1.0000 0.74580  0.95040  0.88720  Biso   1.000  H
  H71      1.0000 0.24580  0.54960  0.38720  Biso   1.000  H
  H72      1.0000 0.25420  0.04960  0.11280  Biso   1.000  H
  C61      1.0000 0.78010  0.46090  0.49670  Biso   1.000  C
  C62      1.0000 0.71990  0.96090  0.00330  Biso   1.000  C
  C63      1.0000 0.21990  0.53910  0.50330  Biso   1.000  C
  C64      1.0000 0.28010  0.03910  0.99670  Biso   1.000  C
  H73      1.0000 0.83830  0.41850  0.50310  Biso   1.000  H
  H74      1.0000 0.66170  0.91850  0.99690  Biso   1.000  H
  H75      1.0000 0.16170  0.58150  0.49690  Biso   1.000  H
  H76      1.0000 0.33830  0.08150  0.00310  Biso   1.000  H
  C65      1.0000 0.74520  0.50480  0.42150  Biso   1.000  C
  C66      1.0000 0.75480  0.00480  0.07850  Biso   1.000  C
  C67      1.0000 0.25480  0.49520  0.57850  Biso   1.000  C
  C68      1.0000 0.24520  0.99520  0.92150  Biso   1.000  C
  C69      1.0000 0.65400  0.56640  0.40860  Biso   1.000  C
  C70      1.0000 0.84600  0.06640  0.09140  Biso   1.000  C
  C71      1.0000 0.34600  0.43360  0.59140  Biso   1.000  C
  C72      1.0000 0.15400  0.93360  0.90860  Biso   1.000  C
  C73      1.0000 0.88750  0.43420  0.36090  Biso   1.000  C
  C74      1.0000 0.61250  0.93420  0.13910  Biso   1.000  C
  C75      1.0000 0.11250  0.56580  0.63910  Biso   1.000  C
  C76      1.0000 0.38750  0.06580  0.86090  Biso   1.000  C
  H77      1.0000 0.94880  0.45580  0.40390  Biso   1.000  H
  H78      1.0000 0.55120  0.95580  0.09610  Biso   1.000  H
  H79      1.0000 0.05120  0.54420  0.59610  Biso   1.000  H
  H80      1.0000 0.44880  0.04420  0.90390  Biso   1.000  H
  H81      1.0000 0.91240  0.43110  0.30920  Biso   1.000  H
  H82      1.0000 0.58760  0.93110  0.19080  Biso   1.000  H
  H83      1.0000 0.08760  0.56890  0.69080  Biso   1.000  H
  H84      1.0000 0.41240  0.06890  0.80920  Biso   1.000  H
  H85      1.0000 0.86500  0.37550  0.37540  Biso   1.000  H
  H86      1.0000 0.63500  0.87550  0.12460  Biso   1.000  H
  H87      1.0000 0.13500  0.62450  0.62460  Biso   1.000  H
  H88      1.0000 0.36500  0.12450  0.87540  Biso   1.000  H
  C77      1.0000 0.27330  0.58160  0.18620  Biso   1.000  C
  C78      1.0000 0.22670  0.08160  0.31380  Biso   1.000  C
  C79      1.0000 0.72670  0.41840  0.81380  Biso   1.000  C
  C80      1.0000 0.77330  0.91840  0.68620  Biso   1.000  C
  H89      1.0000 0.22230  0.53130  0.18160  Biso   1.000  H
  H90      1.0000 0.27770  0.03130  0.31840  Biso   1.000  H
  H91      1.0000 0.77770  0.46870  0.81840  Biso   1.000  H
  H92      1.0000 0.72230  0.96870  0.68160  Biso   1.000  H
  H93      1.0000 0.31150  0.58090  0.14050  Biso   1.000  H
  H94      1.0000 0.18850  0.08090  0.35950  Biso   1.000  H
  H95      1.0000 0.68850  0.41910  0.85950  Biso   1.000  H
  H96      1.0000 0.81150  0.91910  0.64050  Biso   1.000  H
  H97      1.0000 0.23070  0.63630  0.18500  Biso   1.000  H
  H98      1.0000 0.26930  0.13630  0.31500  Biso   1.000  H
  H99      1.0000 0.76930  0.36370  0.81500  Biso   1.000  H
  H100     1.0000 0.73070  0.86370  0.68500  Biso   1.000  H
  C81      1.0000 0.54290  0.38900  0.24600  Biso   1.000  C
  C82      1.0000 0.95710  0.88900  0.25400  Biso   1.000  C
  C83      1.0000 0.45710  0.61100  0.75400  Biso   1.000  C
  C84      1.0000 0.04290  0.11100  0.74600  Biso   1.000  C
  C85      1.0000 0.57900  0.29310  0.26700  Biso   1.000  C
  C86      1.0000 0.92100  0.79310  0.23300  Biso   1.000  C
  C87      1.0000 0.42100  0.70690  0.73300  Biso   1.000  C
  C88      1.0000 0.07900  0.20690  0.76700  Biso   1.000  C
  C89      1.0000 0.53040  0.22710  0.30460  Biso   1.000  C
  C90      1.0000 0.96960  0.72710  0.19540  Biso   1.000  C
  C91      1.0000 0.46960  0.77290  0.69540  Biso   1.000  C
  C92      1.0000 0.03040  0.27290  0.80460  Biso   1.000  C
  H101     1.0000 0.46390  0.23060  0.32500  Biso   1.000  H
  H102     1.0000 0.03610  0.73060  0.17500  Biso   1.000  H
  H103     1.0000 0.53610  0.76940  0.67500  Biso   1.000  H
  H104     1.0000 0.96390  0.26940  0.82500  Biso   1.000  H
  C93      1.0000 0.60220  0.15240  0.30620  Biso   1.000  C
  C94      1.0000 0.89780  0.65240  0.19380  Biso   1.000  C
  C95      1.0000 0.39780  0.84760  0.69380  Biso   1.000  C
  C96      1.0000 0.10220  0.34760  0.80620  Biso   1.000  C
  C97      1.0000 0.59700  0.06000  0.33820  Biso   1.000  C
  C98      1.0000 0.90300  0.56000  0.16180  Biso   1.000  C
  C99      1.0000 0.40300  0.94000  0.66180  Biso   1.000  C
  C100     1.0000 0.09700  0.44000  0.83820  Biso   1.000  C
  O37      1.0000 0.66860  0.82390  0.34490  Biso   1.000  O
  O38      1.0000 0.83140  0.32390  0.15510  Biso   1.000  O
  O39      1.0000 0.33140  0.17610  0.65510  Biso   1.000  O
  O40      1.0000 0.16860  0.67610  0.84490  Biso   1.000  O
  H105     1.0000 0.65970  0.81550  0.39430  Biso   1.000  H
  H106     1.0000 0.84030  0.31550  0.10570  Biso   1.000  H
  H107     1.0000 0.34030  0.18450  0.60570  Biso   1.000  H
  H108     1.0000 0.15970  0.68450  0.89430  Biso   1.000  H
  H109     1.0000 0.64860  0.87760  0.33130  Biso   1.000  H
  H110     1.0000 0.85140  0.37760  0.16870  Biso   1.000  H
  H111     1.0000 0.35140  0.12240  0.66870  Biso   1.000  H
  H112     1.0000 0.14860  0.62240  0.83130  Biso   1.000  H
  O41      1.0000 0.60080  0.89830  0.50210  Biso   1.000  O
  O42      1.0000 0.89920  0.39830  0.99790  Biso   1.000  O
  O43      1.0000 0.39920  0.10170  0.49790  Biso   1.000  O
  O44      1.0000 0.10080  0.60170  0.00210  Biso   1.000  O
  H113     1.0000 0.67460  0.89800  0.52510  Biso   1.000  H
  H114     1.0000 0.82540  0.39800  0.97490  Biso   1.000  H
  H115     1.0000 0.32540  0.10200  0.47490  Biso   1.000  H
  H116     1.0000 0.17460  0.60200  0.02510  Biso   1.000  H
  H117     1.0000 0.56930  0.91390  0.54240  Biso   1.000  H
  H118     1.0000 0.93070  0.41390  0.95760  Biso   1.000  H
  H119     1.0000 0.43070  0.08610  0.45760  Biso   1.000  H
  H120     1.0000 0.06930  0.58610  0.04240  Biso   1.000  H
