data_image0
_cell_length_a       9.179
_cell_length_b       10.958
_cell_length_c       15.453
_cell_angle_alpha    87.149
_cell_angle_beta     82.558
_cell_angle_gamma    80.138

_symmetry_space_group_name_H-M    "P 1"
_symmetry_int_tables_number       1

loop_
  _symmetry_equiv_pos_as_xyz
  'x, y, z'

loop_
  _atom_site_label
  _atom_site_occupancy
  _atom_site_fract_x
  _atom_site_fract_y
  _atom_site_fract_z
  _atom_site_thermal_displace_type
  _atom_site_B_iso_or_equiv
  _atom_site_type_symbol
  Mn1      1.0000 0.65408  0.76590  0.23674  Biso   1.000  Mn
  Mn2      1.0000 0.34592  0.23410  0.76326  Biso   1.000  Mn
  Cu1      1.0000 0.67330  0.05628  0.17055  Biso   1.000  Cu
  Cu2      1.0000 0.32670  0.94372  0.82945  Biso   1.000  Cu
  Ni1      1.0000 0.00000  0.50000  0.00000  Biso   1.000  Ni
  Ni2      1.0000 0.50000  0.50000  0.50000  Biso   1.000  Ni
  N1       1.0000 0.59460  0.61360  0.32450  Biso   1.000  N
  N2       1.0000 0.40540  0.38640  0.67550  Biso   1.000  N
  N3       1.0000 0.17800  0.40310  0.14720  Biso   1.000  N
  N4       1.0000 0.82200  0.59690  0.85280  Biso   1.000  N
  N5       1.0000 0.22060  0.45100  0.43600  Biso   1.000  N
  N6       1.0000 0.77940  0.54900  0.56400  Biso   1.000  N
  N7       1.0000 0.77550  0.66110  0.12360  Biso   1.000  N
  N8       1.0000 0.22450  0.33890  0.87640  Biso   1.000  N
  N9       1.0000 0.82930  0.15800  0.17950  Biso   1.000  N
  N10      1.0000 0.17070  0.84200  0.82050  Biso   1.000  N
  N11      1.0000 0.53620  0.17880  0.10730  Biso   1.000  N
  N12      1.0000 0.46380  0.82120  0.89270  Biso   1.000  N
  N13      1.0000 0.71740  0.21900  0.41300  Biso   1.000  N
  N14      1.0000 0.28260  0.78100  0.58700  Biso   1.000  N
  O1       1.0000 0.42810  0.73150  0.18224  Biso   1.000  O
  O2       1.0000 0.57190  0.26850  0.81776  Biso   1.000  O
  O3       1.0000 0.88640  0.70090  0.29258  Biso   1.000  O
  O4       1.0000 0.11360  0.29910  0.70742  Biso   1.000  O
  O5       1.0000 0.79470  0.91140  0.21694  Biso   1.000  O
  O6       1.0000 0.20530  0.08860  0.78306  Biso   1.000  O
  O7       1.0000 0.55910  0.87390  0.35574  Biso   1.000  O
  O8       1.0000 0.44090  0.12610  0.64426  Biso   1.000  O
  H1       1.0000 0.54400  0.94400  0.34500  Biso   1.000  H
  H2       1.0000 0.45600  0.05600  0.65500  Biso   1.000  H
  O9       1.0000 0.54920  0.92920  0.16716  Biso   1.000  O
  O10      1.0000 0.45080  0.07080  0.83284  Biso   1.000  O
  O11      1.0000 0.53520  0.11700  0.31140  Biso   1.000  O
  O12      1.0000 0.46480  0.88300  0.68860  Biso   1.000  O
  H3       1.0000 0.57400  0.14300  0.35000  Biso   1.000  H
  H4       1.0000 0.42600  0.85700  0.65000  Biso   1.000  H
  H5       1.0000 0.46700  0.15500  0.30200  Biso   1.000  H
  H6       1.0000 0.53300  0.84500  0.69800  Biso   1.000  H
  O13      1.0000 0.27710  0.27390  0.29660  Biso   1.000  O
  O14      1.0000 0.72290  0.72610  0.70340  Biso   1.000  O
  H7       1.0000 0.27000  0.32500  0.32700  Biso   1.000  H
  H8       1.0000 0.73000  0.67500  0.67300  Biso   1.000  H
  H9       1.0000 0.26000  0.30500  0.24900  Biso   1.000  H
  H10      1.0000 0.74000  0.69500  0.75100  Biso   1.000  H
  C1       1.0000 0.32530  0.47080  0.46040  Biso   1.000  C
  C2       1.0000 0.67470  0.52920  0.53960  Biso   1.000  C
  C3       1.0000 0.82940  0.23800  0.42730  Biso   1.000  C
  C4       1.0000 0.17060  0.76200  0.57270  Biso   1.000  C
  C5       1.0000 0.97360  0.26170  0.44260  Biso   1.000  C
  C6       1.0000 0.02640  0.73830  0.55740  Biso   1.000  C
  H11      1.0000 0.03920  0.25610  0.38870  Biso   1.000  H
  H12      1.0000 0.96080  0.74390  0.61130  Biso   1.000  H
  H13      1.0000 0.01410  0.20150  0.48420  Biso   1.000  H
  H14      1.0000 0.98590  0.79850  0.51580  Biso   1.000  H
  H15      1.0000 0.96350  0.34320  0.46510  Biso   1.000  H
  H16      1.0000 0.03650  0.65680  0.53490  Biso   1.000  H
  C7       1.0000 0.61830  0.85760  0.43820  Biso   1.000  C
  C8       1.0000 0.38170  0.14240  0.56180  Biso   1.000  C
  H17      1.0000 0.67790  0.77690  0.44160  Biso   1.000  H
  H18      1.0000 0.32210  0.22310  0.55840  Biso   1.000  H
  H19      1.0000 0.53780  0.86540  0.48490  Biso   1.000  H
  H20      1.0000 0.46220  0.13460  0.51510  Biso   1.000  H
  H21      1.0000 0.67880  0.91970  0.44300  Biso   1.000  H
  H22      1.0000 0.32120  0.08030  0.55700  Biso   1.000  H
  C9       1.0000 0.55940  0.56830  0.39060  Biso   1.000  C
  C10      1.0000 0.44060  0.43170  0.60940  Biso   1.000  C
  C11      1.0000 0.65380  0.34960  0.15570  Biso   1.000  C
  C12      1.0000 0.34620  0.65040  0.84430  Biso   1.000  C
  H23      1.0000 0.65130  0.43840  0.14830  Biso   1.000  H
  H24      1.0000 0.34870  0.56160  0.85170  Biso   1.000  H
  H25      1.0000 0.60920  0.33360  0.21460  Biso   1.000  H
  H26      1.0000 0.39080  0.66640  0.78540  Biso   1.000  H
  C13      1.0000 0.17890  0.87540  0.33640  Biso   1.000  C
  C14      1.0000 0.82110  0.12460  0.66360  Biso   1.000  C
  H27      1.0000 0.26510  0.86610  0.36350  Biso   1.000  H
  H28      1.0000 0.73490  0.13390  0.63650  Biso   1.000  H
  C15      1.0000 0.10210  0.77630  0.33560  Biso   1.000  C
  C16      1.0000 0.89790  0.22370  0.66440  Biso   1.000  C
  H29      1.0000 0.13600  0.69200  0.35700  Biso   1.000  H
  H30      1.0000 0.86400  0.30800  0.64300  Biso   1.000  H
  C17      1.0000 0.37240  0.61730  0.18310  Biso   1.000  C
  C18      1.0000 0.62760  0.38270  0.81690  Biso   1.000  C
  H31      1.0000 0.26900  0.63010  0.20660  Biso   1.000  H
  H32      1.0000 0.73100  0.36990  0.79340  Biso   1.000  H
  H33      1.0000 0.42770  0.55670  0.21880  Biso   1.000  H
  H34      1.0000 0.57230  0.44330  0.78120  Biso   1.000  H
  H35      1.0000 0.38310  0.58830  0.12470  Biso   1.000  H
  H36      1.0000 0.61690  0.41170  0.87530  Biso   1.000  H
  C19      1.0000 0.94430  0.57800  0.32280  Biso   1.000  C
  C20      1.0000 0.05570  0.42200  0.67720  Biso   1.000  C
  H37      1.0000 0.04380  0.55310  0.29460  Biso   1.000  H
  H38      1.0000 0.95620  0.44690  0.70540  Biso   1.000  H
  H39      1.0000 0.88210  0.52130  0.30920  Biso   1.000  H
  H40      1.0000 0.11790  0.47870  0.69080  Biso   1.000  H
  H41      1.0000 0.94560  0.57750  0.38490  Biso   1.000  H
  H42      1.0000 0.05440  0.42250  0.61510  Biso   1.000  H
  C21      1.0000 0.12720  0.98650  0.29730  Biso   1.000  C
  C22      1.0000 0.87280  0.01350  0.70270  Biso   1.000  C
  H43      1.0000 0.17960  0.05200  0.29750  Biso   1.000  H
  H44      1.0000 0.82040  0.94800  0.70250  Biso   1.000  H
  C23      1.0000 0.97240  0.79140  0.29640  Biso   1.000  C
  C24      1.0000 0.02760  0.20860  0.70360  Biso   1.000  C
  C25      1.0000 0.99580  0.00320  0.25680  Biso   1.000  C
  C26      1.0000 0.00420  0.99680  0.74320  Biso   1.000  C
  C27      1.0000 0.35940  0.82770  0.13440  Biso   1.000  C
  C28      1.0000 0.64060  0.17230  0.86560  Biso   1.000  C
  C29      1.0000 0.23180  0.82580  0.09530  Biso   1.000  C
  C30      1.0000 0.76820  0.17420  0.90470  Biso   1.000  C
  H45      1.0000 0.18610  0.75580  0.10120  Biso   1.000  H
  H46      1.0000 0.81390  0.24420  0.89880  Biso   1.000  H
  C31      1.0000 0.91820  0.90350  0.25480  Biso   1.000  C
  C32      1.0000 0.08180  0.09650  0.74520  Biso   1.000  C
  C33      1.0000 0.94680  0.12190  0.21810  Biso   1.000  C
  C34      1.0000 0.05320  0.87810  0.78190  Biso   1.000  C
  H47      1.0000 0.00750  0.18100  0.22100  Biso   1.000  H
  H48      1.0000 0.99250  0.81900  0.77900  Biso   1.000  H
  C35      1.0000 0.56000  0.30900  0.09190  Biso   1.000  C
  C36      1.0000 0.44000  0.69100  0.90810  Biso   1.000  C
  H49      1.0000 0.46390  0.36300  0.09650  Biso   1.000  H
  H50      1.0000 0.53610  0.63700  0.90350  Biso   1.000  H
  H51      1.0000 0.60860  0.31830  0.03290  Biso   1.000  H
  H52      1.0000 0.39140  0.68170  0.96710  Biso   1.000  H
  C37      1.0000 0.42810  0.93320  0.12780  Biso   1.000  C
  C38      1.0000 0.57190  0.06680  0.87220  Biso   1.000  C
  C39      1.0000 0.17280  0.92920  0.04740  Biso   1.000  C
  C40      1.0000 0.82720  0.07080  0.95260  Biso   1.000  C
  H53      1.0000 0.09600  0.93200  0.02800  Biso   1.000  H
  H54      1.0000 0.90400  0.06800  0.97200  Biso   1.000  H
  C41      1.0000 0.81170  0.28730  0.14570  Biso   1.000  C
  C42      1.0000 0.18830  0.71270  0.85430  Biso   1.000  C
  H55      1.0000 0.85120  0.28830  0.08440  Biso   1.000  H
  H56      1.0000 0.14880  0.71170  0.91560  Biso   1.000  H
  H57      1.0000 0.86930  0.33330  0.17650  Biso   1.000  H
  H58      1.0000 0.13070  0.66670  0.82350  Biso   1.000  H
  C43      1.0000 0.36450  0.03830  0.08140  Biso   1.000  C
  C44      1.0000 0.63550  0.96170  0.91860  Biso   1.000  C
  C45      1.0000 0.42220  0.15290  0.07460  Biso   1.000  C
  C46      1.0000 0.57780  0.84710  0.92540  Biso   1.000  C
  H59      1.0000 0.37130  0.21670  0.04260  Biso   1.000  H
  H60      1.0000 0.62870  0.78330  0.95740  Biso   1.000  H
  C47      1.0000 0.23710  0.03430  0.04070  Biso   1.000  C
  C48      1.0000 0.76290  0.96570  0.95930  Biso   1.000  C
  H61      1.0000 0.19610  0.10320  0.00900  Biso   1.000  H
  H62      1.0000 0.80390  0.89680  0.99100  Biso   1.000  H
  C49      1.0000 0.86200  0.60130  0.07620  Biso   1.000  C
  C50      1.0000 0.13800  0.39870  0.92380  Biso   1.000  C
  C51      1.0000 0.11170  0.44290  0.09100  Biso   1.000  C
  C52      1.0000 0.88830  0.55710  0.90900  Biso   1.000  C
