data_image0
_cell_length_a       13.813
_cell_length_b       15.387
_cell_length_c       9.766
_cell_angle_alpha    90
_cell_angle_beta     106.316
_cell_angle_gamma    90

_symmetry_space_group_name_H-M    "P 1"
_symmetry_int_tables_number       1

loop_
  _symmetry_equiv_pos_as_xyz
  'x, y, z'

loop_
  _atom_site_label
  _atom_site_occupancy
  _atom_site_fract_x
  _atom_site_fract_y
  _atom_site_fract_z
  _atom_site_thermal_displace_type
  _atom_site_B_iso_or_equiv
  _atom_site_type_symbol
  Ag1      1.0000 0.50000  0.00000  0.00000  Biso   1.000  Ag
  Ag2      1.0000 0.00000  0.50000  0.00000  Biso   1.000  Ag
  Cu1      1.0000 0.89504  0.00000  0.31695  Biso   1.000  Cu
  Cu2      1.0000 0.39504  0.50000  0.31695  Biso   1.000  Cu
  Cu3      1.0000 0.10496  0.00000  0.68305  Biso   1.000  Cu
  Cu4      1.0000 0.60496  0.50000  0.68305  Biso   1.000  Cu
  K1       1.0000 0.00000  0.00000  0.00000  Biso   1.000  K
  K2       1.0000 0.50000  0.50000  0.00000  Biso   1.000  K
  O1       1.0000 0.10538  0.15095  0.12716  Biso   1.000  O
  O2       1.0000 0.60538  0.65095  0.12716  Biso   1.000  O
  O3       1.0000 0.89462  0.15095  0.87284  Biso   1.000  O
  O4       1.0000 0.39462  0.65095  0.87284  Biso   1.000  O
  O5       1.0000 0.89462  0.84905  0.87284  Biso   1.000  O
  O6       1.0000 0.39462  0.34905  0.87284  Biso   1.000  O
  O7       1.0000 0.10538  0.84905  0.12716  Biso   1.000  O
  O8       1.0000 0.60538  0.34905  0.12716  Biso   1.000  O
  O9       1.0000 0.97244  0.08045  0.23697  Biso   1.000  O
  O10      1.0000 0.47244  0.58045  0.23697  Biso   1.000  O
  O11      1.0000 0.02756  0.08045  0.76303  Biso   1.000  O
  O12      1.0000 0.52756  0.58045  0.76303  Biso   1.000  O
  O13      1.0000 0.02756  0.91955  0.76303  Biso   1.000  O
  O14      1.0000 0.52756  0.41955  0.76303  Biso   1.000  O
  O15      1.0000 0.97244  0.91955  0.23697  Biso   1.000  O
  O16      1.0000 0.47244  0.41955  0.23697  Biso   1.000  O
  N1       1.0000 0.74120  0.00000  0.12880  Biso   1.000  N
  N2       1.0000 0.24120  0.50000  0.12880  Biso   1.000  N
  N3       1.0000 0.25880  0.00000  0.87120  Biso   1.000  N
  N4       1.0000 0.75880  0.50000  0.87120  Biso   1.000  N
  N5       1.0000 0.84521  0.09800  0.41420  Biso   1.000  N
  N6       1.0000 0.34521  0.59800  0.41420  Biso   1.000  N
  N7       1.0000 0.15479  0.09800  0.58580  Biso   1.000  N
  N8       1.0000 0.65479  0.59800  0.58580  Biso   1.000  N
  N9       1.0000 0.15479  0.90200  0.58580  Biso   1.000  N
  N10      1.0000 0.65479  0.40200  0.58580  Biso   1.000  N
  N11      1.0000 0.84521  0.90200  0.41420  Biso   1.000  N
  N12      1.0000 0.34521  0.40200  0.41420  Biso   1.000  N
  C1       1.0000 0.93119  0.21623  0.32570  Biso   1.000  C
  C2       1.0000 0.43119  0.71623  0.32570  Biso   1.000  C
  C3       1.0000 0.06881  0.21623  0.67430  Biso   1.000  C
  C4       1.0000 0.56881  0.71623  0.67430  Biso   1.000  C
  C5       1.0000 0.06881  0.78377  0.67430  Biso   1.000  C
  C6       1.0000 0.56881  0.28377  0.67430  Biso   1.000  C
  C7       1.0000 0.93119  0.78377  0.32570  Biso   1.000  C
  C8       1.0000 0.43119  0.28377  0.32570  Biso   1.000  C
  C9       1.0000 0.98371  0.16415  0.25260  Biso   1.000  C
  C10      1.0000 0.48371  0.66415  0.25260  Biso   1.000  C
  C11      1.0000 0.01629  0.16415  0.74740  Biso   1.000  C
  C12      1.0000 0.51629  0.66415  0.74740  Biso   1.000  C
  C13      1.0000 0.01629  0.83585  0.74740  Biso   1.000  C
  C14      1.0000 0.51629  0.33585  0.74740  Biso   1.000  C
  C15      1.0000 0.98371  0.83585  0.25260  Biso   1.000  C
  C16      1.0000 0.48371  0.33585  0.25260  Biso   1.000  C
  C17      1.0000 0.79550  0.00000  0.58700  Biso   1.000  C
  C18      1.0000 0.29550  0.50000  0.58700  Biso   1.000  C
  C19      1.0000 0.20450  0.00000  0.41300  Biso   1.000  C
  C20      1.0000 0.70450  0.50000  0.41300  Biso   1.000  C
  H1       1.0000 0.86590  0.00000  0.64220  Biso   1.000  H
  H2       1.0000 0.36590  0.50000  0.64220  Biso   1.000  H
  H3       1.0000 0.13410  0.00000  0.35780  Biso   1.000  H
  H4       1.0000 0.63410  0.50000  0.35780  Biso   1.000  H
  H5       1.0000 0.75510  0.00000  0.65370  Biso   1.000  H
  H6       1.0000 0.25510  0.50000  0.65370  Biso   1.000  H
  H7       1.0000 0.24490  0.00000  0.34630  Biso   1.000  H
  H8       1.0000 0.74490  0.50000  0.34630  Biso   1.000  H
  C21      1.0000 0.05457  0.20642  0.19210  Biso   1.000  C
  C22      1.0000 0.55457  0.70642  0.19210  Biso   1.000  C
  C23      1.0000 0.94543  0.20642  0.80790  Biso   1.000  C
  C24      1.0000 0.44543  0.70642  0.80790  Biso   1.000  C
  C25      1.0000 0.94543  0.79358  0.80790  Biso   1.000  C
  C26      1.0000 0.44543  0.29358  0.80790  Biso   1.000  C
  C27      1.0000 0.05457  0.79358  0.19210  Biso   1.000  C
  C28      1.0000 0.55457  0.29358  0.19210  Biso   1.000  C
  C29      1.0000 0.06659  0.29563  0.20020  Biso   1.000  C
  C30      1.0000 0.56659  0.79563  0.20020  Biso   1.000  C
  C31      1.0000 0.93341  0.29563  0.79980  Biso   1.000  C
  C32      1.0000 0.43341  0.79563  0.79980  Biso   1.000  C
  C33      1.0000 0.93341  0.70437  0.79980  Biso   1.000  C
  C34      1.0000 0.43341  0.20437  0.79980  Biso   1.000  C
  C35      1.0000 0.06659  0.70437  0.20020  Biso   1.000  C
  C36      1.0000 0.56659  0.20437  0.20020  Biso   1.000  C
  H9       1.0000 0.11270  0.32210  0.16020  Biso   1.000  H
  H10      1.0000 0.61270  0.82210  0.16020  Biso   1.000  H
  H11      1.0000 0.88730  0.32210  0.83980  Biso   1.000  H
  H12      1.0000 0.38730  0.82210  0.83980  Biso   1.000  H
  H13      1.0000 0.88730  0.67790  0.83980  Biso   1.000  H
  H14      1.0000 0.38730  0.17790  0.83980  Biso   1.000  H
  H15      1.0000 0.11270  0.67790  0.16020  Biso   1.000  H
  H16      1.0000 0.61270  0.17790  0.16020  Biso   1.000  H
  C37      1.0000 0.65520  0.00000  0.08040  Biso   1.000  C
  C38      1.0000 0.15520  0.50000  0.08040  Biso   1.000  C
  C39      1.0000 0.34480  0.00000  0.91960  Biso   1.000  C
  C40      1.0000 0.84480  0.50000  0.91960  Biso   1.000  C
  C41      1.0000 0.94392  0.30792  0.33070  Biso   1.000  C
  C42      1.0000 0.44392  0.80792  0.33070  Biso   1.000  C
  C43      1.0000 0.05608  0.30792  0.66930  Biso   1.000  C
  C44      1.0000 0.55608  0.80792  0.66930  Biso   1.000  C
  C45      1.0000 0.05608  0.69208  0.66930  Biso   1.000  C
  C46      1.0000 0.55608  0.19208  0.66930  Biso   1.000  C
  C47      1.0000 0.94392  0.69208  0.33070  Biso   1.000  C
  C48      1.0000 0.44392  0.19208  0.33070  Biso   1.000  C
  H17      1.0000 0.90710  0.34200  0.37680  Biso   1.000  H
  H18      1.0000 0.40710  0.84200  0.37680  Biso   1.000  H
  H19      1.0000 0.09290  0.34200  0.62320  Biso   1.000  H
  H20      1.0000 0.59290  0.84200  0.62320  Biso   1.000  H
  H21      1.0000 0.09290  0.65800  0.62320  Biso   1.000  H
  H22      1.0000 0.59290  0.15800  0.62320  Biso   1.000  H
  H23      1.0000 0.90710  0.65800  0.37680  Biso   1.000  H
  H24      1.0000 0.40710  0.15800  0.37680  Biso   1.000  H
  C49      1.0000 0.18092  0.18800  0.07140  Biso   1.000  C
  C50      1.0000 0.68092  0.68800  0.07140  Biso   1.000  C
  C51      1.0000 0.81908  0.18800  0.92860  Biso   1.000  C
  C52      1.0000 0.31908  0.68800  0.92860  Biso   1.000  C
  C53      1.0000 0.81908  0.81200  0.92860  Biso   1.000  C
  C54      1.0000 0.31908  0.31200  0.92860  Biso   1.000  C
  C55      1.0000 0.18092  0.81200  0.07140  Biso   1.000  C
  C56      1.0000 0.68092  0.31200  0.07140  Biso   1.000  C
  H25      1.0000 0.15080  0.23090  0.00090  Biso   1.000  H
  H26      1.0000 0.65080  0.73090  0.00090  Biso   1.000  H
  H27      1.0000 0.84920  0.23090  0.99910  Biso   1.000  H
  H28      1.0000 0.34920  0.73090  0.99910  Biso   1.000  H
  H29      1.0000 0.84920  0.76910  0.99910  Biso   1.000  H
  H30      1.0000 0.34920  0.26910  0.99910  Biso   1.000  H
  H31      1.0000 0.15080  0.76910  0.00090  Biso   1.000  H
  H32      1.0000 0.65080  0.26910  0.00090  Biso   1.000  H
  H33      1.0000 0.21110  0.14330  0.02850  Biso   1.000  H
  H34      1.0000 0.71110  0.64330  0.02850  Biso   1.000  H
  H35      1.0000 0.78890  0.14330  0.97150  Biso   1.000  H
  H36      1.0000 0.28890  0.64330  0.97150  Biso   1.000  H
  H37      1.0000 0.78890  0.85670  0.97150  Biso   1.000  H
  H38      1.0000 0.28890  0.35670  0.97150  Biso   1.000  H
  H39      1.0000 0.21110  0.85670  0.02850  Biso   1.000  H
  H40      1.0000 0.71110  0.35670  0.02850  Biso   1.000  H
  H41      1.0000 0.23180  0.21490  0.14730  Biso   1.000  H
  H42      1.0000 0.73180  0.71490  0.14730  Biso   1.000  H
  H43      1.0000 0.76820  0.21490  0.85270  Biso   1.000  H
  H44      1.0000 0.26820  0.71490  0.85270  Biso   1.000  H
  H45      1.0000 0.76820  0.78510  0.85270  Biso   1.000  H
  H46      1.0000 0.26820  0.28510  0.85270  Biso   1.000  H
  H47      1.0000 0.23180  0.78510  0.14730  Biso   1.000  H
  H48      1.0000 0.73180  0.28510  0.14730  Biso   1.000  H
  C57      1.0000 0.01000  0.34617  0.26810  Biso   1.000  C
  C58      1.0000 0.51000  0.84617  0.26810  Biso   1.000  C
  C59      1.0000 0.99000  0.34617  0.73190  Biso   1.000  C
  C60      1.0000 0.49000  0.84617  0.73190  Biso   1.000  C
  C61      1.0000 0.99000  0.65383  0.73190  Biso   1.000  C
  C62      1.0000 0.49000  0.15383  0.73190  Biso   1.000  C
  C63      1.0000 0.01000  0.65383  0.26810  Biso   1.000  C
  C64      1.0000 0.51000  0.15383  0.26810  Biso   1.000  C
  H49      1.0000 0.01720  0.40630  0.27060  Biso   1.000  H
  H50      1.0000 0.51720  0.90630  0.27060  Biso   1.000  H
  H51      1.0000 0.98280  0.40630  0.72940  Biso   1.000  H
  H52      1.0000 0.48280  0.90630  0.72940  Biso   1.000  H
  H53      1.0000 0.98280  0.59370  0.72940  Biso   1.000  H
  H54      1.0000 0.48280  0.09370  0.72940  Biso   1.000  H
  H55      1.0000 0.01720  0.59370  0.27060  Biso   1.000  H
  H56      1.0000 0.51720  0.09370  0.27060  Biso   1.000  H
  C65      1.0000 0.77416  0.08240  0.49990  Biso   1.000  C
  C66      1.0000 0.27416  0.58240  0.49990  Biso   1.000  C
  C67      1.0000 0.22584  0.08240  0.50010  Biso   1.000  C
  C68      1.0000 0.72584  0.58240  0.50010  Biso   1.000  C
  C69      1.0000 0.22584  0.91760  0.50010  Biso   1.000  C
  C70      1.0000 0.72584  0.41760  0.50010  Biso   1.000  C
  C71      1.0000 0.77416  0.91760  0.49990  Biso   1.000  C
  C72      1.0000 0.27416  0.41760  0.49990  Biso   1.000  C
  H57      1.0000 0.70620  0.07950  0.43640  Biso   1.000  H
  H58      1.0000 0.20620  0.57950  0.43640  Biso   1.000  H
  H59      1.0000 0.29380  0.07950  0.56360  Biso   1.000  H
  H60      1.0000 0.79380  0.57950  0.56360  Biso   1.000  H
  H61      1.0000 0.29380  0.92050  0.56360  Biso   1.000  H
  H62      1.0000 0.79380  0.42050  0.56360  Biso   1.000  H
  H63      1.0000 0.70620  0.92050  0.43640  Biso   1.000  H
  H64      1.0000 0.20620  0.42050  0.43640  Biso   1.000  H
  H65      1.0000 0.77710  0.13130  0.56360  Biso   1.000  H
  H66      1.0000 0.27710  0.63130  0.56360  Biso   1.000  H
  H67      1.0000 0.22290  0.13130  0.43640  Biso   1.000  H
  H68      1.0000 0.72290  0.63130  0.43640  Biso   1.000  H
  H69      1.0000 0.22290  0.86870  0.43640  Biso   1.000  H
  H70      1.0000 0.72290  0.36870  0.43640  Biso   1.000  H
  H71      1.0000 0.77710  0.86870  0.56360  Biso   1.000  H
  H72      1.0000 0.27710  0.36870  0.56360  Biso   1.000  H
  C73      1.0000 0.86628  0.17865  0.40280  Biso   1.000  C
  C74      1.0000 0.36628  0.67865  0.40280  Biso   1.000  C
  C75      1.0000 0.13372  0.17865  0.59720  Biso   1.000  C
  C76      1.0000 0.63372  0.67865  0.59720  Biso   1.000  C
  C77      1.0000 0.13372  0.82135  0.59720  Biso   1.000  C
  C78      1.0000 0.63372  0.32135  0.59720  Biso   1.000  C
  C79      1.0000 0.86628  0.82135  0.40280  Biso   1.000  C
  C80      1.0000 0.36628  0.32135  0.40280  Biso   1.000  C
  H73      1.0000 0.83580  0.21780  0.45040  Biso   1.000  H
  H74      1.0000 0.33580  0.71780  0.45040  Biso   1.000  H
  H75      1.0000 0.16420  0.21780  0.54960  Biso   1.000  H
  H76      1.0000 0.66420  0.71780  0.54960  Biso   1.000  H
  H77      1.0000 0.16420  0.78220  0.54960  Biso   1.000  H
  H78      1.0000 0.66420  0.28220  0.54960  Biso   1.000  H
  H79      1.0000 0.83580  0.78220  0.45040  Biso   1.000  H
  H80      1.0000 0.33580  0.28220  0.45040  Biso   1.000  H
