data_image0
_cell_length_a       8.529
_cell_length_b       15.576
_cell_length_c       18.345
_cell_angle_alpha    90
_cell_angle_beta     95.338
_cell_angle_gamma    90

_symmetry_space_group_name_H-M    "P 1"
_symmetry_int_tables_number       1

loop_
  _symmetry_equiv_pos_as_xyz
  'x, y, z'

loop_
  _atom_site_label
  _atom_site_occupancy
  _atom_site_fract_x
  _atom_site_fract_y
  _atom_site_fract_z
  _atom_site_thermal_displace_type
  _atom_site_B_iso_or_equiv
  _atom_site_type_symbol
  Cu1      1.0000 0.17788  0.09318  0.34113  Biso   1.000  Cu
  Cu2      1.0000 0.32212  0.59318  0.15887  Biso   1.000  Cu
  Cu3      1.0000 0.82212  0.90682  0.65887  Biso   1.000  Cu
  Cu4      1.0000 0.67788  0.40682  0.84113  Biso   1.000  Cu
  Co1      1.0000 0.19661  0.24194  0.45582  Biso   1.000  Co
  Co2      1.0000 0.30339  0.74194  0.04418  Biso   1.000  Co
  Co3      1.0000 0.80339  0.75806  0.54418  Biso   1.000  Co
  Co4      1.0000 0.69661  0.25806  0.95582  Biso   1.000  Co
  O1       1.0000 0.44640  0.31660  0.44455  Biso   1.000  O
  O2       1.0000 0.05360  0.81660  0.05545  Biso   1.000  O
  O3       1.0000 0.55360  0.68340  0.55545  Biso   1.000  O
  O4       1.0000 0.94640  0.18340  0.94455  Biso   1.000  O
  O5       1.0000 0.95910  0.23371  0.52112  Biso   1.000  O
  O6       1.0000 0.54090  0.73371  0.97888  Biso   1.000  O
  O7       1.0000 0.04090  0.76629  0.47888  Biso   1.000  O
  O8       1.0000 0.45910  0.26629  0.02112  Biso   1.000  O
  O9       1.0000 0.05740  0.14535  0.41515  Biso   1.000  O
  O10      1.0000 0.44260  0.64535  0.08485  Biso   1.000  O
  O11      1.0000 0.94260  0.85465  0.58485  Biso   1.000  O
  O12      1.0000 0.55740  0.35465  0.91515  Biso   1.000  O
  O13      1.0000 0.32360  0.17950  0.38531  Biso   1.000  O
  O14      1.0000 0.17640  0.67950  0.11469  Biso   1.000  O
  O15      1.0000 0.67640  0.82050  0.61469  Biso   1.000  O
  O16      1.0000 0.82360  0.32050  0.88531  Biso   1.000  O
  C1       1.0000 0.54280  0.15460  0.31570  Biso   1.000  C
  C2       1.0000 0.95720  0.65460  0.18430  Biso   1.000  C
  C3       1.0000 0.45720  0.84540  0.68430  Biso   1.000  C
  C4       1.0000 0.04280  0.34540  0.81570  Biso   1.000  C
  C5       1.0000 0.86530  0.03450  0.42460  Biso   1.000  C
  C6       1.0000 0.63470  0.53450  0.07540  Biso   1.000  C
  C7       1.0000 0.13470  0.96550  0.57540  Biso   1.000  C
  C8       1.0000 0.36530  0.46550  0.92460  Biso   1.000  C
  C9       1.0000 0.53490  0.27720  0.39640  Biso   1.000  C
  C10      1.0000 0.96510  0.77720  0.10360  Biso   1.000  C
  C11      1.0000 0.46510  0.72280  0.60360  Biso   1.000  C
  C12      1.0000 0.03490  0.22280  0.89640  Biso   1.000  C
  C13      1.0000 0.67930  0.30430  0.37830  Biso   1.000  C
  C14      1.0000 0.82070  0.80430  0.12170  Biso   1.000  C
  C15      1.0000 0.32070  0.69570  0.62170  Biso   1.000  C
  C16      1.0000 0.17930  0.19570  0.87830  Biso   1.000  C
  H1       1.0000 0.72560  0.35330  0.39980  Biso   1.000  H
  H2       1.0000 0.77440  0.85330  0.10020  Biso   1.000  H
  H3       1.0000 0.27440  0.64670  0.60020  Biso   1.000  H
  H4       1.0000 0.22560  0.14670  0.89980  Biso   1.000  H
  C17      1.0000 0.46320  0.20200  0.36480  Biso   1.000  C
  C18      1.0000 0.03680  0.70200  0.13520  Biso   1.000  C
  C19      1.0000 0.53680  0.79800  0.63520  Biso   1.000  C
  C20      1.0000 0.96320  0.29800  0.86480  Biso   1.000  C
  N1       1.0000 0.11090  0.35760  0.43150  Biso   1.000  N
  N2       1.0000 0.38910  0.85760  0.06850  Biso   1.000  N
  N3       1.0000 0.88910  0.64240  0.56850  Biso   1.000  N
  N4       1.0000 0.61090  0.14240  0.93150  Biso   1.000  N
  C21      1.0000 0.93780  0.11270  0.44730  Biso   1.000  C
  C22      1.0000 0.56220  0.61270  0.05270  Biso   1.000  C
  C23      1.0000 0.06220  0.88730  0.55270  Biso   1.000  C
  C24      1.0000 0.43780  0.38730  0.94730  Biso   1.000  C
  N5       1.0000 0.29870  0.22320  0.55690  Biso   1.000  N
  N6       1.0000 0.20130  0.72320  0.94310  Biso   1.000  N
  N7       1.0000 0.70130  0.77680  0.44310  Biso   1.000  N
  N8       1.0000 0.79870  0.27680  0.05690  Biso   1.000  N
  C25      1.0000 0.50680  0.39240  0.48040  Biso   1.000  C
  C26      1.0000 0.99320  0.89240  0.01960  Biso   1.000  C
  C27      1.0000 0.49320  0.60760  0.51960  Biso   1.000  C
  C28      1.0000 0.00680  0.10760  0.98040  Biso   1.000  C
  H5       1.0000 0.60630  0.37990  0.50720  Biso   1.000  H
  H6       1.0000 0.89370  0.87990  0.99280  Biso   1.000  H
  H7       1.0000 0.39370  0.62010  0.49280  Biso   1.000  H
  H8       1.0000 0.10630  0.12010  0.00720  Biso   1.000  H
  H9       1.0000 0.43410  0.41220  0.51360  Biso   1.000  H
  H10      1.0000 0.06590  0.91220  0.98640  Biso   1.000  H
  H11      1.0000 0.56590  0.58780  0.48640  Biso   1.000  H
  H12      1.0000 0.93410  0.08780  0.01360  Biso   1.000  H
  H13      1.0000 0.52070  0.43600  0.44470  Biso   1.000  H
  H14      1.0000 0.97930  0.93600  0.05530  Biso   1.000  H
  H15      1.0000 0.47930  0.56400  0.55530  Biso   1.000  H
  H16      1.0000 0.02070  0.06400  0.94470  Biso   1.000  H
  C29      1.0000 0.69220  0.18450  0.29700  Biso   1.000  C
  C30      1.0000 0.80780  0.68450  0.20300  Biso   1.000  C
  C31      1.0000 0.30780  0.81550  0.70300  Biso   1.000  C
  C32      1.0000 0.19220  0.31550  0.79700  Biso   1.000  C
  H17      1.0000 0.74590  0.15360  0.26380  Biso   1.000  H
  H18      1.0000 0.75410  0.65360  0.23620  Biso   1.000  H
  H19      1.0000 0.25410  0.84640  0.73620  Biso   1.000  H
  H20      1.0000 0.24590  0.34640  0.76380  Biso   1.000  H
  C33      1.0000 0.88160  0.15810  0.50570  Biso   1.000  C
  C34      1.0000 0.61840  0.65810  0.99430  Biso   1.000  C
  C35      1.0000 0.11840  0.84190  0.49430  Biso   1.000  C
  C36      1.0000 0.38160  0.34190  0.00570  Biso   1.000  C
  N9       1.0000 0.01890  0.00160  0.32170  Biso   1.000  N
  N10      1.0000 0.48110  0.50160  0.17830  Biso   1.000  N
  N11      1.0000 0.98110  0.99840  0.67830  Biso   1.000  N
  N12      1.0000 0.51890  0.49840  0.82170  Biso   1.000  N
  N13      1.0000 0.48930  0.21070  0.66230  Biso   1.000  N
  N14      1.0000 0.01070  0.71070  0.83770  Biso   1.000  N
  N15      1.0000 0.51070  0.78930  0.33770  Biso   1.000  N
  N16      1.0000 0.98930  0.28930  0.16230  Biso   1.000  N
  N17      1.0000 0.34930  0.04010  0.29060  Biso   1.000  N
  N18      1.0000 0.15070  0.54010  0.20940  Biso   1.000  N
  N19      1.0000 0.65070  0.95990  0.70940  Biso   1.000  N
  N20      1.0000 0.84930  0.45990  0.79060  Biso   1.000  N
  C37      1.0000 0.86090  0.52150  0.39300  Biso   1.000  C
  C38      1.0000 0.63910  0.02150  0.10700  Biso   1.000  C
  C39      1.0000 0.13910  0.47850  0.60700  Biso   1.000  C
  C40      1.0000 0.36090  0.97850  0.89300  Biso   1.000  C
  C41      1.0000 0.69000  0.04740  0.52090  Biso   1.000  C
  C42      1.0000 0.81000  0.54740  0.97910  Biso   1.000  C
  C43      1.0000 0.31000  0.95260  0.47910  Biso   1.000  C
  C44      1.0000 0.19000  0.45260  0.02090  Biso   1.000  C
  H21      1.0000 0.61000  0.02500  0.54640  Biso   1.000  H
  H22      1.0000 0.89000  0.52500  0.95360  Biso   1.000  H
  H23      1.0000 0.39000  0.97500  0.45360  Biso   1.000  H
  H24      1.0000 0.11000  0.47500  0.04640  Biso   1.000  H
  N21      1.0000 0.01150  0.50200  0.40880  Biso   1.000  N
  N22      1.0000 0.48850  0.00200  0.09120  Biso   1.000  N
  N23      1.0000 0.98850  0.49800  0.59120  Biso   1.000  N
  N24      1.0000 0.51150  0.99800  0.90880  Biso   1.000  N
  N25      1.0000 0.73690  0.54640  0.37730  Biso   1.000  N
  N26      1.0000 0.76310  0.04640  0.12270  Biso   1.000  N
  N27      1.0000 0.26310  0.45360  0.62270  Biso   1.000  N
  N28      1.0000 0.23690  0.95360  0.87730  Biso   1.000  N
  C45      1.0000 0.75850  0.12650  0.54170  Biso   1.000  C
  C46      1.0000 0.74150  0.62650  0.95830  Biso   1.000  C
  C47      1.0000 0.24150  0.87350  0.45830  Biso   1.000  C
  C48      1.0000 0.25850  0.37350  0.04170  Biso   1.000  C
  H25      1.0000 0.72110  0.15780  0.57960  Biso   1.000  H
  H26      1.0000 0.77890  0.65780  0.92040  Biso   1.000  H
  H27      1.0000 0.27890  0.84220  0.42040  Biso   1.000  H
  H28      1.0000 0.22110  0.34220  0.07960  Biso   1.000  H
  C49      1.0000 0.54460  0.27370  0.70500  Biso   1.000  C
  C50      1.0000 0.95540  0.77370  0.79500  Biso   1.000  C
  C51      1.0000 0.45540  0.72630  0.29500  Biso   1.000  C
  C52      1.0000 0.04460  0.22630  0.20500  Biso   1.000  C
  N29      1.0000 0.60050  0.32000  0.74670  Biso   1.000  N
  N30      1.0000 0.89950  0.82000  0.75330  Biso   1.000  N
  N31      1.0000 0.39950  0.68000  0.25330  Biso   1.000  N
  N32      1.0000 0.10050  0.18000  0.24670  Biso   1.000  N
  C53      1.0000 0.74090  0.00300  0.46320  Biso   1.000  C
  C54      1.0000 0.75910  0.50300  0.03680  Biso   1.000  C
  C55      1.0000 0.25910  0.99700  0.53680  Biso   1.000  C
  C56      1.0000 0.24090  0.49700  0.96320  Biso   1.000  C
  H29      1.0000 0.69290  0.95130  0.44900  Biso   1.000  H
  H30      1.0000 0.80710  0.45130  0.05100  Biso   1.000  H
  H31      1.0000 0.30710  0.04870  0.55100  Biso   1.000  H
  H32      1.0000 0.19290  0.54870  0.94900  Biso   1.000  H
  C57      1.0000 0.48240  0.07530  0.28290  Biso   1.000  C
  C58      1.0000 0.01760  0.57530  0.21710  Biso   1.000  C
  C59      1.0000 0.51760  0.92470  0.71710  Biso   1.000  C
  C60      1.0000 0.98240  0.42470  0.78290  Biso   1.000  C
  H33      1.0000 0.54750  0.04680  0.25300  Biso   1.000  H
  H34      1.0000 0.95250  0.54680  0.24700  Biso   1.000  H
  H35      1.0000 0.45250  0.95320  0.74700  Biso   1.000  H
  H36      1.0000 0.04750  0.45320  0.75300  Biso   1.000  H
  C61      1.0000 0.38900  0.22390  0.60730  Biso   1.000  C
  C62      1.0000 0.11100  0.72390  0.89270  Biso   1.000  C
  C63      1.0000 0.61100  0.77610  0.39270  Biso   1.000  C
  C64      1.0000 0.88900  0.27610  0.10730  Biso   1.000  C
  C65      1.0000 0.75650  0.25720  0.32700  Biso   1.000  C
  C66      1.0000 0.74350  0.75720  0.17300  Biso   1.000  C
  C67      1.0000 0.24350  0.74280  0.67300  Biso   1.000  C
  C68      1.0000 0.25650  0.24280  0.82700  Biso   1.000  C
  H37      1.0000 0.85300  0.27630  0.31350  Biso   1.000  H
  H38      1.0000 0.64700  0.77630  0.18650  Biso   1.000  H
  H39      1.0000 0.14700  0.72370  0.68650  Biso   1.000  H
  H40      1.0000 0.35300  0.22370  0.81350  Biso   1.000  H
  C69      1.0000 0.93190  0.27650  0.58770  Biso   1.000  C
  C70      1.0000 0.56810  0.77650  0.91230  Biso   1.000  C
  C71      1.0000 0.06810  0.72350  0.41230  Biso   1.000  C
  C72      1.0000 0.43190  0.22350  0.08770  Biso   1.000  C
  H41      1.0000 0.82530  0.29700  0.58460  Biso   1.000  H
  H42      1.0000 0.67470  0.79700  0.91540  Biso   1.000  H
  H43      1.0000 0.17470  0.70300  0.41540  Biso   1.000  H
  H44      1.0000 0.32530  0.20300  0.08460  Biso   1.000  H
  H45      1.0000 0.00300  0.32410  0.59530  Biso   1.000  H
  H46      1.0000 0.49700  0.82410  0.90470  Biso   1.000  H
  H47      1.0000 0.99700  0.67590  0.40470  Biso   1.000  H
  H48      1.0000 0.50300  0.17590  0.09530  Biso   1.000  H
  H49      1.0000 0.94900  0.23710  0.62790  Biso   1.000  H
  H50      1.0000 0.55100  0.73710  0.87210  Biso   1.000  H
  H51      1.0000 0.05100  0.76290  0.37210  Biso   1.000  H
  H52      1.0000 0.44900  0.26290  0.12790  Biso   1.000  H
  C73      1.0000 0.90840  0.98690  0.36260  Biso   1.000  C
  C74      1.0000 0.59160  0.48690  0.13740  Biso   1.000  C
  C75      1.0000 0.09160  0.01310  0.63740  Biso   1.000  C
  C76      1.0000 0.40840  0.51310  0.86260  Biso   1.000  C
  H53      1.0000 0.84760  0.93850  0.35050  Biso   1.000  H
  H54      1.0000 0.65240  0.43850  0.14950  Biso   1.000  H
  H55      1.0000 0.15240  0.06150  0.64950  Biso   1.000  H
  H56      1.0000 0.34760  0.56150  0.85050  Biso   1.000  H
  C77      1.0000 0.02300  0.94350  0.25800  Biso   1.000  C
  C78      1.0000 0.47700  0.44350  0.24200  Biso   1.000  C
  C79      1.0000 0.97700  0.05650  0.74200  Biso   1.000  C
  C80      1.0000 0.52300  0.55650  0.75800  Biso   1.000  C
  H57      1.0000 0.92690  0.95130  0.22600  Biso   1.000  H
  H58      1.0000 0.57310  0.45130  0.27400  Biso   1.000  H
  H59      1.0000 0.07310  0.04870  0.77400  Biso   1.000  H
  H60      1.0000 0.42690  0.54870  0.72600  Biso   1.000  H
  H61      1.0000 0.02470  0.88460  0.27530  Biso   1.000  H
  H62      1.0000 0.47530  0.38460  0.22470  Biso   1.000  H
  H63      1.0000 0.97530  0.11540  0.72470  Biso   1.000  H
  H64      1.0000 0.52470  0.61540  0.77530  Biso   1.000  H
  C81      1.0000 0.05540  0.42340  0.42150  Biso   1.000  C
  C82      1.0000 0.44460  0.92340  0.07850  Biso   1.000  C
  C83      1.0000 0.94460  0.57660  0.57850  Biso   1.000  C
  C84      1.0000 0.55540  0.07660  0.92150  Biso   1.000  C
  C85      1.0000 0.31650  0.95840  0.25150  Biso   1.000  C
  C86      1.0000 0.18350  0.45840  0.24850  Biso   1.000  C
  C87      1.0000 0.68350  0.04160  0.74850  Biso   1.000  C
  C88      1.0000 0.81650  0.54160  0.75150  Biso   1.000  C
  H65      1.0000 0.39600  0.94890  0.21790  Biso   1.000  H
  H66      1.0000 0.10400  0.44890  0.28210  Biso   1.000  H
  H67      1.0000 0.60400  0.05110  0.78210  Biso   1.000  H
  H68      1.0000 0.89600  0.55110  0.71790  Biso   1.000  H
  H69      1.0000 0.32320  0.91170  0.28670  Biso   1.000  H
  H70      1.0000 0.17680  0.41170  0.21330  Biso   1.000  H
  H71      1.0000 0.67680  0.08830  0.71330  Biso   1.000  H
  H72      1.0000 0.82320  0.58830  0.78670  Biso   1.000  H
  C89      1.0000 0.16690  0.95750  0.21230  Biso   1.000  C
  C90      1.0000 0.33310  0.45750  0.28770  Biso   1.000  C
  C91      1.0000 0.83310  0.04250  0.78770  Biso   1.000  C
  C92      1.0000 0.66690  0.54250  0.71230  Biso   1.000  C
  H73      1.0000 0.16580  0.91240  0.17570  Biso   1.000  H
  H74      1.0000 0.33420  0.41240  0.32430  Biso   1.000  H
  H75      1.0000 0.83420  0.08760  0.82430  Biso   1.000  H
  H76      1.0000 0.66580  0.58760  0.67570  Biso   1.000  H
  H77      1.0000 0.15220  0.01160  0.18640  Biso   1.000  H
  H78      1.0000 0.34780  0.51160  0.31360  Biso   1.000  H
  H79      1.0000 0.84780  0.98840  0.81360  Biso   1.000  H
  H80      1.0000 0.65220  0.48840  0.68640  Biso   1.000  H
  C93      1.0000 0.18430  0.90630  0.25770  Biso   1.000  C
  C94      1.0000 0.31570  0.40630  0.24230  Biso   1.000  C
  C95      1.0000 0.81570  0.09370  0.74230  Biso   1.000  C
  C96      1.0000 0.68430  0.59370  0.75770  Biso   1.000  C
  H81      1.0000 0.20440  0.87380  0.30270  Biso   1.000  H
  H82      1.0000 0.29560  0.37380  0.19730  Biso   1.000  H
  H83      1.0000 0.79560  0.12620  0.69730  Biso   1.000  H
  H84      1.0000 0.70440  0.62620  0.80270  Biso   1.000  H
  H85      1.0000 0.18040  0.86530  0.21790  Biso   1.000  H
  H86      1.0000 0.31960  0.36530  0.28210  Biso   1.000  H
  H87      1.0000 0.81960  0.13470  0.78210  Biso   1.000  H
  H88      1.0000 0.68040  0.63470  0.71790  Biso   1.000  H
