data_image0
_cell_length_a       6.4814
_cell_length_b       7.1368
_cell_length_c       8.4586
_cell_angle_alpha    74.208
_cell_angle_beta     77.987
_cell_angle_gamma    89.659

_symmetry_space_group_name_H-M    "P 1"
_symmetry_int_tables_number       1

loop_
  _symmetry_equiv_pos_as_xyz
  'x, y, z'

loop_
  _atom_site_label
  _atom_site_occupancy
  _atom_site_fract_x
  _atom_site_fract_y
  _atom_site_fract_z
  _atom_site_thermal_displace_type
  _atom_site_B_iso_or_equiv
  _atom_site_type_symbol
  Cu1      1.0000 0.50000  0.50000  0.00000  Biso   1.000  Cu
  Na1      1.0000 0.39865  0.27769  0.47374  Biso   1.000  Na
  Na2      1.0000 0.60135  0.72231  0.52626  Biso   1.000  Na
  O1       1.0000 0.44290  0.53930  0.22501  Biso   1.000  O
  O2       1.0000 0.55710  0.46070  0.77499  Biso   1.000  O
  O3       1.0000 0.28330  0.62470  0.44836  Biso   1.000  O
  O4       1.0000 0.71670  0.37530  0.55164  Biso   1.000  O
  O5       1.0000 0.13590  0.35010  0.06150  Biso   1.000  O
  O6       1.0000 0.86410  0.64990  0.93850  Biso   1.000  O
  H1       1.0000 0.15500  0.27000  0.00900  Biso   1.000  H
  H2       1.0000 0.84500  0.73000  0.99100  Biso   1.000  H
  H3       1.0000 0.06600  0.43600  0.01600  Biso   1.000  H
  H4       1.0000 0.93400  0.56400  0.98400  Biso   1.000  H
  H5       1.0000 0.10600  0.30300  0.16320  Biso   1.000  H
  H6       1.0000 0.89400  0.69700  0.83680  Biso   1.000  H
  O7       1.0000 0.06210  0.19980  0.41590  Biso   1.000  O
  O8       1.0000 0.93790  0.80020  0.58410  Biso   1.000  O
  H7       1.0000 0.96300  0.25200  0.46000  Biso   1.000  H
  H8       1.0000 0.03700  0.74800  0.54000  Biso   1.000  H
  H9       1.0000 0.03000  0.08400  0.45900  Biso   1.000  H
  H10      1.0000 0.97000  0.91600  0.54100  Biso   1.000  H
  H11      1.0000 0.08200  0.23300  0.31320  Biso   1.000  H
  H12      1.0000 0.91800  0.76700  0.68680  Biso   1.000  H
  N1       1.0000 0.38980  0.75640  0.91260  Biso   1.000  N
  N2       1.0000 0.61020  0.24360  0.08740  Biso   1.000  N
  N3       1.0000 0.42490  0.86670  0.75150  Biso   1.000  N
  N4       1.0000 0.57510  0.13330  0.24850  Biso   1.000  N
  N5       1.0000 0.34050  0.03460  0.74930  Biso   1.000  N
  N6       1.0000 0.65950  0.96540  0.25070  Biso   1.000  N
  N7       1.0000 0.25080  0.03830  0.90700  Biso   1.000  N
  N8       1.0000 0.74920  0.96170  0.09300  Biso   1.000  N
  C1       1.0000 0.28240  0.86470  0.00480  Biso   1.000  C
  C2       1.0000 0.71760  0.13530  0.99520  Biso   1.000  C
  C3       1.0000 0.20160  0.80060  0.19020  Biso   1.000  C
  C4       1.0000 0.79840  0.19940  0.80980  Biso   1.000  C
  H13      1.0000 0.05300  0.75120  0.21200  Biso   1.000  H
  H14      1.0000 0.94700  0.24880  0.78800  Biso   1.000  H
  H15      1.0000 0.20030  0.91720  0.23250  Biso   1.000  H
  H16      1.0000 0.79970  0.08280  0.76750  Biso   1.000  H
  C5       1.0000 0.31780  0.64700  0.29330  Biso   1.000  C
  C6       1.0000 0.68220  0.35300  0.70670  Biso   1.000  C
