data_image0
_cell_length_a       6.7975
_cell_length_b       8.3478
_cell_length_c       8.7114
_cell_angle_alpha    110.17
_cell_angle_beta     109.248
_cell_angle_gamma    97.275

_symmetry_space_group_name_H-M    "P 1"
_symmetry_int_tables_number       1

loop_
  _symmetry_equiv_pos_as_xyz
  'x, y, z'

loop_
  _atom_site_label
  _atom_site_occupancy
  _atom_site_fract_x
  _atom_site_fract_y
  _atom_site_fract_z
  _atom_site_thermal_displace_type
  _atom_site_B_iso_or_equiv
  _atom_site_type_symbol
  C1       1.0000 0.27070  0.24000  0.44790  Biso   1.000  C
  C2       1.0000 0.72930  0.76000  0.55210  Biso   1.000  C
  C3       1.0000 0.51620  0.40020  0.75100  Biso   1.000  C
  C4       1.0000 0.48380  0.59980  0.24900  Biso   1.000  C
  C5       1.0000 0.12660  0.86350  0.33720  Biso   1.000  C
  C6       1.0000 0.87340  0.13650  0.66280  Biso   1.000  C
  C7       1.0000 0.23820  0.76790  0.57480  Biso   1.000  C
  C8       1.0000 0.76180  0.23210  0.42520  Biso   1.000  C
  C9       1.0000 0.37150  0.23780  0.61440  Biso   1.000  C
  C10      1.0000 0.62850  0.76220  0.38560  Biso   1.000  C
  C11      1.0000 0.35930  0.08330  0.65220  Biso   1.000  C
  C12      1.0000 0.64070  0.91670  0.34780  Biso   1.000  C
  C13      1.0000 0.23540  0.90940  0.51920  Biso   1.000  C
  C14      1.0000 0.76460  0.09060  0.48080  Biso   1.000  C
  N1       1.0000 0.19030  0.24540  0.31190  Biso   1.000  N
  N2       1.0000 0.80970  0.75460  0.68810  Biso   1.000  N
  N3       1.0000 0.63620  0.53110  0.85640  Biso   1.000  N
  N4       1.0000 0.36380  0.46890  0.14360  Biso   1.000  N
  N5       1.0000 0.03810  0.81950  0.18580  Biso   1.000  N
  N6       1.0000 0.96190  0.18050  0.81420  Biso   1.000  N
  N7       1.0000 0.24230  0.65720  0.62250  Biso   1.000  N
  N8       1.0000 0.75770  0.34280  0.37750  Biso   1.000  N
  O1       1.0000 0.46600  0.10278  0.81193  Biso   1.000  O
  O2       1.0000 0.53400  0.89722  0.18807  Biso   1.000  O
  O3       1.0000 0.88780  0.37430  0.11350  Biso   1.000  O
  O4       1.0000 0.11220  0.62570  0.88650  Biso   1.000  O
  O5       1.0000 0.25090  0.05210  0.01010  Biso   1.000  O
  O6       1.0000 0.74910  0.94790  0.98990  Biso   1.000  O
  Cu1      1.0000 0.09696  0.23812  0.07112  Biso   1.000  Cu
  Cu2      1.0000 0.90304  0.76188  0.92888  Biso   1.000  Cu
  H1       1.0000 0.86800  0.41300  0.20500  Biso   1.000  H
  H2       1.0000 0.13200  0.58700  0.79500  Biso   1.000  H
  H3       1.0000 0.77700  0.36600  0.03600  Biso   1.000  H
  H4       1.0000 0.22300  0.63400  0.96400  Biso   1.000  H
  H5       1.0000 0.31900  0.06800  0.95100  Biso   1.000  H
  H6       1.0000 0.68100  0.93200  0.04900  Biso   1.000  H
  H7       1.0000 0.35200  0.04400  0.09400  Biso   1.000  H
  H8       1.0000 0.64800  0.95600  0.90600  Biso   1.000  H
