data_image0
_cell_length_a       8.885
_cell_length_b       13.456
_cell_length_c       14.083
_cell_angle_alpha    90
_cell_angle_beta     105.759
_cell_angle_gamma    90

_symmetry_space_group_name_H-M    "P 1"
_symmetry_int_tables_number       1

loop_
  _symmetry_equiv_pos_as_xyz
  'x, y, z'

loop_
  _atom_site_label
  _atom_site_occupancy
  _atom_site_fract_x
  _atom_site_fract_y
  _atom_site_fract_z
  _atom_site_thermal_displace_type
  _atom_site_B_iso_or_equiv
  _atom_site_type_symbol
  O1       1.0000 0.17390  0.05588  0.95552  Biso   1.000  O
  O2       1.0000 0.82610  0.55588  0.54448  Biso   1.000  O
  O3       1.0000 0.82610  0.94412  0.04448  Biso   1.000  O
  O4       1.0000 0.17390  0.44412  0.45552  Biso   1.000  O
  C1       1.0000 0.27610  0.01320  0.92450  Biso   1.000  C
  C2       1.0000 0.72390  0.51320  0.57550  Biso   1.000  C
  C3       1.0000 0.72390  0.98680  0.07550  Biso   1.000  C
  C4       1.0000 0.27610  0.48680  0.42450  Biso   1.000  C
  Cu1      1.0000 0.00000  0.00000  0.00000  Biso   1.000  Cu
  Cu2      1.0000 0.00000  0.50000  0.50000  Biso   1.000  Cu
  O5       1.0000 0.11200  0.46147  0.64271  Biso   1.000  O
  O6       1.0000 0.88800  0.96147  0.85729  Biso   1.000  O
  O7       1.0000 0.88800  0.53853  0.35729  Biso   1.000  O
  O8       1.0000 0.11200  0.03853  0.14271  Biso   1.000  O
  N1       1.0000 0.32290  0.18050  0.84944  Biso   1.000  N
  N2       1.0000 0.67710  0.68050  0.65056  Biso   1.000  N
  N3       1.0000 0.67710  0.81950  0.15056  Biso   1.000  N
  N4       1.0000 0.32290  0.31950  0.34944  Biso   1.000  N
  N5       1.0000 0.27430  0.36550  0.82197  Biso   1.000  N
  N6       1.0000 0.72570  0.86550  0.67803  Biso   1.000  N
  N7       1.0000 0.72570  0.63450  0.17803  Biso   1.000  N
  N8       1.0000 0.27430  0.13450  0.32197  Biso   1.000  N
  O9       1.0000 0.19950  0.60735  0.70589  Biso   1.000  O
  O10      1.0000 0.80050  0.10735  0.79411  Biso   1.000  O
  O11      1.0000 0.80050  0.39265  0.29411  Biso   1.000  O
  O12      1.0000 0.19950  0.89265  0.20589  Biso   1.000  O
  C5       1.0000 0.12220  0.30990  0.80330  Biso   1.000  C
  C6       1.0000 0.87780  0.80990  0.69670  Biso   1.000  C
  C7       1.0000 0.87780  0.69010  0.19670  Biso   1.000  C
  C8       1.0000 0.12220  0.19010  0.30330  Biso   1.000  C
  H1       1.0000 0.05120  0.33170  0.74160  Biso   1.000  H
  H2       1.0000 0.94880  0.83170  0.75840  Biso   1.000  H
  H3       1.0000 0.94880  0.66830  0.25840  Biso   1.000  H
  H4       1.0000 0.05120  0.16830  0.24160  Biso   1.000  H
  H5       1.0000 0.07370  0.32290  0.85600  Biso   1.000  H
  H6       1.0000 0.92630  0.82290  0.64400  Biso   1.000  H
  H7       1.0000 0.92630  0.67710  0.14400  Biso   1.000  H
  H8       1.0000 0.07370  0.17710  0.35600  Biso   1.000  H
  C9       1.0000 0.15460  0.20060  0.79850  Biso   1.000  C
  C10      1.0000 0.84540  0.70060  0.70150  Biso   1.000  C
  C11      1.0000 0.84540  0.79940  0.20150  Biso   1.000  C
  C12      1.0000 0.15460  0.29940  0.29850  Biso   1.000  C
  H9       1.0000 0.13140  0.17950  0.73020  Biso   1.000  H
  H10      1.0000 0.86860  0.67950  0.76980  Biso   1.000  H
  H11      1.0000 0.86860  0.82050  0.26980  Biso   1.000  H
  H12      1.0000 0.13140  0.32050  0.23020  Biso   1.000  H
  H13      1.0000 0.08840  0.16330  0.83020  Biso   1.000  H
  H14      1.0000 0.91160  0.66330  0.66980  Biso   1.000  H
  H15      1.0000 0.91160  0.83670  0.16980  Biso   1.000  H
  H16      1.0000 0.08840  0.33670  0.33020  Biso   1.000  H
  C13      1.0000 0.41810  0.22190  0.78530  Biso   1.000  C
  C14      1.0000 0.58190  0.72190  0.71470  Biso   1.000  C
  C15      1.0000 0.58190  0.77810  0.21470  Biso   1.000  C
  C16      1.0000 0.41810  0.27810  0.28530  Biso   1.000  C
  H17      1.0000 0.52780  0.22320  0.82160  Biso   1.000  H
  H18      1.0000 0.47220  0.72320  0.67840  Biso   1.000  H
  H19      1.0000 0.47220  0.77680  0.17840  Biso   1.000  H
  H20      1.0000 0.52780  0.27680  0.32160  Biso   1.000  H
  H21      1.0000 0.40670  0.18000  0.72770  Biso   1.000  H
  H22      1.0000 0.59330  0.68000  0.77230  Biso   1.000  H
  H23      1.0000 0.59330  0.82000  0.27230  Biso   1.000  H
  H24      1.0000 0.40670  0.32000  0.22770  Biso   1.000  H
  C17      1.0000 0.35990  0.07280  0.86330  Biso   1.000  C
  C18      1.0000 0.64010  0.57280  0.63670  Biso   1.000  C
  C19      1.0000 0.64010  0.92720  0.13670  Biso   1.000  C
  C20      1.0000 0.35990  0.42720  0.36330  Biso   1.000  C
  H25      1.0000 0.33790  0.04230  0.79860  Biso   1.000  H
  H26      1.0000 0.66210  0.54230  0.70140  Biso   1.000  H
  H27      1.0000 0.66210  0.95770  0.20140  Biso   1.000  H
  H28      1.0000 0.33790  0.45770  0.29860  Biso   1.000  H
  H29      1.0000 0.47140  0.06640  0.89340  Biso   1.000  H
  H30      1.0000 0.52860  0.56640  0.60660  Biso   1.000  H
  H31      1.0000 0.52860  0.93360  0.10660  Biso   1.000  H
  H32      1.0000 0.47140  0.43360  0.39340  Biso   1.000  H
  C21      1.0000 0.25110  0.47510  0.81260  Biso   1.000  C
  C22      1.0000 0.74890  0.97510  0.68740  Biso   1.000  C
  C23      1.0000 0.74890  0.52490  0.18740  Biso   1.000  C
  C24      1.0000 0.25110  0.02490  0.31260  Biso   1.000  C
  H33      1.0000 0.18390  0.49450  0.85340  Biso   1.000  H
  H34      1.0000 0.81610  0.99450  0.64660  Biso   1.000  H
  H35      1.0000 0.81610  0.50550  0.14660  Biso   1.000  H
  H36      1.0000 0.18390  0.00550  0.35340  Biso   1.000  H
  H37      1.0000 0.35180  0.50660  0.84020  Biso   1.000  H
  H38      1.0000 0.64820  0.00660  0.65980  Biso   1.000  H
  H39      1.0000 0.64820  0.49340  0.15980  Biso   1.000  H
  H40      1.0000 0.35180  0.99340  0.34020  Biso   1.000  H
  C25      1.0000 0.18220  0.51760  0.71040  Biso   1.000  C
  C26      1.0000 0.81780  0.01760  0.78960  Biso   1.000  C
  C27      1.0000 0.81780  0.48240  0.28960  Biso   1.000  C
  C28      1.0000 0.18220  0.98240  0.21040  Biso   1.000  C
  C29      1.0000 0.36290  0.32570  0.75360  Biso   1.000  C
  C30      1.0000 0.63710  0.82570  0.74640  Biso   1.000  C
  C31      1.0000 0.63710  0.67430  0.24640  Biso   1.000  C
  C32      1.0000 0.36290  0.17430  0.25360  Biso   1.000  C
  H41      1.0000 0.29590  0.32470  0.68660  Biso   1.000  H
  H42      1.0000 0.70410  0.82470  0.81340  Biso   1.000  H
  H43      1.0000 0.70410  0.67530  0.31340  Biso   1.000  H
  H44      1.0000 0.29590  0.17530  0.18660  Biso   1.000  H
  H45      1.0000 0.45190  0.36800  0.75540  Biso   1.000  H
  H46      1.0000 0.54810  0.86800  0.74460  Biso   1.000  H
  H47      1.0000 0.54810  0.63200  0.24460  Biso   1.000  H
  H48      1.0000 0.45190  0.13200  0.25540  Biso   1.000  H
  C33      1.0000 0.36830  0.23410  0.94570  Biso   1.000  C
  C34      1.0000 0.63170  0.73410  0.55430  Biso   1.000  C
  C35      1.0000 0.63170  0.76590  0.05430  Biso   1.000  C
  C36      1.0000 0.36830  0.26590  0.44570  Biso   1.000  C
  H49      1.0000 0.29490  0.21870  0.98360  Biso   1.000  H
  H50      1.0000 0.70510  0.71870  0.51640  Biso   1.000  H
  H51      1.0000 0.70510  0.78130  0.01640  Biso   1.000  H
  H52      1.0000 0.29490  0.28130  0.48360  Biso   1.000  H
  H53      1.0000 0.47170  0.21320  0.98350  Biso   1.000  H
  H54      1.0000 0.52830  0.71320  0.51650  Biso   1.000  H
  H55      1.0000 0.52830  0.78680  0.01650  Biso   1.000  H
  H56      1.0000 0.47170  0.28680  0.48350  Biso   1.000  H
  C37      1.0000 0.36760  0.34410  0.92600  Biso   1.000  C
  C38      1.0000 0.63240  0.84410  0.57400  Biso   1.000  C
  C39      1.0000 0.63240  0.65590  0.07400  Biso   1.000  C
  C40      1.0000 0.36760  0.15590  0.42600  Biso   1.000  C
  H57      1.0000 0.47400  0.36740  0.93590  Biso   1.000  H
  H58      1.0000 0.52600  0.86740  0.56410  Biso   1.000  H
  H59      1.0000 0.52600  0.63260  0.06410  Biso   1.000  H
  H60      1.0000 0.47400  0.13260  0.43590  Biso   1.000  H
  H61      1.0000 0.32220  0.37910  0.97180  Biso   1.000  H
  H62      1.0000 0.67780  0.87910  0.52820  Biso   1.000  H
  H63      1.0000 0.67780  0.62090  0.02820  Biso   1.000  H
  H64      1.0000 0.32220  0.12090  0.47180  Biso   1.000  H
  O13      1.0000 0.31800  0.92671  0.93660  Biso   1.000  O
  O14      1.0000 0.68200  0.42671  0.56340  Biso   1.000  O
  O15      1.0000 0.68200  0.07329  0.06340  Biso   1.000  O
  O16      1.0000 0.31800  0.57329  0.43660  Biso   1.000  O
  O17      1.0000 0.10190  0.84770  0.01534  Biso   1.000  O
  O18      1.0000 0.89810  0.34770  0.48466  Biso   1.000  O
  O19      1.0000 0.89810  0.15230  0.98466  Biso   1.000  O
  O20      1.0000 0.10190  0.65230  0.51534  Biso   1.000  O
  H65      1.0000 0.16330  0.82920  0.06990  Biso   1.000  H
  H66      1.0000 0.83670  0.32920  0.43010  Biso   1.000  H
  H67      1.0000 0.83670  0.17080  0.93010  Biso   1.000  H
  H68      1.0000 0.16330  0.67080  0.56990  Biso   1.000  H
  H69      1.0000 0.07880  0.80780  0.96670  Biso   1.000  H
  H70      1.0000 0.92120  0.30780  0.53330  Biso   1.000  H
  H71      1.0000 0.92120  0.19220  0.03330  Biso   1.000  H
  H72      1.0000 0.07880  0.69220  0.46670  Biso   1.000  H
  Cl1      1.0000 0.77406  0.05844  0.38688  Biso   1.000  Cl
  Cl2      1.0000 0.22594  0.55844  0.11312  Biso   1.000  Cl
  Cl3      1.0000 0.22594  0.94156  0.61312  Biso   1.000  Cl
  Cl4      1.0000 0.77406  0.44156  0.88688  Biso   1.000  Cl
  O21      1.0000 0.63380  0.00150  0.35850  Biso   1.000  O
  O22      1.0000 0.36620  0.50150  0.14150  Biso   1.000  O
  O23      1.0000 0.36620  0.99850  0.64150  Biso   1.000  O
  O24      1.0000 0.63380  0.49850  0.85850  Biso   1.000  O
  O25      1.0000 0.88670  0.01430  0.34590  Biso   1.000  O
  O26      1.0000 0.11330  0.51430  0.15410  Biso   1.000  O
  O27      1.0000 0.11330  0.98570  0.65410  Biso   1.000  O
  O28      1.0000 0.88670  0.48570  0.84590  Biso   1.000  O
  O29      1.0000 0.74630  0.15510  0.35140  Biso   1.000  O
  O30      1.0000 0.25370  0.65510  0.14860  Biso   1.000  O
  O31      1.0000 0.25370  0.84490  0.64860  Biso   1.000  O
  O32      1.0000 0.74630  0.34490  0.85140  Biso   1.000  O
  O33      1.0000 0.83000  0.05570  0.48920  Biso   1.000  O
  O34      1.0000 0.17000  0.55570  0.01080  Biso   1.000  O
  O35      1.0000 0.17000  0.94430  0.51080  Biso   1.000  O
  O36      1.0000 0.83000  0.44430  0.98920  Biso   1.000  O
  O37      1.0000 0.37970  0.76590  0.35920  Biso   1.000  O
  O38      1.0000 0.62030  0.26590  0.14080  Biso   1.000  O
  O39      1.0000 0.62030  0.23410  0.64080  Biso   1.000  O
  O40      1.0000 0.37970  0.73410  0.85920  Biso   1.000  O
  H73      1.0000 0.28480  0.75860  0.37040  Biso   1.000  H
  H74      1.0000 0.71520  0.25860  0.12960  Biso   1.000  H
  H75      1.0000 0.71520  0.24140  0.62960  Biso   1.000  H
  H76      1.0000 0.28480  0.74140  0.87040  Biso   1.000  H
  H77      1.0000 0.30860  0.79950  0.30450  Biso   1.000  H
  H78      1.0000 0.69140  0.29950  0.19550  Biso   1.000  H
  H79      1.0000 0.69140  0.20050  0.69550  Biso   1.000  H
  H80      1.0000 0.30860  0.70050  0.80450  Biso   1.000  H
  O41      1.0000 0.89540  0.69780  0.94080  Biso   1.000  O
  O42      1.0000 0.10460  0.19780  0.55920  Biso   1.000  O
  O43      1.0000 0.10460  0.30220  0.05920  Biso   1.000  O
  O44      1.0000 0.89540  0.80220  0.44080  Biso   1.000  O
  H81      1.0000 0.94780  0.64140  0.94650  Biso   1.000  H
  H82      1.0000 0.05220  0.14140  0.55350  Biso   1.000  H
  H83      1.0000 0.05220  0.35860  0.05350  Biso   1.000  H
  H84      1.0000 0.94780  0.85860  0.44650  Biso   1.000  H
  H85      1.0000 0.86080  0.69760  0.95120  Biso   1.000  H
  H86      1.0000 0.13920  0.19760  0.54880  Biso   1.000  H
  H87      1.0000 0.13920  0.30240  0.04880  Biso   1.000  H
  H88      1.0000 0.86080  0.80240  0.45120  Biso   1.000  H
