data_image0
_cell_length_a       13.5686
_cell_length_b       24.9419
_cell_length_c       17.0814
_cell_angle_alpha    90
_cell_angle_beta     91.796
_cell_angle_gamma    90

_symmetry_space_group_name_H-M    "P 1"
_symmetry_int_tables_number       1

loop_
  _symmetry_equiv_pos_as_xyz
  'x, y, z'

loop_
  _atom_site_label
  _atom_site_occupancy
  _atom_site_fract_x
  _atom_site_fract_y
  _atom_site_fract_z
  _atom_site_thermal_displace_type
  _atom_site_B_iso_or_equiv
  _atom_site_type_symbol
  Cu1      1.0000 0.74944  0.31554  0.23565  Biso   1.000  Cu
  Cu2      1.0000 0.25056  0.81554  0.26435  Biso   1.000  Cu
  Cu3      1.0000 0.25056  0.68446  0.76435  Biso   1.000  Cu
  Cu4      1.0000 0.74944  0.18446  0.73565  Biso   1.000  Cu
  Cu5      1.0000 0.71102  0.83921  0.70883  Biso   1.000  Cu
  Cu6      1.0000 0.28898  0.33921  0.79117  Biso   1.000  Cu
  Cu7      1.0000 0.28898  0.16079  0.29117  Biso   1.000  Cu
  Cu8      1.0000 0.71102  0.66079  0.20883  Biso   1.000  Cu
  O1       1.0000 0.75090  0.26175  0.32560  Biso   1.000  O
  O2       1.0000 0.24910  0.76175  0.17440  Biso   1.000  O
  O3       1.0000 0.24910  0.73825  0.67440  Biso   1.000  O
  O4       1.0000 0.75090  0.23825  0.82560  Biso   1.000  O
  O5       1.0000 0.66980  0.23294  0.22080  Biso   1.000  O
  O6       1.0000 0.33020  0.73294  0.27920  Biso   1.000  O
  O7       1.0000 0.33020  0.76706  0.77920  Biso   1.000  O
  O8       1.0000 0.66980  0.26706  0.72080  Biso   1.000  O
  N1       1.0000 0.83690  0.37301  0.29480  Biso   1.000  N
  N2       1.0000 0.16310  0.87301  0.20520  Biso   1.000  N
  N3       1.0000 0.16310  0.62699  0.70520  Biso   1.000  N
  N4       1.0000 0.83690  0.12699  0.79480  Biso   1.000  N
  O9       1.0000 0.31500  0.86637  0.34840  Biso   1.000  O
  O10      1.0000 0.68500  0.36637  0.15160  Biso   1.000  O
  O11      1.0000 0.68500  0.13363  0.65160  Biso   1.000  O
  O12      1.0000 0.31500  0.63363  0.84840  Biso   1.000  O
  N5       1.0000 0.85880  0.28375  0.16750  Biso   1.000  N
  N6       1.0000 0.14120  0.78375  0.33250  Biso   1.000  N
  N7       1.0000 0.14120  0.71625  0.83250  Biso   1.000  N
  N8       1.0000 0.85880  0.21625  0.66750  Biso   1.000  N
  N9       1.0000 0.60410  0.80542  0.63520  Biso   1.000  N
  N10      1.0000 0.39590  0.30542  0.86480  Biso   1.000  N
  N11      1.0000 0.39590  0.19458  0.36480  Biso   1.000  N
  N12      1.0000 0.60410  0.69458  0.13520  Biso   1.000  N
  O13      1.0000 0.77630  0.89173  0.64070  Biso   1.000  O
  O14      1.0000 0.22370  0.39173  0.85930  Biso   1.000  O
  O15      1.0000 0.22370  0.10827  0.35930  Biso   1.000  O
  O16      1.0000 0.77630  0.60827  0.14070  Biso   1.000  O
  N13      1.0000 0.62860  0.89254  0.77530  Biso   1.000  N
  N14      1.0000 0.37140  0.39254  0.72470  Biso   1.000  N
  N15      1.0000 0.37140  0.10746  0.22470  Biso   1.000  N
  N16      1.0000 0.62860  0.60746  0.27530  Biso   1.000  N
  O17      1.0000 0.27960  0.28380  0.70230  Biso   1.000  O
  O18      1.0000 0.72040  0.78380  0.79770  Biso   1.000  O
  O19      1.0000 0.72040  0.71620  0.29770  Biso   1.000  O
  O20      1.0000 0.27960  0.21620  0.20230  Biso   1.000  O
  O21      1.0000 0.19620  0.25922  0.80210  Biso   1.000  O
  O22      1.0000 0.80380  0.75922  0.69790  Biso   1.000  O
  O23      1.0000 0.80380  0.74078  0.19790  Biso   1.000  O
  O24      1.0000 0.19620  0.24078  0.30210  Biso   1.000  O
  O25      1.0000 0.67410  0.02147  0.42950  Biso   1.000  O
  O26      1.0000 0.32590  0.52147  0.07050  Biso   1.000  O
  O27      1.0000 0.32590  0.97853  0.57050  Biso   1.000  O
  O28      1.0000 0.67410  0.47853  0.92950  Biso   1.000  O
  O29      1.0000 0.06960  0.07917  0.55670  Biso   1.000  O
  O30      1.0000 0.93040  0.57917  0.94330  Biso   1.000  O
  O31      1.0000 0.93040  0.92083  0.44330  Biso   1.000  O
  O32      1.0000 0.06960  0.42083  0.05670  Biso   1.000  O
  O33      1.0000 0.40260  0.85489  0.24520  Biso   1.000  O
  O34      1.0000 0.59740  0.35489  0.25480  Biso   1.000  O
  O35      1.0000 0.59740  0.14511  0.75480  Biso   1.000  O
  O36      1.0000 0.40260  0.64511  0.74520  Biso   1.000  O
  C1       1.0000 0.27980  0.63600  0.48330  Biso   1.000  C
  C2       1.0000 0.72020  0.13600  0.01670  Biso   1.000  C
  C3       1.0000 0.72020  0.36400  0.51670  Biso   1.000  C
  C4       1.0000 0.27980  0.86400  0.98330  Biso   1.000  C
  C5       1.0000 0.48990  0.73270  0.62160  Biso   1.000  C
  C6       1.0000 0.51010  0.23270  0.87840  Biso   1.000  C
  C7       1.0000 0.51010  0.26730  0.37840  Biso   1.000  C
  C8       1.0000 0.48990  0.76730  0.12160  Biso   1.000  C
  H1       1.0000 0.45880  0.70380  0.64480  Biso   1.000  H
  H2       1.0000 0.54120  0.20380  0.85520  Biso   1.000  H
  H3       1.0000 0.54120  0.29620  0.35520  Biso   1.000  H
  H4       1.0000 0.45880  0.79620  0.14480  Biso   1.000  H
  C9       1.0000 0.83670  0.42478  0.27530  Biso   1.000  C
  C10      1.0000 0.16330  0.92478  0.22470  Biso   1.000  C
  C11      1.0000 0.16330  0.57522  0.72470  Biso   1.000  C
  C12      1.0000 0.83670  0.07522  0.77530  Biso   1.000  C
  H5       1.0000 0.79000  0.43670  0.23830  Biso   1.000  H
  H6       1.0000 0.21000  0.93670  0.26170  Biso   1.000  H
  H7       1.0000 0.21000  0.56330  0.76170  Biso   1.000  H
  H8       1.0000 0.79000  0.06330  0.73830  Biso   1.000  H
  C13      1.0000 0.69570  0.17116  0.32670  Biso   1.000  C
  C14      1.0000 0.30430  0.67116  0.17330  Biso   1.000  C
  C15      1.0000 0.30430  0.82884  0.67330  Biso   1.000  C
  C16      1.0000 0.69570  0.32884  0.82670  Biso   1.000  C
  C17      1.0000 0.34710  0.07940  0.92910  Biso   1.000  C
  C18      1.0000 0.65290  0.57940  0.57090  Biso   1.000  C
  C19      1.0000 0.65290  0.92060  0.07090  Biso   1.000  C
  C20      1.0000 0.34710  0.42060  0.42910  Biso   1.000  C
  C21      1.0000 0.97360  0.44495  0.36180  Biso   1.000  C
  C22      1.0000 0.02640  0.94495  0.13820  Biso   1.000  C
  C23      1.0000 0.02640  0.55505  0.63820  Biso   1.000  C
  C24      1.0000 0.97360  0.05505  0.86180  Biso   1.000  C
  C25      1.0000 0.70460  0.22500  0.28840  Biso   1.000  C
  C26      1.0000 0.29540  0.72500  0.21160  Biso   1.000  C
  C27      1.0000 0.29540  0.77500  0.71160  Biso   1.000  C
  C28      1.0000 0.70460  0.27500  0.78840  Biso   1.000  C
  C29      1.0000 0.92010  0.24702  0.19850  Biso   1.000  C
  C30      1.0000 0.07990  0.74702  0.30150  Biso   1.000  C
  C31      1.0000 0.07990  0.75298  0.80150  Biso   1.000  C
  C32      1.0000 0.92010  0.25298  0.69850  Biso   1.000  C
  H9       1.0000 0.91390  0.23800  0.25100  Biso   1.000  H
  H10      1.0000 0.08610  0.73800  0.24900  Biso   1.000  H
  H11      1.0000 0.08610  0.76200  0.74900  Biso   1.000  H
  H12      1.0000 0.91390  0.26200  0.75100  Biso   1.000  H
  C33      1.0000 0.46990  0.74480  0.54310  Biso   1.000  C
  C34      1.0000 0.53010  0.24480  0.95690  Biso   1.000  C
  C35      1.0000 0.53010  0.25520  0.45690  Biso   1.000  C
  C36      1.0000 0.46990  0.75520  0.04310  Biso   1.000  C
  O37      1.0000 0.88020  0.88616  0.74070  Biso   1.000  O
  O38      1.0000 0.11980  0.38616  0.75930  Biso   1.000  O
  O39      1.0000 0.11980  0.11384  0.25930  Biso   1.000  O
  O40      1.0000 0.88020  0.61384  0.24070  Biso   1.000  O
  C37      1.0000 0.99220  0.22170  0.15680  Biso   1.000  C
  C38      1.0000 0.00780  0.72170  0.34320  Biso   1.000  C
  C39      1.0000 0.00780  0.77830  0.84320  Biso   1.000  C
  C40      1.0000 0.99220  0.27830  0.65680  Biso   1.000  C
  H13      1.0000 0.03370  0.19660  0.18110  Biso   1.000  H
  H14      1.0000 0.96630  0.69660  0.31890  Biso   1.000  H
  H15      1.0000 0.96630  0.80340  0.81890  Biso   1.000  H
  H16      1.0000 0.03370  0.30340  0.68110  Biso   1.000  H
  C41      1.0000 0.55570  0.76350  0.66490  Biso   1.000  C
  C42      1.0000 0.44430  0.26350  0.83510  Biso   1.000  C
  C43      1.0000 0.44430  0.23650  0.33510  Biso   1.000  C
  C44      1.0000 0.55570  0.73650  0.16490  Biso   1.000  C
  H17      1.0000 0.56720  0.75480  0.71740  Biso   1.000  H
  H18      1.0000 0.43280  0.25480  0.78260  Biso   1.000  H
  H19      1.0000 0.43280  0.24520  0.28260  Biso   1.000  H
  H20      1.0000 0.56720  0.74520  0.21740  Biso   1.000  H
  C45      1.0000 0.35340  0.66996  0.52350  Biso   1.000  C
  C46      1.0000 0.64660  0.16996  0.97650  Biso   1.000  C
  C47      1.0000 0.64660  0.33004  0.47650  Biso   1.000  C
  C48      1.0000 0.35340  0.83004  0.02350  Biso   1.000  C
  H21      1.0000 0.37010  0.66030  0.57480  Biso   1.000  H
  H22      1.0000 0.62990  0.16030  0.92520  Biso   1.000  H
  H23      1.0000 0.62990  0.33970  0.42520  Biso   1.000  H
  H24      1.0000 0.37010  0.83970  0.07480  Biso   1.000  H
  C49      1.0000 0.19110  0.20242  0.69070  Biso   1.000  C
  C50      1.0000 0.80890  0.70242  0.80930  Biso   1.000  C
  C51      1.0000 0.80890  0.79758  0.30930  Biso   1.000  C
  C52      1.0000 0.19110  0.29758  0.19070  Biso   1.000  C
  C53      1.0000 0.25280  0.58890  0.51980  Biso   1.000  C
  C54      1.0000 0.74720  0.08890  0.98020  Biso   1.000  C
  C55      1.0000 0.74720  0.41110  0.48020  Biso   1.000  C
  C56      1.0000 0.25280  0.91110  0.01980  Biso   1.000  C
  H25      1.0000 0.28240  0.57980  0.56790  Biso   1.000  H
  H26      1.0000 0.71760  0.07980  0.93210  Biso   1.000  H
  H27      1.0000 0.71760  0.42020  0.43210  Biso   1.000  H
  H28      1.0000 0.28240  0.92020  0.06790  Biso   1.000  H
  C57      1.0000 0.90400  0.35741  0.34960  Biso   1.000  C
  C58      1.0000 0.09600  0.85741  0.15040  Biso   1.000  C
  C59      1.0000 0.09600  0.64259  0.65040  Biso   1.000  C
  C60      1.0000 0.90400  0.14259  0.84960  Biso   1.000  C
  H29      1.0000 0.90460  0.32180  0.36550  Biso   1.000  H
  H30      1.0000 0.09540  0.82180  0.13450  Biso   1.000  H
  H31      1.0000 0.09540  0.67820  0.63450  Biso   1.000  H
  H32      1.0000 0.90460  0.17820  0.86550  Biso   1.000  H
  C61      1.0000 0.46720  0.91213  0.34570  Biso   1.000  C
  C62      1.0000 0.53280  0.41213  0.15430  Biso   1.000  C
  C63      1.0000 0.53280  0.08787  0.65430  Biso   1.000  C
  C64      1.0000 0.46720  0.58787  0.84570  Biso   1.000  C
  C65      1.0000 0.00200  0.23390  0.07910  Biso   1.000  C
  C66      1.0000 0.99800  0.73390  0.42090  Biso   1.000  C
  C67      1.0000 0.99800  0.76610  0.92090  Biso   1.000  C
  C68      1.0000 0.00200  0.26610  0.57910  Biso   1.000  C
  C69      1.0000 0.13690  0.56710  0.41520  Biso   1.000  C
  C70      1.0000 0.86310  0.06710  0.08480  Biso   1.000  C
  C71      1.0000 0.86310  0.43290  0.58480  Biso   1.000  C
  C72      1.0000 0.13690  0.93290  0.91520  Biso   1.000  C
  C73      1.0000 0.39940  0.71290  0.49620  Biso   1.000  C
  C74      1.0000 0.60060  0.21290  0.00380  Biso   1.000  C
  C75      1.0000 0.60060  0.28710  0.50380  Biso   1.000  C
  C76      1.0000 0.39940  0.78710  0.99620  Biso   1.000  C
  H33      1.0000 0.38610  0.72320  0.44460  Biso   1.000  H
  H34      1.0000 0.61390  0.22320  0.05540  Biso   1.000  H
  H35      1.0000 0.61390  0.27680  0.55540  Biso   1.000  H
  H36      1.0000 0.38610  0.77680  0.94460  Biso   1.000  H
  C77      1.0000 0.18340  0.55530  0.48640  Biso   1.000  C
  C78      1.0000 0.81660  0.05530  0.01360  Biso   1.000  C
  C79      1.0000 0.81660  0.44470  0.51360  Biso   1.000  C
  C80      1.0000 0.18340  0.94470  0.98640  Biso   1.000  C
  H37      1.0000 0.16700  0.52390  0.51230  Biso   1.000  H
  H38      1.0000 0.83300  0.02390  0.98770  Biso   1.000  H
  H39      1.0000 0.83300  0.47610  0.48770  Biso   1.000  H
  H40      1.0000 0.16700  0.97610  0.01230  Biso   1.000  H
  C81      1.0000 0.22430  0.25180  0.73420  Biso   1.000  C
  C82      1.0000 0.77570  0.75180  0.76580  Biso   1.000  C
  C83      1.0000 0.77570  0.74820  0.26580  Biso   1.000  C
  C84      1.0000 0.22430  0.24820  0.23420  Biso   1.000  C
  C85      1.0000 0.50560  0.96210  0.85670  Biso   1.000  C
  C86      1.0000 0.49440  0.46210  0.64330  Biso   1.000  C
  C87      1.0000 0.49440  0.03790  0.14330  Biso   1.000  C
  C88      1.0000 0.50560  0.53790  0.35670  Biso   1.000  C
  C89      1.0000 0.11100  0.11810  0.60540  Biso   1.000  C
  C90      1.0000 0.88900  0.61810  0.89460  Biso   1.000  C
  C91      1.0000 0.88900  0.88190  0.39460  Biso   1.000  C
  C92      1.0000 0.11100  0.38190  0.10540  Biso   1.000  C
  C93      1.0000 0.91170  0.95000  0.64250  Biso   1.000  C
  C94      1.0000 0.08830  0.45000  0.85750  Biso   1.000  C
  C95      1.0000 0.08830  0.05000  0.35750  Biso   1.000  C
  C96      1.0000 0.91170  0.55000  0.14250  Biso   1.000  C
  C97      1.0000 0.90260  0.46175  0.30720  Biso   1.000  C
  C98      1.0000 0.09740  0.96175  0.19280  Biso   1.000  C
  C99      1.0000 0.09740  0.53825  0.69280  Biso   1.000  C
  C100     1.0000 0.90260  0.03825  0.80720  Biso   1.000  C
  H41      1.0000 0.89920  0.49750  0.29210  Biso   1.000  H
  H42      1.0000 0.10080  0.99750  0.20790  Biso   1.000  H
  H43      1.0000 0.10080  0.50250  0.70790  Biso   1.000  H
  H44      1.0000 0.89920  0.00250  0.79210  Biso   1.000  H
  C101     1.0000 0.06210  0.53210  0.37840  Biso   1.000  C
  C102     1.0000 0.93790  0.03210  0.12160  Biso   1.000  C
  C103     1.0000 0.93790  0.46790  0.62160  Biso   1.000  C
  C104     1.0000 0.06210  0.96790  0.87840  Biso   1.000  C
  H45      1.0000 0.02210  0.54670  0.33860  Biso   1.000  H
  H46      1.0000 0.97790  0.04670  0.16140  Biso   1.000  H
  H47      1.0000 0.97790  0.45330  0.66140  Biso   1.000  H
  H48      1.0000 0.02210  0.95330  0.83860  Biso   1.000  H
  C105     1.0000 0.56890  0.98066  0.80160  Biso   1.000  C
  C106     1.0000 0.43110  0.48066  0.69840  Biso   1.000  C
  C107     1.0000 0.43110  0.01934  0.19840  Biso   1.000  C
  C108     1.0000 0.56890  0.51934  0.30160  Biso   1.000  C
  H49      1.0000 0.57180  0.01710  0.79070  Biso   1.000  H
  H50      1.0000 0.42820  0.51710  0.70930  Biso   1.000  H
  H51      1.0000 0.42820  0.98290  0.20930  Biso   1.000  H
  H52      1.0000 0.57180  0.48290  0.29070  Biso   1.000  H
  C109     1.0000 0.20770  0.14010  0.00860  Biso   1.000  C
  C110     1.0000 0.79230  0.64010  0.49140  Biso   1.000  C
  C111     1.0000 0.79230  0.85990  0.99140  Biso   1.000  C
  C112     1.0000 0.20770  0.35990  0.50860  Biso   1.000  C
  C113     1.0000 0.86970  0.29610  0.09230  Biso   1.000  C
  C114     1.0000 0.13030  0.79610  0.40770  Biso   1.000  C
  C115     1.0000 0.13030  0.70390  0.90770  Biso   1.000  C
  C116     1.0000 0.86970  0.20390  0.59230  Biso   1.000  C
  H53      1.0000 0.82900  0.32220  0.06980  Biso   1.000  H
  H54      1.0000 0.17100  0.82220  0.43020  Biso   1.000  H
  H55      1.0000 0.17100  0.67780  0.93020  Biso   1.000  H
  H56      1.0000 0.82900  0.17780  0.56980  Biso   1.000  H
  C117     1.0000 0.04690  0.48132  0.39720  Biso   1.000  C
  C118     1.0000 0.95310  0.98132  0.10280  Biso   1.000  C
  C119     1.0000 0.95310  0.51868  0.60280  Biso   1.000  C
  C120     1.0000 0.04690  0.01868  0.89720  Biso   1.000  C
  H57      1.0000 0.08720  0.46730  0.43720  Biso   1.000  H
  H58      1.0000 0.91280  0.96730  0.06280  Biso   1.000  H
  H59      1.0000 0.91280  0.53270  0.56280  Biso   1.000  H
  H60      1.0000 0.08720  0.03270  0.93720  Biso   1.000  H
  C121     1.0000 0.08760  0.12440  0.68250  Biso   1.000  C
  C122     1.0000 0.91240  0.62440  0.81750  Biso   1.000  C
  C123     1.0000 0.91240  0.87560  0.31750  Biso   1.000  C
  C124     1.0000 0.08760  0.37560  0.18250  Biso   1.000  C
  H61      1.0000 0.04560  0.10040  0.70620  Biso   1.000  H
  H62      1.0000 0.95440  0.60040  0.79380  Biso   1.000  H
  H63      1.0000 0.95440  0.89960  0.29380  Biso   1.000  H
  H64      1.0000 0.04560  0.39960  0.20620  Biso   1.000  H
  C125     1.0000 0.56860  0.87430  0.82970  Biso   1.000  C
  C126     1.0000 0.43140  0.37430  0.67030  Biso   1.000  C
  C127     1.0000 0.43140  0.12570  0.17030  Biso   1.000  C
  C128     1.0000 0.56860  0.62570  0.32970  Biso   1.000  C
  H65      1.0000 0.56830  0.83770  0.84050  Biso   1.000  H
  H66      1.0000 0.43170  0.33770  0.65950  Biso   1.000  H
  H67      1.0000 0.43170  0.16230  0.15950  Biso   1.000  H
  H68      1.0000 0.56830  0.66230  0.34050  Biso   1.000  H
  C129     1.0000 0.62810  0.94540  0.76270  Biso   1.000  C
  C130     1.0000 0.37190  0.44540  0.73730  Biso   1.000  C
  C131     1.0000 0.37190  0.05460  0.23730  Biso   1.000  C
  C132     1.0000 0.62810  0.55460  0.26270  Biso   1.000  C
  H69      1.0000 0.67000  0.95920  0.72560  Biso   1.000  H
  H70      1.0000 0.33000  0.45920  0.77440  Biso   1.000  H
  H71      1.0000 0.33000  0.04080  0.27440  Biso   1.000  H
  H72      1.0000 0.67000  0.54080  0.22560  Biso   1.000  H
  C133     1.0000 0.43840  0.95840  0.38380  Biso   1.000  C
  C134     1.0000 0.56160  0.45840  0.11620  Biso   1.000  C
  C135     1.0000 0.56160  0.04160  0.61620  Biso   1.000  C
  C136     1.0000 0.43840  0.54160  0.88380  Biso   1.000  C
  H73      1.0000 0.37200  0.96390  0.39330  Biso   1.000  H
  H74      1.0000 0.62800  0.46390  0.10670  Biso   1.000  H
  H75      1.0000 0.62800  0.03610  0.60670  Biso   1.000  H
  H76      1.0000 0.37200  0.53610  0.89330  Biso   1.000  H
  C137     1.0000 0.12740  0.16680  0.72390  Biso   1.000  C
  C138     1.0000 0.87260  0.66680  0.77610  Biso   1.000  C
  C139     1.0000 0.87260  0.83320  0.27610  Biso   1.000  C
  C140     1.0000 0.12740  0.33320  0.22390  Biso   1.000  C
  H77      1.0000 0.11070  0.17160  0.77580  Biso   1.000  H
  H78      1.0000 0.88930  0.67160  0.72420  Biso   1.000  H
  H79      1.0000 0.88930  0.82840  0.22420  Biso   1.000  H
  H80      1.0000 0.11070  0.32840  0.27580  Biso   1.000  H
  C141     1.0000 0.97090  0.39157  0.38230  Biso   1.000  C
  C142     1.0000 0.02910  0.89157  0.11770  Biso   1.000  C
  C143     1.0000 0.02910  0.60843  0.61770  Biso   1.000  C
  C144     1.0000 0.97090  0.10843  0.88230  Biso   1.000  C
  H81      1.0000 0.01620  0.37870  0.41970  Biso   1.000  H
  H82      1.0000 0.98380  0.87870  0.08030  Biso   1.000  H
  H83      1.0000 0.98380  0.62130  0.58030  Biso   1.000  H
  H84      1.0000 0.01620  0.12130  0.91970  Biso   1.000  H
  C145     1.0000 0.71900  0.16370  0.40460  Biso   1.000  C
  C146     1.0000 0.28100  0.66370  0.09540  Biso   1.000  C
  C147     1.0000 0.28100  0.83630  0.59540  Biso   1.000  C
  C148     1.0000 0.71900  0.33630  0.90460  Biso   1.000  C
  H85      1.0000 0.74110  0.19260  0.43490  Biso   1.000  H
  H86      1.0000 0.25890  0.69260  0.06510  Biso   1.000  H
  H87      1.0000 0.25890  0.80740  0.56510  Biso   1.000  H
  H88      1.0000 0.74110  0.30740  0.93490  Biso   1.000  H
  C149     1.0000 0.51890  0.78810  0.51330  Biso   1.000  C
  C150     1.0000 0.48110  0.28810  0.98670  Biso   1.000  C
  C151     1.0000 0.48110  0.21190  0.48670  Biso   1.000  C
  C152     1.0000 0.51890  0.71190  0.01330  Biso   1.000  C
  H89      1.0000 0.50790  0.79780  0.46120  Biso   1.000  H
  H90      1.0000 0.49210  0.29780  0.03880  Biso   1.000  H
  H91      1.0000 0.49210  0.20220  0.53880  Biso   1.000  H
  H92      1.0000 0.50790  0.70220  0.96120  Biso   1.000  H
  C153     1.0000 0.21490  0.19452  0.61370  Biso   1.000  C
  C154     1.0000 0.78510  0.69452  0.88630  Biso   1.000  C
  C155     1.0000 0.78510  0.80548  0.38630  Biso   1.000  C
  C156     1.0000 0.21490  0.30548  0.11370  Biso   1.000  C
  H93      1.0000 0.25820  0.21820  0.59060  Biso   1.000  H
  H94      1.0000 0.74180  0.71820  0.90940  Biso   1.000  H
  H95      1.0000 0.74180  0.78180  0.40940  Biso   1.000  H
  H96      1.0000 0.25820  0.28180  0.09060  Biso   1.000  H
  C157     1.0000 0.13140  0.16800  0.05370  Biso   1.000  C
  C158     1.0000 0.86860  0.66800  0.44630  Biso   1.000  C
  C159     1.0000 0.86860  0.83200  0.94630  Biso   1.000  C
  C160     1.0000 0.13140  0.33200  0.55370  Biso   1.000  C
  H97      1.0000 0.12170  0.15570  0.10430  Biso   1.000  H
  H98      1.0000 0.87830  0.65570  0.39570  Biso   1.000  H
  H99      1.0000 0.87830  0.84430  0.89570  Biso   1.000  H
  H100     1.0000 0.12170  0.34430  0.60430  Biso   1.000  H
  C161     1.0000 0.93810  0.27210  0.04650  Biso   1.000  C
  C162     1.0000 0.06190  0.77210  0.45350  Biso   1.000  C
  C163     1.0000 0.06190  0.72790  0.95350  Biso   1.000  C
  C164     1.0000 0.93810  0.22790  0.54650  Biso   1.000  C
  H101     1.0000 0.94190  0.28120  0.99390  Biso   1.000  H
  H102     1.0000 0.05810  0.78120  0.50610  Biso   1.000  H
  H103     1.0000 0.05810  0.71880  0.00610  Biso   1.000  H
  H104     1.0000 0.94190  0.21880  0.49390  Biso   1.000  H
  C165     1.0000 0.31130  0.06220  0.99960  Biso   1.000  C
  C166     1.0000 0.68870  0.56220  0.50040  Biso   1.000  C
  C167     1.0000 0.68870  0.93780  0.00040  Biso   1.000  C
  C168     1.0000 0.31130  0.43780  0.49960  Biso   1.000  C
  H105     1.0000 0.33380  0.03010  0.02130  Biso   1.000  H
  H106     1.0000 0.66620  0.53010  0.47870  Biso   1.000  H
  H107     1.0000 0.66620  0.96990  0.97870  Biso   1.000  H
  H108     1.0000 0.33380  0.46990  0.52130  Biso   1.000  H
  C169     1.0000 0.17660  0.15270  0.56970  Biso   1.000  C
  C170     1.0000 0.82340  0.65270  0.93030  Biso   1.000  C
  C171     1.0000 0.82340  0.84730  0.43030  Biso   1.000  C
  C172     1.0000 0.17660  0.34730  0.06970  Biso   1.000  C
  H109     1.0000 0.19400  0.14760  0.51800  Biso   1.000  H
  H110     1.0000 0.80600  0.64760  0.98200  Biso   1.000  H
  H111     1.0000 0.80600  0.85240  0.48200  Biso   1.000  H
  H112     1.0000 0.19400  0.35240  0.01800  Biso   1.000  H
  C173     1.0000 0.43730  0.99600  0.89860  Biso   1.000  C
  C174     1.0000 0.56270  0.49600  0.60140  Biso   1.000  C
  C175     1.0000 0.56270  0.00400  0.10140  Biso   1.000  C
  C176     1.0000 0.43730  0.50400  0.39860  Biso   1.000  C
  H113     1.0000 0.40380  0.97980  0.93890  Biso   1.000  H
  H114     1.0000 0.59620  0.47980  0.56110  Biso   1.000  H
  H115     1.0000 0.59620  0.02020  0.06110  Biso   1.000  H
  H116     1.0000 0.40380  0.52020  0.43890  Biso   1.000  H
  C177     1.0000 0.41770  0.04730  0.88540  Biso   1.000  C
  C178     1.0000 0.58230  0.54730  0.61460  Biso   1.000  C
  C179     1.0000 0.58230  0.95270  0.11460  Biso   1.000  C
  C180     1.0000 0.41770  0.45270  0.38540  Biso   1.000  C
  H117     1.0000 0.45090  0.06430  0.84550  Biso   1.000  H
  H118     1.0000 0.54910  0.56430  0.65450  Biso   1.000  H
  H119     1.0000 0.54910  0.93570  0.15450  Biso   1.000  H
  H120     1.0000 0.45090  0.43570  0.34550  Biso   1.000  H
  C181     1.0000 0.58520  0.81760  0.56060  Biso   1.000  C
  C182     1.0000 0.41480  0.31760  0.93940  Biso   1.000  C
  C183     1.0000 0.41480  0.18240  0.43940  Biso   1.000  C
  C184     1.0000 0.58520  0.68240  0.06060  Biso   1.000  C
  H121     1.0000 0.61710  0.84680  0.53900  Biso   1.000  H
  H122     1.0000 0.38290  0.34680  0.96100  Biso   1.000  H
  H123     1.0000 0.38290  0.15320  0.46100  Biso   1.000  H
  H124     1.0000 0.61710  0.65320  0.03900  Biso   1.000  H
  C185     1.0000 0.50760  0.90710  0.87050  Biso   1.000  C
  C186     1.0000 0.49240  0.40710  0.62950  Biso   1.000  C
  C187     1.0000 0.49240  0.09290  0.12950  Biso   1.000  C
  C188     1.0000 0.50760  0.59290  0.37050  Biso   1.000  C
  H125     1.0000 0.46690  0.89250  0.90780  Biso   1.000  H
  H126     1.0000 0.53310  0.39250  0.59220  Biso   1.000  H
  H127     1.0000 0.53310  0.10750  0.09220  Biso   1.000  H
  H128     1.0000 0.46690  0.60750  0.40780  Biso   1.000  H
  C189     1.0000 0.66350  0.12810  0.28380  Biso   1.000  C
  C190     1.0000 0.33650  0.62810  0.21620  Biso   1.000  C
  C191     1.0000 0.33650  0.87190  0.71620  Biso   1.000  C
  C192     1.0000 0.66350  0.37190  0.78380  Biso   1.000  C
  H129     1.0000 0.64640  0.13290  0.23110  Biso   1.000  H
  H130     1.0000 0.35360  0.63290  0.26890  Biso   1.000  H
  H131     1.0000 0.35360  0.86710  0.76890  Biso   1.000  H
  H132     1.0000 0.64640  0.36710  0.73110  Biso   1.000  H
  C193     1.0000 0.24320  0.09190  0.03810  Biso   1.000  C
  C194     1.0000 0.75680  0.59190  0.46190  Biso   1.000  C
  C195     1.0000 0.75680  0.90810  0.96190  Biso   1.000  C
  C196     1.0000 0.24320  0.40810  0.53810  Biso   1.000  C
  H133     1.0000 0.22010  0.07940  0.08540  Biso   1.000  H
  H134     1.0000 0.77990  0.57940  0.41460  Biso   1.000  H
  H135     1.0000 0.77990  0.92060  0.91460  Biso   1.000  H
  H136     1.0000 0.22010  0.42060  0.58540  Biso   1.000  H
  C197     1.0000 0.07600  0.20840  0.02990  Biso   1.000  C
  C198     1.0000 0.92400  0.70840  0.47010  Biso   1.000  C
  C199     1.0000 0.92400  0.79160  0.97010  Biso   1.000  C
  C200     1.0000 0.07600  0.29160  0.52990  Biso   1.000  C
  H137     1.0000 0.08390  0.22150  0.97950  Biso   1.000  H
  H138     1.0000 0.91610  0.72150  0.52050  Biso   1.000  H
  H139     1.0000 0.91610  0.77850  0.02050  Biso   1.000  H
  H140     1.0000 0.08390  0.27850  0.47950  Biso   1.000  H
  C201     1.0000 0.39250  0.87420  0.31080  Biso   1.000  C
  C202     1.0000 0.60750  0.37420  0.18920  Biso   1.000  C
  C203     1.0000 0.60750  0.12580  0.68920  Biso   1.000  C
  C204     1.0000 0.39250  0.62580  0.81080  Biso   1.000  C
  C205     1.0000 0.86730  0.98790  0.59490  Biso   1.000  C
  C206     1.0000 0.13270  0.48790  0.90510  Biso   1.000  C
  C207     1.0000 0.13270  0.01210  0.40510  Biso   1.000  C
  C208     1.0000 0.86730  0.51210  0.09490  Biso   1.000  C
  H141     1.0000 0.80140  0.98350  0.57960  Biso   1.000  H
  H142     1.0000 0.19860  0.48350  0.92040  Biso   1.000  H
  H143     1.0000 0.19860  0.01650  0.42040  Biso   1.000  H
  H144     1.0000 0.80140  0.51650  0.07960  Biso   1.000  H
  C209     1.0000 0.67770  0.07140  0.39360  Biso   1.000  C
  C210     1.0000 0.32230  0.57140  0.10640  Biso   1.000  C
  C211     1.0000 0.32230  0.92860  0.60640  Biso   1.000  C
  C212     1.0000 0.67770  0.42860  0.89360  Biso   1.000  C
  C213     1.0000 0.23420  0.64833  0.41260  Biso   1.000  C
  C214     1.0000 0.76580  0.14833  0.08740  Biso   1.000  C
  C215     1.0000 0.76580  0.35167  0.58740  Biso   1.000  C
  C216     1.0000 0.23420  0.85167  0.91260  Biso   1.000  C
  H145     1.0000 0.25080  0.67970  0.38670  Biso   1.000  H
  H146     1.0000 0.74920  0.17970  0.11330  Biso   1.000  H
  H147     1.0000 0.74920  0.32030  0.61330  Biso   1.000  H
  H148     1.0000 0.25080  0.82030  0.88670  Biso   1.000  H
  C217     1.0000 0.60370  0.98550  0.39880  Biso   1.000  C
  C218     1.0000 0.39630  0.48550  0.10120  Biso   1.000  C
  C219     1.0000 0.39630  0.01450  0.60120  Biso   1.000  C
  C220     1.0000 0.60370  0.51450  0.89880  Biso   1.000  C
  C221     1.0000 0.85140  0.90510  0.67600  Biso   1.000  C
  C222     1.0000 0.14860  0.40510  0.82400  Biso   1.000  C
  C223     1.0000 0.14860  0.09490  0.32400  Biso   1.000  C
  C224     1.0000 0.85140  0.59490  0.17600  Biso   1.000  C
  C225     1.0000 0.01690  0.03660  0.58900  Biso   1.000  C
  C226     1.0000 0.98310  0.53660  0.91100  Biso   1.000  C
  C227     1.0000 0.98310  0.96340  0.41100  Biso   1.000  C
  C228     1.0000 0.01690  0.46340  0.08900  Biso   1.000  C
  C229     1.0000 0.50660  0.99630  0.40780  Biso   1.000  C
  C230     1.0000 0.49340  0.49630  0.09220  Biso   1.000  C
  C231     1.0000 0.49340  0.00370  0.59220  Biso   1.000  C
  C232     1.0000 0.50660  0.50370  0.90780  Biso   1.000  C
  H149     1.0000 0.48660  0.02860  0.42960  Biso   1.000  H
  H150     1.0000 0.51340  0.52860  0.07040  Biso   1.000  H
  H151     1.0000 0.51340  0.97140  0.57040  Biso   1.000  H
  H152     1.0000 0.48660  0.47140  0.92960  Biso   1.000  H
  C233     1.0000 0.31280  0.12800  0.89950  Biso   1.000  C
  C234     1.0000 0.68720  0.62800  0.60050  Biso   1.000  C
  C235     1.0000 0.68720  0.87200  0.10050  Biso   1.000  C
  C236     1.0000 0.31280  0.37200  0.39950  Biso   1.000  C
  H153     1.0000 0.33640  0.14060  0.85230  Biso   1.000  H
  H154     1.0000 0.66360  0.64060  0.64770  Biso   1.000  H
  H155     1.0000 0.66360  0.85940  0.14770  Biso   1.000  H
  H156     1.0000 0.33640  0.35940  0.35230  Biso   1.000  H
  C237     1.0000 0.00940  0.95520  0.66000  Biso   1.000  C
  C238     1.0000 0.99060  0.45520  0.84000  Biso   1.000  C
  C239     1.0000 0.99060  0.04480  0.34000  Biso   1.000  C
  C240     1.0000 0.00940  0.54480  0.16000  Biso   1.000  C
  H157     1.0000 0.04130  0.92920  0.69060  Biso   1.000  H
  H158     1.0000 0.95870  0.42920  0.80940  Biso   1.000  H
  H159     1.0000 0.95870  0.07080  0.30940  Biso   1.000  H
  H160     1.0000 0.04130  0.57080  0.19060  Biso   1.000  H
  C241     1.0000 0.16420  0.61453  0.37980  Biso   1.000  C
  C242     1.0000 0.83580  0.11453  0.12020  Biso   1.000  C
  C243     1.0000 0.83580  0.38547  0.62020  Biso   1.000  C
  C244     1.0000 0.16420  0.88547  0.87980  Biso   1.000  C
  H161     1.0000 0.13400  0.62390  0.33210  Biso   1.000  H
  H162     1.0000 0.86600  0.12390  0.16790  Biso   1.000  H
  H163     1.0000 0.86600  0.37610  0.66790  Biso   1.000  H
  H164     1.0000 0.13400  0.87610  0.83210  Biso   1.000  H
  C245     1.0000 0.70980  0.11350  0.43860  Biso   1.000  C
  C246     1.0000 0.29020  0.61350  0.06140  Biso   1.000  C
  C247     1.0000 0.29020  0.88650  0.56140  Biso   1.000  C
  C248     1.0000 0.70980  0.38650  0.93860  Biso   1.000  C
  H165     1.0000 0.72540  0.10850  0.49150  Biso   1.000  H
  H166     1.0000 0.27460  0.60850  0.00850  Biso   1.000  H
  H167     1.0000 0.27460  0.89150  0.50850  Biso   1.000  H
  H168     1.0000 0.72540  0.39150  0.99150  Biso   1.000  H
  C249     1.0000 0.24450  0.15810  0.93840  Biso   1.000  C
  C250     1.0000 0.75550  0.65810  0.56160  Biso   1.000  C
  C251     1.0000 0.75550  0.84190  0.06160  Biso   1.000  C
  C252     1.0000 0.24450  0.34190  0.43840  Biso   1.000  C
  H169     1.0000 0.22300  0.19070  0.91750  Biso   1.000  H
  H170     1.0000 0.77700  0.69070  0.58250  Biso   1.000  H
  H171     1.0000 0.77700  0.80930  0.08250  Biso   1.000  H
  H172     1.0000 0.22300  0.30930  0.41750  Biso   1.000  H
  C253     1.0000 0.56520  0.90340  0.33710  Biso   1.000  C
  C254     1.0000 0.43480  0.40340  0.16290  Biso   1.000  C
  C255     1.0000 0.43480  0.09660  0.66290  Biso   1.000  C
  C256     1.0000 0.56520  0.59660  0.83710  Biso   1.000  C
  H173     1.0000 0.58560  0.87250  0.31200  Biso   1.000  H
  H174     1.0000 0.41440  0.37250  0.18800  Biso   1.000  H
  H175     1.0000 0.41440  0.12750  0.68800  Biso   1.000  H
  H176     1.0000 0.58560  0.62750  0.81200  Biso   1.000  H
  C257     1.0000 0.06250  0.99870  0.63290  Biso   1.000  C
  C258     1.0000 0.93750  0.49870  0.86710  Biso   1.000  C
  C259     1.0000 0.93750  0.00130  0.36710  Biso   1.000  C
  C260     1.0000 0.06250  0.50130  0.13290  Biso   1.000  C
  H177     1.0000 0.12960  0.00160  0.64510  Biso   1.000  H
  H178     1.0000 0.87040  0.50160  0.85490  Biso   1.000  H
  H179     1.0000 0.87040  0.99840  0.35490  Biso   1.000  H
  H180     1.0000 0.12960  0.49840  0.14510  Biso   1.000  H
  C261     1.0000 0.91790  0.03270  0.56910  Biso   1.000  C
  C262     1.0000 0.08210  0.53270  0.93090  Biso   1.000  C
  C263     1.0000 0.08210  0.96730  0.43090  Biso   1.000  C
  C264     1.0000 0.91790  0.46730  0.06910  Biso   1.000  C
  H181     1.0000 0.88600  0.05910  0.53940  Biso   1.000  H
  H182     1.0000 0.11400  0.55910  0.96060  Biso   1.000  H
  H183     1.0000 0.11400  0.94090  0.46060  Biso   1.000  H
  H184     1.0000 0.88600  0.44090  0.03940  Biso   1.000  H
  C265     1.0000 0.65580  0.07800  0.31620  Biso   1.000  C
  C266     1.0000 0.34420  0.57800  0.18380  Biso   1.000  C
  C267     1.0000 0.34420  0.92200  0.68380  Biso   1.000  C
  C268     1.0000 0.65580  0.42200  0.81620  Biso   1.000  C
  H185     1.0000 0.63580  0.04890  0.28550  Biso   1.000  H
  H186     1.0000 0.36420  0.54890  0.21450  Biso   1.000  H
  H187     1.0000 0.36420  0.95110  0.71450  Biso   1.000  H
  H188     1.0000 0.63580  0.45110  0.78550  Biso   1.000  H
  C269     1.0000 0.63450  0.93930  0.36470  Biso   1.000  C
  C270     1.0000 0.36550  0.43930  0.13530  Biso   1.000  C
  C271     1.0000 0.36550  0.06070  0.63530  Biso   1.000  C
  C272     1.0000 0.63450  0.56070  0.86470  Biso   1.000  C
  H189     1.0000 0.70140  0.93220  0.36020  Biso   1.000  H
  H190     1.0000 0.29860  0.43220  0.13980  Biso   1.000  H
  H191     1.0000 0.29860  0.06780  0.63980  Biso   1.000  H
  H192     1.0000 0.70140  0.56780  0.86020  Biso   1.000  H
  O41      1.0000 0.02410  0.29120  0.86910  Biso   1.000  O
  O42      1.0000 0.97590  0.79120  0.63090  Biso   1.000  O
  O43      1.0000 0.97590  0.70880  0.13090  Biso   1.000  O
  O44      1.0000 0.02410  0.20880  0.36910  Biso   1.000  O
