data_image0
_cell_length_a       16.174
_cell_length_b       16.174
_cell_length_c       16.357
_cell_angle_alpha    90
_cell_angle_beta     90
_cell_angle_gamma    90

_symmetry_space_group_name_H-M    "P 1"
_symmetry_int_tables_number       1

loop_
  _symmetry_equiv_pos_as_xyz
  'x, y, z'

loop_
  _atom_site_label
  _atom_site_occupancy
  _atom_site_fract_x
  _atom_site_fract_y
  _atom_site_fract_z
  _atom_site_thermal_displace_type
  _atom_site_B_iso_or_equiv
  _atom_site_type_symbol
  Cu1      1.0000 0.44215  0.44211  0.09202  Biso   1.000  Cu
  Cu2      1.0000 0.05785  0.05789  0.59202  Biso   1.000  Cu
  Cu3      1.0000 0.55789  0.94215  0.34202  Biso   1.000  Cu
  Cu4      1.0000 0.94211  0.55785  0.84202  Biso   1.000  Cu
  Cu5      1.0000 0.94215  0.94211  0.59202  Biso   1.000  Cu
  Cu6      1.0000 0.55785  0.55789  0.09202  Biso   1.000  Cu
  Cu7      1.0000 0.05789  0.44215  0.84202  Biso   1.000  Cu
  Cu8      1.0000 0.44211  0.05785  0.34202  Biso   1.000  Cu
  N1       1.0000 0.34760  0.34780  0.09190  Biso   1.000  N
  N2       1.0000 0.15240  0.15220  0.59190  Biso   1.000  N
  N3       1.0000 0.65220  0.84760  0.34190  Biso   1.000  N
  N4       1.0000 0.84780  0.65240  0.84190  Biso   1.000  N
  N5       1.0000 0.84760  0.84780  0.59190  Biso   1.000  N
  N6       1.0000 0.65240  0.65220  0.09190  Biso   1.000  N
  N7       1.0000 0.15220  0.34760  0.84190  Biso   1.000  N
  N8       1.0000 0.34780  0.15240  0.34190  Biso   1.000  N
  O1       1.0000 0.51420  0.39630  0.18090  Biso   1.000  O
  O2       1.0000 0.98580  0.10370  0.68090  Biso   1.000  O
  O3       1.0000 0.60370  0.01420  0.43090  Biso   1.000  O
  O4       1.0000 0.89630  0.48580  0.93090  Biso   1.000  O
  O5       1.0000 0.01420  0.89630  0.68090  Biso   1.000  O
  O6       1.0000 0.48580  0.60370  0.18090  Biso   1.000  O
  O7       1.0000 0.10370  0.51420  0.93090  Biso   1.000  O
  O8       1.0000 0.39630  0.98580  0.43090  Biso   1.000  O
  O9       1.0000 0.98610  0.39560  0.75310  Biso   1.000  O
  O10      1.0000 0.51390  0.10440  0.25310  Biso   1.000  O
  O11      1.0000 0.60440  0.48610  0.00310  Biso   1.000  O
  O12      1.0000 0.89560  0.01390  0.50310  Biso   1.000  O
  O13      1.0000 0.48610  0.89560  0.25310  Biso   1.000  O
  O14      1.0000 0.01390  0.60440  0.75310  Biso   1.000  O
  O15      1.0000 0.10440  0.98610  0.50310  Biso   1.000  O
  O16      1.0000 0.39560  0.51390  0.00310  Biso   1.000  O
  O17      1.0000 0.61220  0.49280  0.17470  Biso   1.000  O
  O18      1.0000 0.88780  0.00720  0.67470  Biso   1.000  O
  O19      1.0000 0.50720  0.11220  0.42470  Biso   1.000  O
  O20      1.0000 0.99280  0.38780  0.92470  Biso   1.000  O
  O21      1.0000 0.11220  0.99280  0.67470  Biso   1.000  O
  O22      1.0000 0.38780  0.50720  0.17470  Biso   1.000  O
  O23      1.0000 0.00720  0.61220  0.92470  Biso   1.000  O
  O24      1.0000 0.49280  0.88780  0.42470  Biso   1.000  O
  O25      1.0000 0.88680  0.49290  0.75960  Biso   1.000  O
  O26      1.0000 0.61320  0.00710  0.25960  Biso   1.000  O
  O27      1.0000 0.50710  0.38680  0.00960  Biso   1.000  O
  O28      1.0000 0.99290  0.11320  0.50960  Biso   1.000  O
  O29      1.0000 0.38680  0.99290  0.25960  Biso   1.000  O
  O30      1.0000 0.11320  0.50710  0.75960  Biso   1.000  O
  O31      1.0000 0.00710  0.88680  0.50960  Biso   1.000  O
  O32      1.0000 0.49290  0.61320  0.00960  Biso   1.000  O
  C1       1.0000 0.69400  0.43020  0.30850  Biso   1.000  C
  C2       1.0000 0.80600  0.06980  0.80850  Biso   1.000  C
  C3       1.0000 0.56980  0.19400  0.55850  Biso   1.000  C
  C4       1.0000 0.93020  0.30600  0.05850  Biso   1.000  C
  C5       1.0000 0.19400  0.93020  0.80850  Biso   1.000  C
  C6       1.0000 0.30600  0.56980  0.30850  Biso   1.000  C
  C7       1.0000 0.06980  0.69400  0.05850  Biso   1.000  C
  C8       1.0000 0.43020  0.80600  0.55850  Biso   1.000  C
  H1       1.0000 0.71230  0.47970  0.28570  Biso   1.000  H
  H2       1.0000 0.78770  0.02030  0.78570  Biso   1.000  H
  H3       1.0000 0.52030  0.21230  0.53570  Biso   1.000  H
  H4       1.0000 0.97970  0.28770  0.03570  Biso   1.000  H
  H5       1.0000 0.21230  0.97970  0.78570  Biso   1.000  H
  H6       1.0000 0.28770  0.52030  0.28570  Biso   1.000  H
  H7       1.0000 0.02030  0.71230  0.03570  Biso   1.000  H
  H8       1.0000 0.47970  0.78770  0.53570  Biso   1.000  H
  C9       1.0000 0.57980  0.42980  0.20500  Biso   1.000  C
  C10      1.0000 0.92020  0.07020  0.70500  Biso   1.000  C
  C11      1.0000 0.57020  0.07980  0.45500  Biso   1.000  C
  C12      1.0000 0.92980  0.42020  0.95500  Biso   1.000  C
  C13      1.0000 0.07980  0.92980  0.70500  Biso   1.000  C
  C14      1.0000 0.42020  0.57020  0.20500  Biso   1.000  C
  C15      1.0000 0.07020  0.57980  0.95500  Biso   1.000  C
  C16      1.0000 0.42980  0.92020  0.45500  Biso   1.000  C
  C17      1.0000 0.91950  0.42960  0.72820  Biso   1.000  C
  C18      1.0000 0.58050  0.07040  0.22820  Biso   1.000  C
  C19      1.0000 0.57040  0.41950  0.97820  Biso   1.000  C
  C20      1.0000 0.92960  0.08050  0.47820  Biso   1.000  C
  C21      1.0000 0.41950  0.92960  0.22820  Biso   1.000  C
  C22      1.0000 0.08050  0.57040  0.72820  Biso   1.000  C
  C23      1.0000 0.07040  0.91950  0.47820  Biso   1.000  C
  C24      1.0000 0.42960  0.58050  0.97820  Biso   1.000  C
  C25      1.0000 0.59750  0.31830  0.30930  Biso   1.000  C
  C26      1.0000 0.90250  0.18170  0.80930  Biso   1.000  C
  C27      1.0000 0.68170  0.09750  0.55930  Biso   1.000  C
  C28      1.0000 0.81830  0.40250  0.05930  Biso   1.000  C
  C29      1.0000 0.09750  0.81830  0.80930  Biso   1.000  C
  C30      1.0000 0.40250  0.68170  0.30930  Biso   1.000  C
  C31      1.0000 0.18170  0.59750  0.05930  Biso   1.000  C
  C32      1.0000 0.31830  0.90250  0.55930  Biso   1.000  C
  H9       1.0000 0.55130  0.29210  0.28760  Biso   1.000  H
  H10      1.0000 0.94870  0.20790  0.78760  Biso   1.000  H
  H11      1.0000 0.70790  0.05130  0.53760  Biso   1.000  H
  H12      1.0000 0.79210  0.44870  0.03760  Biso   1.000  H
  H13      1.0000 0.05130  0.79210  0.78760  Biso   1.000  H
  H14      1.0000 0.44870  0.70790  0.28760  Biso   1.000  H
  H15      1.0000 0.20790  0.55130  0.03760  Biso   1.000  H
  H16      1.0000 0.29210  0.94870  0.53760  Biso   1.000  H
  C33      1.0000 0.76330  0.39570  0.56000  Biso   1.000  C
  C34      1.0000 0.73670  0.10430  0.06000  Biso   1.000  C
  C35      1.0000 0.60430  0.26330  0.81000  Biso   1.000  C
  C36      1.0000 0.89570  0.23670  0.31000  Biso   1.000  C
  C37      1.0000 0.26330  0.89570  0.06000  Biso   1.000  C
  C38      1.0000 0.23670  0.60430  0.56000  Biso   1.000  C
  C39      1.0000 0.10430  0.76330  0.31000  Biso   1.000  C
  C40      1.0000 0.39570  0.73670  0.81000  Biso   1.000  C
  H17      1.0000 0.71640  0.42100  0.53870  Biso   1.000  H
  H18      1.0000 0.78360  0.07900  0.03870  Biso   1.000  H
  H19      1.0000 0.57900  0.21640  0.78870  Biso   1.000  H
  H20      1.0000 0.92100  0.28360  0.28870  Biso   1.000  H
  H21      1.0000 0.21640  0.92100  0.03870  Biso   1.000  H
  H22      1.0000 0.28360  0.57900  0.53870  Biso   1.000  H
  H23      1.0000 0.07900  0.71640  0.28870  Biso   1.000  H
  H24      1.0000 0.42100  0.78360  0.78870  Biso   1.000  H
  C41      1.0000 0.80630  0.43110  0.62520  Biso   1.000  C
  C42      1.0000 0.69370  0.06890  0.12520  Biso   1.000  C
  C43      1.0000 0.56890  0.30630  0.87520  Biso   1.000  C
  C44      1.0000 0.93110  0.19370  0.37520  Biso   1.000  C
  C45      1.0000 0.30630  0.93110  0.12520  Biso   1.000  C
  C46      1.0000 0.19370  0.56890  0.62520  Biso   1.000  C
  C47      1.0000 0.06890  0.80630  0.37520  Biso   1.000  C
  C48      1.0000 0.43110  0.69370  0.87520  Biso   1.000  C
  H25      1.0000 0.78820  0.48070  0.64770  Biso   1.000  H
  H26      1.0000 0.71180  0.01930  0.14770  Biso   1.000  H
  H27      1.0000 0.51930  0.28820  0.89770  Biso   1.000  H
  H28      1.0000 0.98070  0.21180  0.39770  Biso   1.000  H
  H29      1.0000 0.28820  0.98070  0.14770  Biso   1.000  H
  H30      1.0000 0.21180  0.51930  0.64770  Biso   1.000  H
  H31      1.0000 0.01930  0.78820  0.39770  Biso   1.000  H
  H32      1.0000 0.48070  0.71180  0.89770  Biso   1.000  H
  C49      1.0000 0.87630  0.39220  0.65680  Biso   1.000  C
  C50      1.0000 0.62370  0.10780  0.15680  Biso   1.000  C
  C51      1.0000 0.60780  0.37630  0.90680  Biso   1.000  C
  C52      1.0000 0.89220  0.12370  0.40680  Biso   1.000  C
  C53      1.0000 0.37630  0.89220  0.15680  Biso   1.000  C
  C54      1.0000 0.12370  0.60780  0.65680  Biso   1.000  C
  C55      1.0000 0.10780  0.87630  0.40680  Biso   1.000  C
  C56      1.0000 0.39220  0.62370  0.90680  Biso   1.000  C
  C57      1.0000 0.86000  0.28330  0.55890  Biso   1.000  C
  C58      1.0000 0.64000  0.21670  0.05890  Biso   1.000  C
  C59      1.0000 0.71670  0.36000  0.80890  Biso   1.000  C
  C60      1.0000 0.78330  0.14000  0.30890  Biso   1.000  C
  C61      1.0000 0.36000  0.78330  0.05890  Biso   1.000  C
  C62      1.0000 0.14000  0.71670  0.55890  Biso   1.000  C
  C63      1.0000 0.21670  0.86000  0.30890  Biso   1.000  C
  C64      1.0000 0.28330  0.64000  0.80890  Biso   1.000  C
  H33      1.0000 0.87780  0.23340  0.53680  Biso   1.000  H
  H34      1.0000 0.62220  0.26660  0.03680  Biso   1.000  H
  H35      1.0000 0.76660  0.37780  0.78680  Biso   1.000  H
  H36      1.0000 0.73340  0.12220  0.28680  Biso   1.000  H
  H37      1.0000 0.37780  0.73340  0.03680  Biso   1.000  H
  H38      1.0000 0.12220  0.76660  0.53680  Biso   1.000  H
  H39      1.0000 0.26660  0.87780  0.28680  Biso   1.000  H
  H40      1.0000 0.23340  0.62220  0.78680  Biso   1.000  H
  C65      1.0000 0.62400  0.39200  0.27660  Biso   1.000  C
  C66      1.0000 0.87600  0.10800  0.77660  Biso   1.000  C
  C67      1.0000 0.60800  0.12400  0.52660  Biso   1.000  C
  C68      1.0000 0.89200  0.37600  0.02660  Biso   1.000  C
  C69      1.0000 0.12400  0.89200  0.77660  Biso   1.000  C
  C70      1.0000 0.37600  0.60800  0.27660  Biso   1.000  C
  C71      1.0000 0.10800  0.62400  0.02660  Biso   1.000  C
  C72      1.0000 0.39200  0.87600  0.52660  Biso   1.000  C
  C73      1.0000 0.90250  0.31890  0.62420  Biso   1.000  C
  C74      1.0000 0.59750  0.18110  0.12420  Biso   1.000  C
  C75      1.0000 0.68110  0.40250  0.87420  Biso   1.000  C
  C76      1.0000 0.81890  0.09750  0.37420  Biso   1.000  C
  C77      1.0000 0.40250  0.81890  0.12420  Biso   1.000  C
  C78      1.0000 0.09750  0.68110  0.62420  Biso   1.000  C
  C79      1.0000 0.18110  0.90250  0.37420  Biso   1.000  C
  C80      1.0000 0.31890  0.59750  0.87420  Biso   1.000  C
  H41      1.0000 0.94880  0.29260  0.64560  Biso   1.000  H
  H42      1.0000 0.55120  0.20740  0.14560  Biso   1.000  H
  H43      1.0000 0.70740  0.44880  0.89560  Biso   1.000  H
  H44      1.0000 0.79260  0.05120  0.39560  Biso   1.000  H
  H45      1.0000 0.44880  0.79260  0.14560  Biso   1.000  H
  H46      1.0000 0.05120  0.70740  0.64560  Biso   1.000  H
  H47      1.0000 0.20740  0.94880  0.39560  Biso   1.000  H
  H48      1.0000 0.29260  0.55120  0.89560  Biso   1.000  H
  C81      1.0000 0.63960  0.28270  0.37470  Biso   1.000  C
  C82      1.0000 0.86040  0.21730  0.87470  Biso   1.000  C
  C83      1.0000 0.71730  0.13960  0.62470  Biso   1.000  C
  C84      1.0000 0.78270  0.36040  0.12470  Biso   1.000  C
  C85      1.0000 0.13960  0.78270  0.87470  Biso   1.000  C
  C86      1.0000 0.36040  0.71730  0.37470  Biso   1.000  C
  C87      1.0000 0.21730  0.63960  0.12470  Biso   1.000  C
  C88      1.0000 0.28270  0.86040  0.62470  Biso   1.000  C
  H49      1.0000 0.62180  0.23270  0.39660  Biso   1.000  H
  H50      1.0000 0.87820  0.26730  0.89660  Biso   1.000  H
  H51      1.0000 0.76730  0.12180  0.64660  Biso   1.000  H
  H52      1.0000 0.73270  0.37820  0.14660  Biso   1.000  H
  H53      1.0000 0.12180  0.73270  0.89660  Biso   1.000  H
  H54      1.0000 0.37820  0.76730  0.39660  Biso   1.000  H
  H55      1.0000 0.26730  0.62180  0.14660  Biso   1.000  H
  H56      1.0000 0.23270  0.87820  0.64660  Biso   1.000  H
  C89      1.0000 0.70770  0.32230  0.40650  Biso   1.000  C
  C90      1.0000 0.79230  0.17770  0.90650  Biso   1.000  C
  C91      1.0000 0.67770  0.20770  0.65650  Biso   1.000  C
  C92      1.0000 0.82230  0.29230  0.15650  Biso   1.000  C
  C93      1.0000 0.20770  0.82230  0.90650  Biso   1.000  C
  C94      1.0000 0.29230  0.67770  0.40650  Biso   1.000  C
  C95      1.0000 0.17770  0.70770  0.15650  Biso   1.000  C
  C96      1.0000 0.32230  0.79230  0.65650  Biso   1.000  C
  C97      1.0000 0.79230  0.32230  0.52790  Biso   1.000  C
  C98      1.0000 0.70770  0.17770  0.02790  Biso   1.000  C
  C99      1.0000 0.67770  0.29230  0.77790  Biso   1.000  C
  C100     1.0000 0.82230  0.20770  0.27790  Biso   1.000  C
  C101     1.0000 0.29230  0.82230  0.02790  Biso   1.000  C
  C102     1.0000 0.20770  0.67770  0.52790  Biso   1.000  C
  C103     1.0000 0.17770  0.79230  0.27790  Biso   1.000  C
  C104     1.0000 0.32230  0.70770  0.77790  Biso   1.000  C
  C105     1.0000 0.73730  0.39590  0.37390  Biso   1.000  C
  C106     1.0000 0.76270  0.10410  0.87390  Biso   1.000  C
  C107     1.0000 0.60410  0.23730  0.62390  Biso   1.000  C
  C108     1.0000 0.89590  0.26270  0.12390  Biso   1.000  C
  C109     1.0000 0.23730  0.89590  0.87390  Biso   1.000  C
  C110     1.0000 0.26270  0.60410  0.37390  Biso   1.000  C
  C111     1.0000 0.10410  0.73730  0.12390  Biso   1.000  C
  C112     1.0000 0.39590  0.76270  0.62390  Biso   1.000  C
  H57      1.0000 0.78430  0.42130  0.39500  Biso   1.000  H
  H58      1.0000 0.71570  0.07870  0.89500  Biso   1.000  H
  H59      1.0000 0.57870  0.28430  0.64500  Biso   1.000  H
  H60      1.0000 0.92130  0.21570  0.14500  Biso   1.000  H
  H61      1.0000 0.28430  0.92130  0.89500  Biso   1.000  H
  H62      1.0000 0.21570  0.57870  0.39500  Biso   1.000  H
  H63      1.0000 0.07870  0.78430  0.14500  Biso   1.000  H
  H64      1.0000 0.42130  0.71570  0.64500  Biso   1.000  H
  O33      1.0000 0.74980  0.27900  0.46690  Biso   1.000  O
  O34      1.0000 0.75020  0.22100  0.96690  Biso   1.000  O
  O35      1.0000 0.72100  0.24980  0.71690  Biso   1.000  O
  O36      1.0000 0.77900  0.25020  0.21690  Biso   1.000  O
  O37      1.0000 0.24980  0.77900  0.96690  Biso   1.000  O
  O38      1.0000 0.25020  0.72100  0.46690  Biso   1.000  O
  O39      1.0000 0.22100  0.74980  0.21690  Biso   1.000  O
  O40      1.0000 0.27900  0.75020  0.71690  Biso   1.000  O
  C113     1.0000 0.22530  0.22650  0.09180  Biso   1.000  C
  C114     1.0000 0.27470  0.27350  0.59180  Biso   1.000  C
  C115     1.0000 0.77350  0.72530  0.34180  Biso   1.000  C
  C116     1.0000 0.72650  0.77470  0.84180  Biso   1.000  C
  C117     1.0000 0.72530  0.72650  0.59180  Biso   1.000  C
  C118     1.0000 0.77470  0.77350  0.09180  Biso   1.000  C
  C119     1.0000 0.27350  0.22530  0.84180  Biso   1.000  C
  C120     1.0000 0.22650  0.27470  0.34180  Biso   1.000  C
  C121     1.0000 0.30360  0.20990  0.10480  Biso   1.000  C
  C122     1.0000 0.19640  0.29010  0.60480  Biso   1.000  C
  C123     1.0000 0.79010  0.80360  0.35480  Biso   1.000  C
  C124     1.0000 0.70990  0.69640  0.85480  Biso   1.000  C
  C125     1.0000 0.80360  0.70990  0.60480  Biso   1.000  C
  C126     1.0000 0.69640  0.79010  0.10480  Biso   1.000  C
  C127     1.0000 0.29010  0.30360  0.85480  Biso   1.000  C
  C128     1.0000 0.20990  0.19640  0.35480  Biso   1.000  C
  H65      1.0000 0.31950  0.15550  0.11460  Biso   1.000  H
  H66      1.0000 0.18050  0.34450  0.61460  Biso   1.000  H
  H67      1.0000 0.84450  0.81950  0.36460  Biso   1.000  H
  H68      1.0000 0.65550  0.68050  0.86460  Biso   1.000  H
  H69      1.0000 0.81950  0.65550  0.61460  Biso   1.000  H
  H70      1.0000 0.68050  0.84450  0.11460  Biso   1.000  H
  H71      1.0000 0.34450  0.31950  0.86460  Biso   1.000  H
  H72      1.0000 0.15550  0.18050  0.36460  Biso   1.000  H
  C129     1.0000 0.20970  0.30400  0.07500  Biso   1.000  C
  C130     1.0000 0.29030  0.19600  0.57500  Biso   1.000  C
  C131     1.0000 0.69600  0.70970  0.32500  Biso   1.000  C
  C132     1.0000 0.80400  0.79030  0.82500  Biso   1.000  C
  C133     1.0000 0.70970  0.80400  0.57500  Biso   1.000  C
  C134     1.0000 0.79030  0.69600  0.07500  Biso   1.000  C
  C135     1.0000 0.19600  0.20970  0.82500  Biso   1.000  C
  C136     1.0000 0.30400  0.29030  0.32500  Biso   1.000  C
  H73      1.0000 0.15600  0.31960  0.06160  Biso   1.000  H
  H74      1.0000 0.34400  0.18040  0.56160  Biso   1.000  H
  H75      1.0000 0.68040  0.65600  0.31160  Biso   1.000  H
  H76      1.0000 0.81960  0.84400  0.81160  Biso   1.000  H
  H77      1.0000 0.65600  0.81960  0.56160  Biso   1.000  H
  H78      1.0000 0.84400  0.68040  0.06160  Biso   1.000  H
  H79      1.0000 0.18040  0.15600  0.81160  Biso   1.000  H
  H80      1.0000 0.31960  0.34400  0.31160  Biso   1.000  H
  C137     1.0000 0.36340  0.27160  0.10420  Biso   1.000  C
  C138     1.0000 0.13660  0.22840  0.60420  Biso   1.000  C
  C139     1.0000 0.72840  0.86340  0.35420  Biso   1.000  C
  C140     1.0000 0.77160  0.63660  0.85420  Biso   1.000  C
  C141     1.0000 0.86340  0.77160  0.60420  Biso   1.000  C
  C142     1.0000 0.63660  0.72840  0.10420  Biso   1.000  C
  C143     1.0000 0.22840  0.36340  0.85420  Biso   1.000  C
  C144     1.0000 0.27160  0.13660  0.35420  Biso   1.000  C
  H81      1.0000 0.41810  0.25650  0.11330  Biso   1.000  H
  H82      1.0000 0.08190  0.24350  0.61330  Biso   1.000  H
  H83      1.0000 0.74350  0.91810  0.36330  Biso   1.000  H
  H84      1.0000 0.75650  0.58190  0.86330  Biso   1.000  H
  H85      1.0000 0.91810  0.75650  0.61330  Biso   1.000  H
  H86      1.0000 0.58190  0.74350  0.11330  Biso   1.000  H
  H87      1.0000 0.24350  0.41810  0.86330  Biso   1.000  H
  H88      1.0000 0.25650  0.08190  0.36330  Biso   1.000  H
  C145     1.0000 0.27180  0.36370  0.07680  Biso   1.000  C
  C146     1.0000 0.22820  0.13630  0.57680  Biso   1.000  C
  C147     1.0000 0.63630  0.77180  0.32680  Biso   1.000  C
  C148     1.0000 0.86370  0.72820  0.82680  Biso   1.000  C
  C149     1.0000 0.77180  0.86370  0.57680  Biso   1.000  C
  C150     1.0000 0.72820  0.63630  0.07680  Biso   1.000  C
  C151     1.0000 0.13630  0.27180  0.82680  Biso   1.000  C
  C152     1.0000 0.36370  0.22820  0.32680  Biso   1.000  C
  H89      1.0000 0.25720  0.41830  0.06640  Biso   1.000  H
  H90      1.0000 0.24280  0.08170  0.56640  Biso   1.000  H
  H91      1.0000 0.58170  0.75720  0.31640  Biso   1.000  H
  H92      1.0000 0.91830  0.74280  0.81640  Biso   1.000  H
  H93      1.0000 0.75720  0.91830  0.56640  Biso   1.000  H
  H94      1.0000 0.74280  0.58170  0.06640  Biso   1.000  H
  H95      1.0000 0.08170  0.25720  0.81640  Biso   1.000  H
  H96      1.0000 0.41830  0.24280  0.31640  Biso   1.000  H
  C153     1.0000 0.12650  0.12650  0.09400  Biso   1.000  C
  C154     1.0000 0.37350  0.37350  0.59400  Biso   1.000  C
  C155     1.0000 0.87350  0.62650  0.34400  Biso   1.000  C
  C156     1.0000 0.62650  0.87350  0.84400  Biso   1.000  C
  C157     1.0000 0.62650  0.62650  0.59400  Biso   1.000  C
  C158     1.0000 0.87350  0.87350  0.09400  Biso   1.000  C
  C159     1.0000 0.37350  0.12650  0.84400  Biso   1.000  C
  C160     1.0000 0.12650  0.37350  0.34400  Biso   1.000  C
  C161     1.0000 0.16060  0.16070  0.09240  Biso   1.000  C
  C162     1.0000 0.33940  0.33930  0.59240  Biso   1.000  C
  C163     1.0000 0.83930  0.66060  0.34240  Biso   1.000  C
  C164     1.0000 0.66070  0.83940  0.84240  Biso   1.000  C
  C165     1.0000 0.66060  0.66070  0.59240  Biso   1.000  C
  C166     1.0000 0.83940  0.83930  0.09240  Biso   1.000  C
  C167     1.0000 0.33930  0.16060  0.84240  Biso   1.000  C
  C168     1.0000 0.16070  0.33940  0.34240  Biso   1.000  C
  C169     1.0000 0.03900  0.02100  0.11100  Biso   1.000  C
  C170     1.0000 0.46100  0.47900  0.61100  Biso   1.000  C
  C171     1.0000 0.97900  0.53900  0.36100  Biso   1.000  C
  C172     1.0000 0.52100  0.96100  0.86100  Biso   1.000  C
  C173     1.0000 0.53900  0.52100  0.61100  Biso   1.000  C
  C174     1.0000 0.96100  0.97900  0.11100  Biso   1.000  C
  C175     1.0000 0.47900  0.03900  0.86100  Biso   1.000  C
  C176     1.0000 0.02100  0.46100  0.36100  Biso   1.000  C
  C177     1.0000 0.06230  0.05600  0.07400  Biso   1.000  C
  C178     1.0000 0.43770  0.44400  0.57400  Biso   1.000  C
  C179     1.0000 0.94400  0.56230  0.32400  Biso   1.000  C
  C180     1.0000 0.55600  0.93770  0.82400  Biso   1.000  C
  C181     1.0000 0.56230  0.55600  0.57400  Biso   1.000  C
  C182     1.0000 0.93770  0.94400  0.07400  Biso   1.000  C
  C183     1.0000 0.44400  0.06230  0.82400  Biso   1.000  C
  C184     1.0000 0.05600  0.43770  0.32400  Biso   1.000  C
  C185     1.0000 0.01220  0.05860  0.15600  Biso   1.000  C
  C186     1.0000 0.48780  0.44140  0.65600  Biso   1.000  C
  C187     1.0000 0.94140  0.51220  0.40600  Biso   1.000  C
  C188     1.0000 0.55860  0.98780  0.90600  Biso   1.000  C
  C189     1.0000 0.51220  0.55860  0.65600  Biso   1.000  C
  C190     1.0000 0.98780  0.94140  0.15600  Biso   1.000  C
  C191     1.0000 0.44140  0.01220  0.90600  Biso   1.000  C
  C192     1.0000 0.05860  0.48780  0.40600  Biso   1.000  C
