data_image0
_cell_length_a       25.973
_cell_length_b       6.7789
_cell_length_c       27.596
_cell_angle_alpha    90
_cell_angle_beta     107.919
_cell_angle_gamma    90

_symmetry_space_group_name_H-M    "P 1"
_symmetry_int_tables_number       1

loop_
  _symmetry_equiv_pos_as_xyz
  'x, y, z'

loop_
  _atom_site_label
  _atom_site_occupancy
  _atom_site_fract_x
  _atom_site_fract_y
  _atom_site_fract_z
  _atom_site_thermal_displace_type
  _atom_site_B_iso_or_equiv
  _atom_site_type_symbol
  O1       1.0000 0.06679  0.50250  0.41926  Biso   1.000  O
  O2       1.0000 0.93321  0.50250  0.08074  Biso   1.000  O
  O3       1.0000 0.56679  0.00250  0.41926  Biso   1.000  O
  O4       1.0000 0.43321  0.00250  0.08074  Biso   1.000  O
  O5       1.0000 0.93321  0.49750  0.58074  Biso   1.000  O
  O6       1.0000 0.06679  0.49750  0.91926  Biso   1.000  O
  O7       1.0000 0.43321  0.99750  0.58074  Biso   1.000  O
  O8       1.0000 0.56679  0.99750  0.91926  Biso   1.000  O
  S1       1.0000 0.08187  0.68740  0.40031  Biso   1.000  S
  S2       1.0000 0.91813  0.68740  0.09969  Biso   1.000  S
  S3       1.0000 0.58187  0.18740  0.40031  Biso   1.000  S
  S4       1.0000 0.41813  0.18740  0.09969  Biso   1.000  S
  S5       1.0000 0.91813  0.31260  0.59969  Biso   1.000  S
  S6       1.0000 0.08187  0.31260  0.90031  Biso   1.000  S
  S7       1.0000 0.41813  0.81260  0.59969  Biso   1.000  S
  S8       1.0000 0.58187  0.81260  0.90031  Biso   1.000  S
  O9       1.0000 0.14060  0.69790  0.40916  Biso   1.000  O
  O10      1.0000 0.85940  0.69790  0.09084  Biso   1.000  O
  O11      1.0000 0.64060  0.19790  0.40916  Biso   1.000  O
  O12      1.0000 0.35940  0.19790  0.09084  Biso   1.000  O
  O13      1.0000 0.85940  0.30210  0.59084  Biso   1.000  O
  O14      1.0000 0.14060  0.30210  0.90916  Biso   1.000  O
  O15      1.0000 0.35940  0.80210  0.59084  Biso   1.000  O
  O16      1.0000 0.64060  0.80210  0.90916  Biso   1.000  O
  O17      1.0000 0.05504  0.69830  0.34385  Biso   1.000  O
  O18      1.0000 0.94496  0.69830  0.15615  Biso   1.000  O
  O19      1.0000 0.55504  0.19830  0.34385  Biso   1.000  O
  O20      1.0000 0.44496  0.19830  0.15615  Biso   1.000  O
  O21      1.0000 0.94496  0.30170  0.65615  Biso   1.000  O
  O22      1.0000 0.05504  0.30170  0.84385  Biso   1.000  O
  O23      1.0000 0.44496  0.80170  0.65615  Biso   1.000  O
  O24      1.0000 0.55504  0.80170  0.84385  Biso   1.000  O
  O25      1.0000 0.06341  0.85720  0.42434  Biso   1.000  O
  O26      1.0000 0.93659  0.85720  0.07566  Biso   1.000  O
  O27      1.0000 0.56341  0.35720  0.42434  Biso   1.000  O
  O28      1.0000 0.43659  0.35720  0.07566  Biso   1.000  O
  O29      1.0000 0.93659  0.14280  0.57566  Biso   1.000  O
  O30      1.0000 0.06341  0.14280  0.92434  Biso   1.000  O
  O31      1.0000 0.43659  0.64280  0.57566  Biso   1.000  O
  O32      1.0000 0.56341  0.64280  0.92434  Biso   1.000  O
  O33      1.0000 0.99451  0.39600  0.29726  Biso   1.000  O
  O34      1.0000 0.00549  0.39600  0.20274  Biso   1.000  O
  O35      1.0000 0.49451  0.89600  0.29726  Biso   1.000  O
  O36      1.0000 0.50549  0.89600  0.20274  Biso   1.000  O
  O37      1.0000 0.00549  0.60400  0.70274  Biso   1.000  O
  O38      1.0000 0.99451  0.60400  0.79726  Biso   1.000  O
  O39      1.0000 0.50549  0.10400  0.70274  Biso   1.000  O
  O40      1.0000 0.49451  0.10400  0.79726  Biso   1.000  O
  Cu1      1.0000 0.90351  0.94376  0.28373  Biso   1.000  Cu
  Cu2      1.0000 0.09649  0.94376  0.21627  Biso   1.000  Cu
  Cu3      1.0000 0.40351  0.44376  0.28373  Biso   1.000  Cu
  Cu4      1.0000 0.59649  0.44376  0.21627  Biso   1.000  Cu
  Cu5      1.0000 0.09649  0.05624  0.71627  Biso   1.000  Cu
  Cu6      1.0000 0.90351  0.05624  0.78373  Biso   1.000  Cu
  Cu7      1.0000 0.59649  0.55624  0.71627  Biso   1.000  Cu
  Cu8      1.0000 0.40351  0.55624  0.78373  Biso   1.000  Cu
  Cu9      1.0000 0.90357  0.43969  0.28359  Biso   1.000  Cu
  Cu10     1.0000 0.09643  0.43969  0.21641  Biso   1.000  Cu
  Cu11     1.0000 0.40357  0.93969  0.28359  Biso   1.000  Cu
  Cu12     1.0000 0.59643  0.93969  0.21641  Biso   1.000  Cu
  Cu13     1.0000 0.09643  0.56031  0.71641  Biso   1.000  Cu
  Cu14     1.0000 0.90357  0.56031  0.78359  Biso   1.000  Cu
  Cu15     1.0000 0.59643  0.06031  0.71641  Biso   1.000  Cu
  Cu16     1.0000 0.40357  0.06031  0.78359  Biso   1.000  Cu
  N1       1.0000 0.87899  0.29240  0.21782  Biso   1.000  N
  N2       1.0000 0.12101  0.29240  0.28218  Biso   1.000  N
  N3       1.0000 0.37899  0.79240  0.21782  Biso   1.000  N
  N4       1.0000 0.62101  0.79240  0.28218  Biso   1.000  N
  N5       1.0000 0.12101  0.70760  0.78218  Biso   1.000  N
  N6       1.0000 0.87899  0.70760  0.71782  Biso   1.000  N
  N7       1.0000 0.62101  0.20760  0.78218  Biso   1.000  N
  N8       1.0000 0.37899  0.20760  0.71782  Biso   1.000  N
  N9       1.0000 0.85552  0.19000  0.13941  Biso   1.000  N
  N10      1.0000 0.14448  0.19000  0.36059  Biso   1.000  N
  N11      1.0000 0.35552  0.69000  0.13941  Biso   1.000  N
  N12      1.0000 0.64448  0.69000  0.36059  Biso   1.000  N
  N13      1.0000 0.14448  0.81000  0.86059  Biso   1.000  N
  N14      1.0000 0.85552  0.81000  0.63941  Biso   1.000  N
  N15      1.0000 0.64448  0.31000  0.86059  Biso   1.000  N
  N16      1.0000 0.35552  0.31000  0.63941  Biso   1.000  N
  N17      1.0000 0.87881  0.08760  0.21799  Biso   1.000  N
  N18      1.0000 0.12119  0.08760  0.28201  Biso   1.000  N
  N19      1.0000 0.37881  0.58760  0.21799  Biso   1.000  N
  N20      1.0000 0.62119  0.58760  0.28201  Biso   1.000  N
  N21      1.0000 0.12119  0.91240  0.78201  Biso   1.000  N
  N22      1.0000 0.87881  0.91240  0.71799  Biso   1.000  N
  N23      1.0000 0.62119  0.41240  0.78201  Biso   1.000  N
  N24      1.0000 0.37881  0.41240  0.71799  Biso   1.000  N
  C1       1.0000 0.86520  0.34850  0.17070  Biso   1.000  C
  C2       1.0000 0.13480  0.34850  0.32930  Biso   1.000  C
  C3       1.0000 0.36520  0.84850  0.17070  Biso   1.000  C
  C4       1.0000 0.63480  0.84850  0.32930  Biso   1.000  C
  C5       1.0000 0.13480  0.65150  0.82930  Biso   1.000  C
  C6       1.0000 0.86520  0.65150  0.67070  Biso   1.000  C
  C7       1.0000 0.63480  0.15150  0.82930  Biso   1.000  C
  C8       1.0000 0.36520  0.15150  0.67070  Biso   1.000  C
  H1       1.0000 0.86250  0.47920  0.15990  Biso   1.000  H
  H2       1.0000 0.13750  0.47920  0.34010  Biso   1.000  H
  H3       1.0000 0.36250  0.97920  0.15990  Biso   1.000  H
  H4       1.0000 0.63750  0.97920  0.34010  Biso   1.000  H
  H5       1.0000 0.13750  0.52080  0.84010  Biso   1.000  H
  H6       1.0000 0.86250  0.52080  0.65990  Biso   1.000  H
  H7       1.0000 0.63750  0.02080  0.84010  Biso   1.000  H
  H8       1.0000 0.36250  0.02080  0.65990  Biso   1.000  H
  C9       1.0000 0.86410  0.03270  0.17030  Biso   1.000  C
  C10      1.0000 0.13590  0.03270  0.32970  Biso   1.000  C
  C11      1.0000 0.36410  0.53270  0.17030  Biso   1.000  C
  C12      1.0000 0.63590  0.53270  0.32970  Biso   1.000  C
  C13      1.0000 0.13590  0.96730  0.82970  Biso   1.000  C
  C14      1.0000 0.86410  0.96730  0.67030  Biso   1.000  C
  C15      1.0000 0.63590  0.46730  0.82970  Biso   1.000  C
  C16      1.0000 0.36410  0.46730  0.67030  Biso   1.000  C
  H9       1.0000 0.86000  0.90230  0.15930  Biso   1.000  H
  H10      1.0000 0.14000  0.90230  0.34070  Biso   1.000  H
  H11      1.0000 0.36000  0.40230  0.15930  Biso   1.000  H
  H12      1.0000 0.64000  0.40230  0.34070  Biso   1.000  H
  H13      1.0000 0.14000  0.09770  0.84070  Biso   1.000  H
  H14      1.0000 0.86000  0.09770  0.65930  Biso   1.000  H
  H15      1.0000 0.64000  0.59770  0.84070  Biso   1.000  H
  H16      1.0000 0.36000  0.59770  0.65930  Biso   1.000  H
  C17      1.0000 0.74730  0.36720  0.06260  Biso   1.000  C
  C18      1.0000 0.25270  0.36720  0.43740  Biso   1.000  C
  C19      1.0000 0.24730  0.86720  0.06260  Biso   1.000  C
  C20      1.0000 0.75270  0.86720  0.43740  Biso   1.000  C
  C21      1.0000 0.25270  0.63280  0.93740  Biso   1.000  C
  C22      1.0000 0.74730  0.63280  0.56260  Biso   1.000  C
  C23      1.0000 0.75270  0.13280  0.93740  Biso   1.000  C
  C24      1.0000 0.24730  0.13280  0.56260  Biso   1.000  C
  H17      1.0000 0.76660  0.48480  0.07020  Biso   1.000  H
  H18      1.0000 0.23340  0.48480  0.42980  Biso   1.000  H
  H19      1.0000 0.26660  0.98480  0.07020  Biso   1.000  H
  H20      1.0000 0.73340  0.98480  0.42980  Biso   1.000  H
  H21      1.0000 0.23340  0.51520  0.92980  Biso   1.000  H
  H22      1.0000 0.76660  0.51520  0.57020  Biso   1.000  H
  H23      1.0000 0.73340  0.01520  0.92980  Biso   1.000  H
  H24      1.0000 0.26660  0.01520  0.57020  Biso   1.000  H
  C25      1.0000 0.83570  0.18780  0.08295  Biso   1.000  C
  C26      1.0000 0.16430  0.18780  0.41705  Biso   1.000  C
  C27      1.0000 0.33570  0.68780  0.08295  Biso   1.000  C
  C28      1.0000 0.66430  0.68780  0.41705  Biso   1.000  C
  C29      1.0000 0.16430  0.81220  0.91705  Biso   1.000  C
  C30      1.0000 0.83570  0.81220  0.58295  Biso   1.000  C
  C31      1.0000 0.66430  0.31220  0.91705  Biso   1.000  C
  C32      1.0000 0.33570  0.31220  0.58295  Biso   1.000  C
  H25      1.0000 0.84860  0.07010  0.07040  Biso   1.000  H
  H26      1.0000 0.15140  0.07010  0.42960  Biso   1.000  H
  H27      1.0000 0.34860  0.57010  0.07040  Biso   1.000  H
  H28      1.0000 0.65140  0.57010  0.42960  Biso   1.000  H
  H29      1.0000 0.15140  0.92990  0.92960  Biso   1.000  H
  H30      1.0000 0.84860  0.92990  0.57040  Biso   1.000  H
  H31      1.0000 0.65140  0.42990  0.92960  Biso   1.000  H
  H32      1.0000 0.34860  0.42990  0.57040  Biso   1.000  H
  H33      1.0000 0.84960  0.30180  0.06980  Biso   1.000  H
  H34      1.0000 0.15040  0.30180  0.43020  Biso   1.000  H
  H35      1.0000 0.34960  0.80180  0.06980  Biso   1.000  H
  H36      1.0000 0.65040  0.80180  0.43020  Biso   1.000  H
  H37      1.0000 0.15040  0.69820  0.93020  Biso   1.000  H
  H38      1.0000 0.84960  0.69820  0.56980  Biso   1.000  H
  H39      1.0000 0.65040  0.19820  0.93020  Biso   1.000  H
  H40      1.0000 0.34960  0.19820  0.56980  Biso   1.000  H
  C33      1.0000 0.74590  0.01640  0.05230  Biso   1.000  C
  C34      1.0000 0.25410  0.01640  0.44770  Biso   1.000  C
  C35      1.0000 0.24590  0.51640  0.05230  Biso   1.000  C
  C36      1.0000 0.75410  0.51640  0.44770  Biso   1.000  C
  C37      1.0000 0.25410  0.98360  0.94770  Biso   1.000  C
  C38      1.0000 0.74590  0.98360  0.55230  Biso   1.000  C
  C39      1.0000 0.75410  0.48360  0.94770  Biso   1.000  C
  C40      1.0000 0.24590  0.48360  0.55230  Biso   1.000  C
  H41      1.0000 0.76440  0.89790  0.05360  Biso   1.000  H
  H42      1.0000 0.23560  0.89790  0.44640  Biso   1.000  H
  H43      1.0000 0.26440  0.39790  0.05360  Biso   1.000  H
  H44      1.0000 0.73560  0.39790  0.44640  Biso   1.000  H
  H45      1.0000 0.23560  0.10210  0.94640  Biso   1.000  H
  H46      1.0000 0.76440  0.10210  0.55360  Biso   1.000  H
  H47      1.0000 0.73560  0.60210  0.94640  Biso   1.000  H
  H48      1.0000 0.26440  0.60210  0.55360  Biso   1.000  H
  C41      1.0000 0.77470  0.19140  0.06480  Biso   1.000  C
  C42      1.0000 0.22530  0.19140  0.43520  Biso   1.000  C
  C43      1.0000 0.27470  0.69140  0.06480  Biso   1.000  C
  C44      1.0000 0.72530  0.69140  0.43520  Biso   1.000  C
  C45      1.0000 0.22530  0.80860  0.93520  Biso   1.000  C
  C46      1.0000 0.77470  0.80860  0.56480  Biso   1.000  C
  C47      1.0000 0.72530  0.30860  0.93520  Biso   1.000  C
  C48      1.0000 0.27470  0.30860  0.56480  Biso   1.000  C
  C49      1.0000 0.69040  0.01730  0.03810  Biso   1.000  C
  C50      1.0000 0.30960  0.01730  0.46190  Biso   1.000  C
  C51      1.0000 0.19040  0.51730  0.03810  Biso   1.000  C
  C52      1.0000 0.80960  0.51730  0.46190  Biso   1.000  C
  C53      1.0000 0.30960  0.98270  0.96190  Biso   1.000  C
  C54      1.0000 0.69040  0.98270  0.53810  Biso   1.000  C
  C55      1.0000 0.80960  0.48270  0.96190  Biso   1.000  C
  C56      1.0000 0.19040  0.48270  0.53810  Biso   1.000  C
  H49      1.0000 0.67130  0.89990  0.02890  Biso   1.000  H
  H50      1.0000 0.32870  0.89990  0.47110  Biso   1.000  H
  H51      1.0000 0.17130  0.39990  0.02890  Biso   1.000  H
  H52      1.0000 0.82870  0.39990  0.47110  Biso   1.000  H
  H53      1.0000 0.32870  0.10010  0.97110  Biso   1.000  H
  H54      1.0000 0.67130  0.10010  0.52890  Biso   1.000  H
  H55      1.0000 0.82870  0.60010  0.97110  Biso   1.000  H
  H56      1.0000 0.17130  0.60010  0.52890  Biso   1.000  H
  C57      1.0000 0.69110  0.36930  0.04900  Biso   1.000  C
  C58      1.0000 0.30890  0.36930  0.45100  Biso   1.000  C
  C59      1.0000 0.19110  0.86930  0.04900  Biso   1.000  C
  C60      1.0000 0.80890  0.86930  0.45100  Biso   1.000  C
  C61      1.0000 0.30890  0.63070  0.95100  Biso   1.000  C
  C62      1.0000 0.69110  0.63070  0.54900  Biso   1.000  C
  C63      1.0000 0.80890  0.13070  0.95100  Biso   1.000  C
  C64      1.0000 0.19110  0.13070  0.54900  Biso   1.000  C
  H57      1.0000 0.67290  0.48810  0.04770  Biso   1.000  H
  H58      1.0000 0.32710  0.48810  0.45230  Biso   1.000  H
  H59      1.0000 0.17290  0.98810  0.04770  Biso   1.000  H
  H60      1.0000 0.82710  0.98810  0.45230  Biso   1.000  H
  H61      1.0000 0.32710  0.51190  0.95230  Biso   1.000  H
  H62      1.0000 0.67290  0.51190  0.54770  Biso   1.000  H
  H63      1.0000 0.82710  0.01190  0.95230  Biso   1.000  H
  H64      1.0000 0.17290  0.01190  0.54770  Biso   1.000  H
  N25      1.0000 0.59217  0.29330  0.15340  Biso   1.000  N
  N26      1.0000 0.40783  0.29330  0.34660  Biso   1.000  N
  N27      1.0000 0.09217  0.79330  0.15340  Biso   1.000  N
  N28      1.0000 0.90783  0.79330  0.34660  Biso   1.000  N
  N29      1.0000 0.40783  0.70670  0.84660  Biso   1.000  N
  N30      1.0000 0.59217  0.70670  0.65340  Biso   1.000  N
  N31      1.0000 0.90783  0.20670  0.84660  Biso   1.000  N
  N32      1.0000 0.09217  0.20670  0.65340  Biso   1.000  N
  N33      1.0000 0.59262  0.19140  0.07852  Biso   1.000  N
  N34      1.0000 0.40738  0.19140  0.42148  Biso   1.000  N
  N35      1.0000 0.09262  0.69140  0.07852  Biso   1.000  N
  N36      1.0000 0.90738  0.69140  0.42148  Biso   1.000  N
  N37      1.0000 0.40738  0.80860  0.92148  Biso   1.000  N
  N38      1.0000 0.59262  0.80860  0.57852  Biso   1.000  N
  N39      1.0000 0.90738  0.30860  0.92148  Biso   1.000  N
  N40      1.0000 0.09262  0.30860  0.57852  Biso   1.000  N
  C65      1.0000 0.60240  0.19510  0.02830  Biso   1.000  C
  C66      1.0000 0.39760  0.19510  0.47170  Biso   1.000  C
  C67      1.0000 0.10240  0.69510  0.02830  Biso   1.000  C
  C68      1.0000 0.89760  0.69510  0.47170  Biso   1.000  C
  C69      1.0000 0.39760  0.80490  0.97170  Biso   1.000  C
  C70      1.0000 0.60240  0.80490  0.52830  Biso   1.000  C
  C71      1.0000 0.89760  0.30490  0.97170  Biso   1.000  C
  C72      1.0000 0.10240  0.30490  0.52830  Biso   1.000  C
  H65      1.0000 0.58660  0.31270  0.00960  Biso   1.000  H
  H66      1.0000 0.41340  0.31270  0.49040  Biso   1.000  H
  H67      1.0000 0.08660  0.81270  0.00960  Biso   1.000  H
  H68      1.0000 0.91340  0.81270  0.49040  Biso   1.000  H
  H69      1.0000 0.41340  0.68730  0.99040  Biso   1.000  H
  H70      1.0000 0.58660  0.68730  0.50960  Biso   1.000  H
  H71      1.0000 0.91340  0.18730  0.99040  Biso   1.000  H
  H72      1.0000 0.08660  0.18730  0.50960  Biso   1.000  H
  H73      1.0000 0.58610  0.08060  0.00840  Biso   1.000  H
  H74      1.0000 0.41390  0.08060  0.49160  Biso   1.000  H
  H75      1.0000 0.08610  0.58060  0.00840  Biso   1.000  H
  H76      1.0000 0.91390  0.58060  0.49160  Biso   1.000  H
  H77      1.0000 0.41390  0.91940  0.99160  Biso   1.000  H
  H78      1.0000 0.58610  0.91940  0.50840  Biso   1.000  H
  H79      1.0000 0.91390  0.41940  0.99160  Biso   1.000  H
  H80      1.0000 0.08610  0.41940  0.50840  Biso   1.000  H
  C73      1.0000 0.59240  0.35110  0.10770  Biso   1.000  C
  C74      1.0000 0.40760  0.35110  0.39230  Biso   1.000  C
  C75      1.0000 0.09240  0.85110  0.10770  Biso   1.000  C
  C76      1.0000 0.90760  0.85110  0.39230  Biso   1.000  C
  C77      1.0000 0.40760  0.64890  0.89230  Biso   1.000  C
  C78      1.0000 0.59240  0.64890  0.60770  Biso   1.000  C
  C79      1.0000 0.90760  0.14890  0.89230  Biso   1.000  C
  C80      1.0000 0.09240  0.14890  0.60770  Biso   1.000  C
  H81      1.0000 0.59250  0.48160  0.09730  Biso   1.000  H
  H82      1.0000 0.40750  0.48160  0.40270  Biso   1.000  H
  H83      1.0000 0.09250  0.98160  0.09730  Biso   1.000  H
  H84      1.0000 0.90750  0.98160  0.40270  Biso   1.000  H
  H85      1.0000 0.40750  0.51840  0.90270  Biso   1.000  H
  H86      1.0000 0.59250  0.51840  0.59730  Biso   1.000  H
  H87      1.0000 0.90750  0.01840  0.90270  Biso   1.000  H
  H88      1.0000 0.09250  0.01840  0.59730  Biso   1.000  H
  C81      1.0000 0.66230  0.19400  0.03731  Biso   1.000  C
  C82      1.0000 0.33770  0.19400  0.46269  Biso   1.000  C
  C83      1.0000 0.16230  0.69400  0.03731  Biso   1.000  C
  C84      1.0000 0.83770  0.69400  0.46269  Biso   1.000  C
  C85      1.0000 0.33770  0.80600  0.96269  Biso   1.000  C
  C86      1.0000 0.66230  0.80600  0.53731  Biso   1.000  C
  C87      1.0000 0.83770  0.30600  0.96269  Biso   1.000  C
  C88      1.0000 0.16230  0.30600  0.53731  Biso   1.000  C
  N41      1.0000 0.59350  0.08860  0.15348  Biso   1.000  N
  N42      1.0000 0.40650  0.08860  0.34652  Biso   1.000  N
  N43      1.0000 0.09350  0.58860  0.15348  Biso   1.000  N
  N44      1.0000 0.90650  0.58860  0.34652  Biso   1.000  N
  N45      1.0000 0.40650  0.91140  0.84652  Biso   1.000  N
  N46      1.0000 0.59350  0.91140  0.65348  Biso   1.000  N
  N47      1.0000 0.90650  0.41140  0.84652  Biso   1.000  N
  N48      1.0000 0.09350  0.41140  0.65348  Biso   1.000  N
  C89      1.0000 0.59390  0.03170  0.10850  Biso   1.000  C
  C90      1.0000 0.40610  0.03170  0.39150  Biso   1.000  C
  C91      1.0000 0.09390  0.53170  0.10850  Biso   1.000  C
  C92      1.0000 0.90610  0.53170  0.39150  Biso   1.000  C
  C93      1.0000 0.40610  0.96830  0.89150  Biso   1.000  C
  C94      1.0000 0.59390  0.96830  0.60850  Biso   1.000  C
  C95      1.0000 0.90610  0.46830  0.89150  Biso   1.000  C
  C96      1.0000 0.09390  0.46830  0.60850  Biso   1.000  C
  H89      1.0000 0.59490  0.90120  0.09840  Biso   1.000  H
  H90      1.0000 0.40510  0.90120  0.40160  Biso   1.000  H
  H91      1.0000 0.09490  0.40120  0.09840  Biso   1.000  H
  H92      1.0000 0.90510  0.40120  0.40160  Biso   1.000  H
  H93      1.0000 0.40510  0.09880  0.90160  Biso   1.000  H
  H94      1.0000 0.59490  0.09880  0.59840  Biso   1.000  H
  H95      1.0000 0.90510  0.59880  0.90160  Biso   1.000  H
  H96      1.0000 0.09490  0.59880  0.59840  Biso   1.000  H
  O41      1.0000 0.90246  0.19290  0.31875  Biso   1.000  O
  O42      1.0000 0.09754  0.19290  0.18125  Biso   1.000  O
  O43      1.0000 0.40246  0.69290  0.31875  Biso   1.000  O
  O44      1.0000 0.59754  0.69290  0.18125  Biso   1.000  O
  O45      1.0000 0.09754  0.80710  0.68125  Biso   1.000  O
  O46      1.0000 0.90246  0.80710  0.81875  Biso   1.000  O
  O47      1.0000 0.59754  0.30710  0.68125  Biso   1.000  O
  O48      1.0000 0.40246  0.30710  0.81875  Biso   1.000  O
  O49      1.0000 0.89887  0.69250  0.24929  Biso   1.000  O
  O50      1.0000 0.10113  0.69250  0.25071  Biso   1.000  O
  O51      1.0000 0.39887  0.19250  0.24929  Biso   1.000  O
  O52      1.0000 0.60113  0.19250  0.25071  Biso   1.000  O
  O53      1.0000 0.10113  0.30750  0.75071  Biso   1.000  O
  O54      1.0000 0.89887  0.30750  0.74929  Biso   1.000  O
  O55      1.0000 0.60113  0.80750  0.75071  Biso   1.000  O
  O56      1.0000 0.39887  0.80750  0.74929  Biso   1.000  O
  O57      1.0000 0.99386  0.99480  0.29667  Biso   1.000  O
  O58      1.0000 0.00614  0.99480  0.20333  Biso   1.000  O
  O59      1.0000 0.49386  0.49480  0.29667  Biso   1.000  O
  O60      1.0000 0.50614  0.49480  0.20333  Biso   1.000  O
  O61      1.0000 0.00614  0.00520  0.70333  Biso   1.000  O
  O62      1.0000 0.99386  0.00520  0.79667  Biso   1.000  O
  O63      1.0000 0.50614  0.50520  0.70333  Biso   1.000  O
  O64      1.0000 0.49386  0.50520  0.79667  Biso   1.000  O
