data_image0
_cell_length_a       11.3132
_cell_length_b       12.8735
_cell_length_c       18.2974
_cell_angle_alpha    71.69
_cell_angle_beta     82.91
_cell_angle_gamma    65.58

_symmetry_space_group_name_H-M    "P 1"
_symmetry_int_tables_number       1

loop_
  _symmetry_equiv_pos_as_xyz
  'x, y, z'

loop_
  _atom_site_label
  _atom_site_occupancy
  _atom_site_fract_x
  _atom_site_fract_y
  _atom_site_fract_z
  _atom_site_thermal_displace_type
  _atom_site_B_iso_or_equiv
  _atom_site_type_symbol
  Mo1      1.0000 0.12237  0.81541  0.34571  Biso   1.000  Mo
  Mo2      1.0000 0.87763  0.18459  0.65429  Biso   1.000  Mo
  Mo3      1.0000 0.35251  0.92698  0.28429  Biso   1.000  Mo
  Mo4      1.0000 0.64749  0.07302  0.71571  Biso   1.000  Mo
  Mo5      1.0000 0.14364  0.63228  0.23950  Biso   1.000  Mo
  Mo6      1.0000 0.85636  0.36772  0.76050  Biso   1.000  Mo
  Mo7      1.0000 0.40177  0.60329  0.12196  Biso   1.000  Mo
  Mo8      1.0000 0.59823  0.39671  0.87804  Biso   1.000  Mo
  Mo9      1.0000 0.57159  0.74099  0.16460  Biso   1.000  Mo
  Mo10     1.0000 0.42841  0.25901  0.83540  Biso   1.000  Mo
  Cu1      1.0000 0.76794  0.91604  0.37526  Biso   1.000  Cu
  Cu2      1.0000 0.23206  0.08396  0.62474  Biso   1.000  Cu
  Cu3      1.0000 0.22152  0.14022  0.12325  Biso   1.000  Cu
  Cu4      1.0000 0.77848  0.85978  0.87675  Biso   1.000  Cu
  P1       1.0000 0.42280  0.62100  0.30772  Biso   1.000  P
  P2       1.0000 0.57720  0.37900  0.69228  Biso   1.000  P
  P3       1.0000 0.21360  0.87890  0.14673  Biso   1.000  P
  P4       1.0000 0.78640  0.12110  0.85327  Biso   1.000  P
  O1       1.0000 0.95730  0.90270  0.33140  Biso   1.000  O
  O2       1.0000 0.04270  0.09730  0.66860  Biso   1.000  O
  O3       1.0000 0.14020  0.77360  0.44330  Biso   1.000  O
  O4       1.0000 0.85980  0.22640  0.55670  Biso   1.000  O
  O5       1.0000 0.13510  0.66820  0.33660  Biso   1.000  O
  O6       1.0000 0.86490  0.33180  0.66340  Biso   1.000  O
  O7       1.0000 0.13470  0.82610  0.21090  Biso   1.000  O
  O8       1.0000 0.86530  0.17390  0.78910  Biso   1.000  O
  O9       1.0000 0.17930  0.94360  0.31800  Biso   1.000  O
  O10      1.0000 0.82070  0.05640  0.68200  Biso   1.000  O
  O11      1.0000 0.33140  0.74570  0.31810  Biso   1.000  O
  O12      1.0000 0.66860  0.25430  0.68190  Biso   1.000  O
  O13      1.0000 0.98510  0.69450  0.21380  Biso   1.000  O
  O14      1.0000 0.01490  0.30550  0.78620  Biso   1.000  O
  O15      1.0000 0.17430  0.48420  0.27600  Biso   1.000  O
  O16      1.0000 0.82570  0.51580  0.72400  Biso   1.000  O
  O17      1.0000 0.21840  0.64370  0.14020  Biso   1.000  O
  O18      1.0000 0.78160  0.35630  0.85980  Biso   1.000  O
  O19      1.0000 0.36060  0.58650  0.25390  Biso   1.000  O
  O20      1.0000 0.63940  0.41350  0.74610  Biso   1.000  O
  O21      1.0000 0.45980  0.45200  0.14520  Biso   1.000  O
  O22      1.0000 0.54020  0.54800  0.85480  Biso   1.000  O
  O23      1.0000 0.39620  0.64910  0.02430  Biso   1.000  O
  O24      1.0000 0.60380  0.35090  0.97570  Biso   1.000  O
  O25      1.0000 0.34850  0.78440  0.13640  Biso   1.000  O
  O26      1.0000 0.65150  0.21560  0.86360  Biso   1.000  O
  O27      1.0000 0.56450  0.61600  0.13610  Biso   1.000  O
  O28      1.0000 0.43550  0.38400  0.86390  Biso   1.000  O
  O29      1.0000 0.55830  0.84620  0.07430  Biso   1.000  O
  O30      1.0000 0.44170  0.15380  0.92570  Biso   1.000  O
  O31      1.0000 0.73290  0.68830  0.18410  Biso   1.000  O
  O32      1.0000 0.26710  0.31170  0.81590  Biso   1.000  O
  O33      1.0000 0.48800  0.85450  0.22150  Biso   1.000  O
  O34      1.0000 0.51200  0.14550  0.77850  Biso   1.000  O
  O35      1.0000 0.55190  0.62400  0.27790  Biso   1.000  O
  O36      1.0000 0.44810  0.37600  0.72210  Biso   1.000  O
  O37      1.0000 0.23150  0.97840  0.16730  Biso   1.000  O
  O38      1.0000 0.76850  0.02160  0.83270  Biso   1.000  O
  O39      1.0000 0.32460  0.07510  0.24370  Biso   1.000  O
  O40      1.0000 0.67540  0.92490  0.75630  Biso   1.000  O
  O41      1.0000 0.43190  0.89000  0.36760  Biso   1.000  O
  O42      1.0000 0.56810  0.11000  0.63240  Biso   1.000  O
  O43      1.0000 0.38220  0.07750  0.06730  Biso   1.000  O
  O44      1.0000 0.61780  0.92250  0.93270  Biso   1.000  O
  O45      1.0000 0.87140  0.78080  0.05500  Biso   1.000  O
  O46      1.0000 0.12860  0.21920  0.94500  Biso   1.000  O
  N1       1.0000 0.70260  0.98310  0.27000  Biso   1.000  N
  N2       1.0000 0.29740  0.01690  0.73000  Biso   1.000  N
  N3       1.0000 0.61940  0.06700  0.38690  Biso   1.000  N
  N4       1.0000 0.38060  0.93300  0.61310  Biso   1.000  N
  N5       1.0000 0.84280  0.85950  0.47940  Biso   1.000  N
  N6       1.0000 0.15720  0.14050  0.52060  Biso   1.000  N
  N7       1.0000 0.79060  0.74130  0.40400  Biso   1.000  N
  N8       1.0000 0.20940  0.25870  0.59600  Biso   1.000  N
  N9       1.0000 0.20340  0.30940  0.08220  Biso   1.000  N
  N10      1.0000 0.79660  0.69060  0.91780  Biso   1.000  N
  N11      1.0000 0.04470  0.21680  0.16410  Biso   1.000  N
  N12      1.0000 0.95530  0.78320  0.83590  Biso   1.000  N
  C1       1.0000 0.75480  0.93520  0.21220  Biso   1.000  C
  C2       1.0000 0.24520  0.06480  0.78780  Biso   1.000  C
  H1       1.0000 0.81940  0.85850  0.22320  Biso   1.000  H
  H2       1.0000 0.18060  0.14150  0.77680  Biso   1.000  H
  C3       1.0000 0.71440  0.99760  0.13600  Biso   1.000  C
  C4       1.0000 0.28560  0.00240  0.86400  Biso   1.000  C
  H3       1.0000 0.74980  0.96130  0.09720  Biso   1.000  H
  H4       1.0000 0.25020  0.03870  0.90280  Biso   1.000  H
  C5       1.0000 0.62180  0.11380  0.11800  Biso   1.000  C
  C6       1.0000 0.37820  0.88620  0.88200  Biso   1.000  C
  H5       1.0000 0.59670  0.15790  0.06720  Biso   1.000  H
  H6       1.0000 0.40330  0.84210  0.93280  Biso   1.000  H
  C7       1.0000 0.56760  0.16190  0.17870  Biso   1.000  C
  C8       1.0000 0.43240  0.83810  0.82130  Biso   1.000  C
  H7       1.0000 0.50470  0.23940  0.16860  Biso   1.000  H
  H8       1.0000 0.49530  0.76060  0.83140  Biso   1.000  H
  C9       1.0000 0.60560  0.09670  0.25270  Biso   1.000  C
  C10      1.0000 0.39440  0.90330  0.74730  Biso   1.000  C
  C11      1.0000 0.55470  0.13870  0.32110  Biso   1.000  C
  C12      1.0000 0.44530  0.86130  0.67890  Biso   1.000  C
  C13      1.0000 0.44690  0.24250  0.31700  Biso   1.000  C
  C14      1.0000 0.55310  0.75750  0.68300  Biso   1.000  C
  H9       1.0000 0.40400  0.28970  0.27040  Biso   1.000  H
  H10      1.0000 0.59600  0.71030  0.72960  Biso   1.000  H
  C15      1.0000 0.40320  0.27540  0.38470  Biso   1.000  C
  C16      1.0000 0.59680  0.72460  0.61530  Biso   1.000  C
  H11      1.0000 0.33020  0.34480  0.38390  Biso   1.000  H
  H12      1.0000 0.66980  0.65520  0.61610  Biso   1.000  H
  C17      1.0000 0.46860  0.20480  0.45110  Biso   1.000  C
  C18      1.0000 0.53140  0.79520  0.54890  Biso   1.000  C
  H13      1.0000 0.44230  0.22640  0.49630  Biso   1.000  H
  H14      1.0000 0.55770  0.77360  0.50370  Biso   1.000  H
  C19      1.0000 0.57540  0.09960  0.45190  Biso   1.000  C
  C20      1.0000 0.42460  0.90040  0.54810  Biso   1.000  C
  H15      1.0000 0.61770  0.05030  0.49830  Biso   1.000  H
  H16      1.0000 0.38230  0.94970  0.50170  Biso   1.000  H
  C21      1.0000 0.87530  0.92240  0.51190  Biso   1.000  C
  C22      1.0000 0.12470  0.07760  0.48810  Biso   1.000  C
  H17      1.0000 0.86340  0.00010  0.48380  Biso   1.000  H
  H18      1.0000 0.13660  0.99990  0.51620  Biso   1.000  H
  C23      1.0000 0.92580  0.87880  0.58510  Biso   1.000  C
  C24      1.0000 0.07420  0.12120  0.41490  Biso   1.000  C
  H19      1.0000 0.94640  0.92620  0.60630  Biso   1.000  H
  H20      1.0000 0.05360  0.07380  0.39370  Biso   1.000  H
  C25      1.0000 0.94520  0.76390  0.62630  Biso   1.000  C
  C26      1.0000 0.05480  0.23610  0.37370  Biso   1.000  C
  H21      1.0000 0.97680  0.73310  0.67650  Biso   1.000  H
  H22      1.0000 0.02320  0.26690  0.32350  Biso   1.000  H
  C27      1.0000 0.91780  0.69420  0.59320  Biso   1.000  C
  C28      1.0000 0.08220  0.30580  0.40680  Biso   1.000  C
  H23      1.0000 0.93390  0.61510  0.62000  Biso   1.000  H
  H24      1.0000 0.06610  0.38490  0.38000  Biso   1.000  H
  C29      1.0000 0.86520  0.74390  0.51870  Biso   1.000  C
  C30      1.0000 0.13480  0.25610  0.48130  Biso   1.000  C
  C31      1.0000 0.83530  0.67730  0.47680  Biso   1.000  C
  C32      1.0000 0.16470  0.32270  0.52320  Biso   1.000  C
  C33      1.0000 0.84820  0.56020  0.50710  Biso   1.000  C
  C34      1.0000 0.15180  0.43980  0.49290  Biso   1.000  C
  H25      1.0000 0.87540  0.51850  0.55790  Biso   1.000  H
  H26      1.0000 0.12460  0.48150  0.44210  Biso   1.000  H
  C35      1.0000 0.82050  0.50610  0.46170  Biso   1.000  C
  C36      1.0000 0.17950  0.49390  0.53830  Biso   1.000  C
  H27      1.0000 0.82880  0.42740  0.48130  Biso   1.000  H
  H28      1.0000 0.17120  0.57260  0.51870  Biso   1.000  H
  C37      1.0000 0.78060  0.56880  0.38740  Biso   1.000  C
  C38      1.0000 0.21940  0.43120  0.61260  Biso   1.000  C
  H29      1.0000 0.76480  0.53260  0.35520  Biso   1.000  H
  H30      1.0000 0.23520  0.46740  0.64480  Biso   1.000  H
  C39      1.0000 0.76410  0.68630  0.36110  Biso   1.000  C
  C40      1.0000 0.23590  0.31370  0.63890  Biso   1.000  C
  H31      1.0000 0.73320  0.72950  0.31120  Biso   1.000  H
  H32      1.0000 0.26680  0.27050  0.68880  Biso   1.000  H
  C41      1.0000 0.28690  0.34960  0.03920  Biso   1.000  C
  C42      1.0000 0.71310  0.65040  0.96080  Biso   1.000  C
  H33      1.0000 0.36270  0.29420  0.02520  Biso   1.000  H
  H34      1.0000 0.63730  0.70580  0.97480  Biso   1.000  H
  C43      1.0000 0.26970  0.46700  0.01370  Biso   1.000  C
  C44      1.0000 0.73030  0.53300  0.98630  Biso   1.000  C
  H35      1.0000 0.33270  0.49090  0.98510  Biso   1.000  H
  H36      1.0000 0.66730  0.50910  0.01490  Biso   1.000  H
  C45      1.0000 0.15250  0.54940  0.03300  Biso   1.000  C
  C46      1.0000 0.84750  0.45060  0.96700  Biso   1.000  C
  H37      1.0000 0.13380  0.63070  0.01540  Biso   1.000  H
  H38      1.0000 0.86620  0.36930  0.98460  Biso   1.000  H
  C47      1.0000 0.06570  0.50820  0.07840  Biso   1.000  C
  C48      1.0000 0.93430  0.49180  0.92160  Biso   1.000  C
  H39      1.0000 0.98970  0.56160  0.09380  Biso   1.000  H
  H40      1.0000 0.01030  0.43840  0.90620  Biso   1.000  H
  C49      1.0000 0.00000  0.33800  0.14700  Biso   1.000  C
  C50      1.0000 0.00000  0.66200  0.85300  Biso   1.000  C
  C51      1.0000 0.87760  0.40410  0.17110  Biso   1.000  C
  C52      1.0000 0.12240  0.59590  0.82890  Biso   1.000  C
  H41      1.0000 0.84830  0.48650  0.15910  Biso   1.000  H
  H42      1.0000 0.15170  0.51350  0.84090  Biso   1.000  H
  C53      1.0000 0.79980  0.34700  0.21280  Biso   1.000  C
  C54      1.0000 0.20020  0.65300  0.78720  Biso   1.000  C
  H43      1.0000 0.71770  0.39030  0.22860  Biso   1.000  H
  H44      1.0000 0.28230  0.60970  0.77140  Biso   1.000  H
  C55      1.0000 0.84620  0.22580  0.23030  Biso   1.000  C
  C56      1.0000 0.15380  0.77420  0.76970  Biso   1.000  C
  H45      1.0000 0.79570  0.18560  0.25870  Biso   1.000  H
  H46      1.0000 0.20430  0.81440  0.74130  Biso   1.000  H
  C57      1.0000 0.96830  0.16260  0.20570  Biso   1.000  C
  C58      1.0000 0.03170  0.83740  0.79430  Biso   1.000  C
  H47      1.0000 0.99860  0.08000  0.21840  Biso   1.000  H
  H48      1.0000 0.00140  0.92000  0.78160  Biso   1.000  H
  C59      1.0000 0.44600  0.51460  0.39940  Biso   1.000  C
  C60      1.0000 0.55400  0.48540  0.60060  Biso   1.000  C
  H49      1.0000 0.36840  0.49830  0.41260  Biso   1.000  H
  H50      1.0000 0.63160  0.50170  0.58740  Biso   1.000  H
  H51      1.0000 0.51710  0.44090  0.39640  Biso   1.000  H
  H52      1.0000 0.48290  0.55910  0.60360  Biso   1.000  H
  C61      1.0000 0.47560  0.55270  0.46380  Biso   1.000  C
  C62      1.0000 0.52440  0.44730  0.53620  Biso   1.000  C
  H53      1.0000 0.54090  0.58560  0.44650  Biso   1.000  H
  H54      1.0000 0.45910  0.41440  0.55350  Biso   1.000  H
  H55      1.0000 0.39760  0.61460  0.47570  Biso   1.000  H
  H56      1.0000 0.60240  0.38540  0.52430  Biso   1.000  H
  C63      1.0000 0.12390  0.94550  0.05720  Biso   1.000  C
  C64      1.0000 0.87610  0.05450  0.94280  Biso   1.000  C
  C65      1.0000 0.99700  0.03300  0.05430  Biso   1.000  C
  C66      1.0000 0.00300  0.96700  0.94570  Biso   1.000  C
  C67      1.0000 0.08500  0.88000  0.02430  Biso   1.000  C
  C68      1.0000 0.91500  0.12000  0.97570  Biso   1.000  C
  C69      1.0000 0.08960  0.38980  0.10110  Biso   1.000  C
  C70      1.0000 0.91040  0.61020  0.89890  Biso   1.000  C
