data_image0
_cell_length_a       21.515
_cell_length_b       9.808
_cell_length_c       25.504
_cell_angle_alpha    90
_cell_angle_beta     90
_cell_angle_gamma    90

_symmetry_space_group_name_H-M    "P 1"
_symmetry_int_tables_number       1

loop_
  _symmetry_equiv_pos_as_xyz
  'x, y, z'

loop_
  _atom_site_label
  _atom_site_occupancy
  _atom_site_fract_x
  _atom_site_fract_y
  _atom_site_fract_z
  _atom_site_thermal_displace_type
  _atom_site_B_iso_or_equiv
  _atom_site_type_symbol
  Cu1      1.0000 0.11950  0.39091  0.33798  Biso   1.000  Cu
  Cu2      1.0000 0.38050  0.60909  0.83798  Biso   1.000  Cu
  Cu3      1.0000 0.88050  0.89091  0.16202  Biso   1.000  Cu
  Cu4      1.0000 0.61950  0.10909  0.66202  Biso   1.000  Cu
  Cu5      1.0000 0.88050  0.60909  0.66202  Biso   1.000  Cu
  Cu6      1.0000 0.61950  0.39091  0.16202  Biso   1.000  Cu
  Cu7      1.0000 0.11950  0.10909  0.83798  Biso   1.000  Cu
  Cu8      1.0000 0.38050  0.89091  0.33798  Biso   1.000  Cu
  Cu9      1.0000 0.03073  0.15659  0.33598  Biso   1.000  Cu
  Cu10     1.0000 0.46926  0.84341  0.83598  Biso   1.000  Cu
  Cu11     1.0000 0.96927  0.65659  0.16402  Biso   1.000  Cu
  Cu12     1.0000 0.53073  0.34341  0.66402  Biso   1.000  Cu
  Cu13     1.0000 0.96927  0.84341  0.66402  Biso   1.000  Cu
  Cu14     1.0000 0.53073  0.15659  0.16402  Biso   1.000  Cu
  Cu15     1.0000 0.03073  0.34341  0.83598  Biso   1.000  Cu
  Cu16     1.0000 0.46926  0.65659  0.33598  Biso   1.000  Cu
  Cl1      1.0000 0.09614  0.66991  0.25338  Biso   1.000  Cl
  Cl2      1.0000 0.40386  0.33009  0.75338  Biso   1.000  Cl
  Cl3      1.0000 0.90386  0.16991  0.24662  Biso   1.000  Cl
  Cl4      1.0000 0.59614  0.83009  0.74662  Biso   1.000  Cl
  Cl5      1.0000 0.90386  0.33009  0.74662  Biso   1.000  Cl
  Cl6      1.0000 0.59614  0.66991  0.24662  Biso   1.000  Cl
  Cl7      1.0000 0.09614  0.83009  0.75338  Biso   1.000  Cl
  Cl8      1.0000 0.40386  0.16991  0.25338  Biso   1.000  Cl
  Cl9      1.0000 0.12381  0.92179  0.43982  Biso   1.000  Cl
  Cl10     1.0000 0.37619  0.07821  0.93982  Biso   1.000  Cl
  Cl11     1.0000 0.87619  0.42179  0.06018  Biso   1.000  Cl
  Cl12     1.0000 0.62381  0.57821  0.56018  Biso   1.000  Cl
  Cl13     1.0000 0.87619  0.07821  0.56018  Biso   1.000  Cl
  Cl14     1.0000 0.62381  0.92179  0.06018  Biso   1.000  Cl
  Cl15     1.0000 0.12381  0.57821  0.93982  Biso   1.000  Cl
  Cl16     1.0000 0.37619  0.42179  0.43982  Biso   1.000  Cl
  O1       1.0000 0.09969  0.23520  0.29479  Biso   1.000  O
  O2       1.0000 0.40031  0.76480  0.79479  Biso   1.000  O
  O3       1.0000 0.90031  0.73520  0.20521  Biso   1.000  O
  O4       1.0000 0.59969  0.26480  0.70521  Biso   1.000  O
  O5       1.0000 0.90031  0.76480  0.70521  Biso   1.000  O
  O6       1.0000 0.59969  0.23520  0.20521  Biso   1.000  O
  O7       1.0000 0.09969  0.26480  0.79479  Biso   1.000  O
  O8       1.0000 0.40031  0.73520  0.29479  Biso   1.000  O
  O9       1.0000 0.03928  0.33540  0.36645  Biso   1.000  O
  O10      1.0000 0.46072  0.66460  0.86645  Biso   1.000  O
  O11      1.0000 0.96072  0.83540  0.13355  Biso   1.000  O
  O12      1.0000 0.53928  0.16460  0.63355  Biso   1.000  O
  O13      1.0000 0.96072  0.66460  0.63355  Biso   1.000  O
  O14      1.0000 0.53928  0.33540  0.13355  Biso   1.000  O
  O15      1.0000 0.03928  0.16460  0.86645  Biso   1.000  O
  O16      1.0000 0.46072  0.83540  0.36645  Biso   1.000  O
  O17      1.0000 0.21443  0.05210  0.11495  Biso   1.000  O
  O18      1.0000 0.28557  0.94790  0.61495  Biso   1.000  O
  O19      1.0000 0.78557  0.55210  0.38505  Biso   1.000  O
  O20      1.0000 0.71443  0.44790  0.88505  Biso   1.000  O
  O21      1.0000 0.78557  0.94790  0.88505  Biso   1.000  O
  O22      1.0000 0.71443  0.05210  0.38505  Biso   1.000  O
  O23      1.0000 0.21443  0.44790  0.61495  Biso   1.000  O
  O24      1.0000 0.28557  0.55210  0.11495  Biso   1.000  O
  O25      1.0000 0.87675  0.58480  0.50326  Biso   1.000  O
  O26      1.0000 0.62325  0.41520  0.00326  Biso   1.000  O
  O27      1.0000 0.12325  0.08480  0.99674  Biso   1.000  O
  O28      1.0000 0.37675  0.91520  0.49674  Biso   1.000  O
  O29      1.0000 0.12325  0.41520  0.49674  Biso   1.000  O
  O30      1.0000 0.37675  0.58480  0.99674  Biso   1.000  O
  O31      1.0000 0.87675  0.91520  0.00326  Biso   1.000  O
  O32      1.0000 0.62325  0.08480  0.50326  Biso   1.000  O
  N1       1.0000 0.14968  0.52310  0.39104  Biso   1.000  N
  N2       1.0000 0.35032  0.47690  0.89104  Biso   1.000  N
  N3       1.0000 0.85032  0.02310  0.10896  Biso   1.000  N
  N4       1.0000 0.64968  0.97690  0.60896  Biso   1.000  N
  N5       1.0000 0.85032  0.47690  0.60896  Biso   1.000  N
  N6       1.0000 0.64968  0.52310  0.10896  Biso   1.000  N
  N7       1.0000 0.14968  0.97690  0.89104  Biso   1.000  N
  N8       1.0000 0.35032  0.02310  0.39104  Biso   1.000  N
  H1       1.0000 0.13640  0.60770  0.38310  Biso   1.000  H
  H2       1.0000 0.36360  0.39230  0.88310  Biso   1.000  H
  H3       1.0000 0.86360  0.10770  0.11690  Biso   1.000  H
  H4       1.0000 0.63640  0.89230  0.61690  Biso   1.000  H
  H5       1.0000 0.86360  0.39230  0.61690  Biso   1.000  H
  H6       1.0000 0.63640  0.60770  0.11690  Biso   1.000  H
  H7       1.0000 0.13640  0.89230  0.88310  Biso   1.000  H
  H8       1.0000 0.36360  0.10770  0.38310  Biso   1.000  H
  H9       1.0000 0.13520  0.50080  0.42300  Biso   1.000  H
  H10      1.0000 0.36480  0.49920  0.92300  Biso   1.000  H
  H11      1.0000 0.86480  0.00080  0.07700  Biso   1.000  H
  H12      1.0000 0.63520  0.99920  0.57700  Biso   1.000  H
  H13      1.0000 0.86480  0.49920  0.57700  Biso   1.000  H
  H14      1.0000 0.63520  0.50080  0.07700  Biso   1.000  H
  H15      1.0000 0.13520  0.99920  0.92300  Biso   1.000  H
  H16      1.0000 0.36480  0.00080  0.42300  Biso   1.000  H
  N9       1.0000 0.20115  0.40960  0.30767  Biso   1.000  N
  N10      1.0000 0.29885  0.59040  0.80767  Biso   1.000  N
  N11      1.0000 0.79885  0.90960  0.19233  Biso   1.000  N
  N12      1.0000 0.70115  0.09040  0.69233  Biso   1.000  N
  N13      1.0000 0.79885  0.59040  0.69233  Biso   1.000  N
  N14      1.0000 0.70115  0.40960  0.19233  Biso   1.000  N
  N15      1.0000 0.20115  0.09040  0.80767  Biso   1.000  N
  N16      1.0000 0.29885  0.90960  0.30767  Biso   1.000  N
  N17      1.0000 0.02807  0.96320  0.31509  Biso   1.000  N
  N18      1.0000 0.47193  0.03680  0.81509  Biso   1.000  N
  N19      1.0000 0.97193  0.46320  0.18491  Biso   1.000  N
  N20      1.0000 0.52807  0.53680  0.68491  Biso   1.000  N
  N21      1.0000 0.97193  0.03680  0.68491  Biso   1.000  N
  N22      1.0000 0.52807  0.96320  0.18491  Biso   1.000  N
  N23      1.0000 0.02807  0.53680  0.81509  Biso   1.000  N
  N24      1.0000 0.47193  0.46320  0.31509  Biso   1.000  N
  H17      1.0000 0.02300  0.95730  0.28010  Biso   1.000  H
  H18      1.0000 0.47700  0.04270  0.78010  Biso   1.000  H
  H19      1.0000 0.97700  0.45730  0.21990  Biso   1.000  H
  H20      1.0000 0.52300  0.54270  0.71990  Biso   1.000  H
  H21      1.0000 0.97700  0.04270  0.71990  Biso   1.000  H
  H22      1.0000 0.52300  0.95730  0.21990  Biso   1.000  H
  H23      1.0000 0.02300  0.54270  0.78010  Biso   1.000  H
  H24      1.0000 0.47700  0.45730  0.28010  Biso   1.000  H
  H25      1.0000 0.06440  0.92300  0.32340  Biso   1.000  H
  H26      1.0000 0.43560  0.07700  0.82340  Biso   1.000  H
  H27      1.0000 0.93560  0.42300  0.17660  Biso   1.000  H
  H28      1.0000 0.56440  0.57700  0.67660  Biso   1.000  H
  H29      1.0000 0.93560  0.07700  0.67660  Biso   1.000  H
  H30      1.0000 0.56440  0.92300  0.17660  Biso   1.000  H
  H31      1.0000 0.06440  0.57700  0.82340  Biso   1.000  H
  H32      1.0000 0.43560  0.42300  0.32340  Biso   1.000  H
  N25      1.0000 0.96757  0.10420  0.38550  Biso   1.000  N
  N26      1.0000 0.53243  0.89580  0.88550  Biso   1.000  N
  N27      1.0000 0.03243  0.60420  0.11450  Biso   1.000  N
  N28      1.0000 0.46757  0.39580  0.61450  Biso   1.000  N
  N29      1.0000 0.03243  0.89580  0.61450  Biso   1.000  N
  N30      1.0000 0.46757  0.10420  0.11450  Biso   1.000  N
  N31      1.0000 0.96757  0.39580  0.88550  Biso   1.000  N
  N32      1.0000 0.53243  0.60420  0.38550  Biso   1.000  N
  C1       1.0000 0.21823  0.51780  0.39043  Biso   1.000  C
  C2       1.0000 0.28177  0.48220  0.89043  Biso   1.000  C
  C3       1.0000 0.78177  0.01780  0.10957  Biso   1.000  C
  C4       1.0000 0.71823  0.98220  0.60957  Biso   1.000  C
  C5       1.0000 0.78177  0.48220  0.60957  Biso   1.000  C
  C6       1.0000 0.71823  0.51780  0.10957  Biso   1.000  C
  C7       1.0000 0.21823  0.98220  0.89043  Biso   1.000  C
  C8       1.0000 0.28177  0.01780  0.39043  Biso   1.000  C
  H33      1.0000 0.23270  0.43740  0.40890  Biso   1.000  H
  H34      1.0000 0.26730  0.56260  0.90890  Biso   1.000  H
  H35      1.0000 0.76730  0.93740  0.09110  Biso   1.000  H
  H36      1.0000 0.73270  0.06260  0.59110  Biso   1.000  H
  H37      1.0000 0.76730  0.56260  0.59110  Biso   1.000  H
  H38      1.0000 0.73270  0.43740  0.09110  Biso   1.000  H
  H39      1.0000 0.23270  0.06260  0.90890  Biso   1.000  H
  H40      1.0000 0.26730  0.93740  0.40890  Biso   1.000  H
  H41      1.0000 0.23530  0.59770  0.40760  Biso   1.000  H
  H42      1.0000 0.26470  0.40230  0.90760  Biso   1.000  H
  H43      1.0000 0.76470  0.09770  0.09240  Biso   1.000  H
  H44      1.0000 0.73530  0.90230  0.59240  Biso   1.000  H
  H45      1.0000 0.76470  0.40230  0.59240  Biso   1.000  H
  H46      1.0000 0.73530  0.59770  0.09240  Biso   1.000  H
  H47      1.0000 0.23530  0.90230  0.90760  Biso   1.000  H
  H48      1.0000 0.26470  0.09770  0.40760  Biso   1.000  H
  C9       1.0000 0.23898  0.51320  0.33392  Biso   1.000  C
  C10      1.0000 0.26102  0.48680  0.83392  Biso   1.000  C
  C11      1.0000 0.76102  0.01320  0.16608  Biso   1.000  C
  C12      1.0000 0.73898  0.98680  0.66608  Biso   1.000  C
  C13      1.0000 0.76102  0.48680  0.66608  Biso   1.000  C
  C14      1.0000 0.73898  0.51320  0.16608  Biso   1.000  C
  C15      1.0000 0.23898  0.98680  0.83392  Biso   1.000  C
  C16      1.0000 0.26102  0.01320  0.33392  Biso   1.000  C
  H49      1.0000 0.23300  0.60140  0.31750  Biso   1.000  H
  H50      1.0000 0.26700  0.39860  0.81750  Biso   1.000  H
  H51      1.0000 0.76700  0.10140  0.18250  Biso   1.000  H
  H52      1.0000 0.73300  0.89860  0.68250  Biso   1.000  H
  H53      1.0000 0.76700  0.39860  0.68250  Biso   1.000  H
  H54      1.0000 0.73300  0.60140  0.18250  Biso   1.000  H
  H55      1.0000 0.23300  0.89860  0.81750  Biso   1.000  H
  H56      1.0000 0.26700  0.10140  0.31750  Biso   1.000  H
  H57      1.0000 0.28270  0.48950  0.33180  Biso   1.000  H
  H58      1.0000 0.21730  0.51050  0.83180  Biso   1.000  H
  H59      1.0000 0.71730  0.98950  0.16820  Biso   1.000  H
  H60      1.0000 0.78270  0.01050  0.66820  Biso   1.000  H
  H61      1.0000 0.71730  0.51050  0.66820  Biso   1.000  H
  H62      1.0000 0.78270  0.48950  0.16820  Biso   1.000  H
  H63      1.0000 0.28270  0.01050  0.83180  Biso   1.000  H
  H64      1.0000 0.21730  0.98950  0.33180  Biso   1.000  H
  C17      1.0000 0.22107  0.34860  0.26689  Biso   1.000  C
  C18      1.0000 0.27893  0.65140  0.76689  Biso   1.000  C
  C19      1.0000 0.77893  0.84860  0.23311  Biso   1.000  C
  C20      1.0000 0.72107  0.15140  0.73311  Biso   1.000  C
  C21      1.0000 0.77893  0.65140  0.73311  Biso   1.000  C
  C22      1.0000 0.72107  0.34860  0.23311  Biso   1.000  C
  C23      1.0000 0.22107  0.15140  0.76689  Biso   1.000  C
  C24      1.0000 0.27893  0.84860  0.26689  Biso   1.000  C
  H65      1.0000 0.26080  0.37100  0.25540  Biso   1.000  H
  H66      1.0000 0.23920  0.62900  0.75540  Biso   1.000  H
  H67      1.0000 0.73920  0.87100  0.24460  Biso   1.000  H
  H68      1.0000 0.76080  0.12900  0.74460  Biso   1.000  H
  H69      1.0000 0.73920  0.62900  0.74460  Biso   1.000  H
  H70      1.0000 0.76080  0.37100  0.24460  Biso   1.000  H
  H71      1.0000 0.26080  0.12900  0.75540  Biso   1.000  H
  H72      1.0000 0.23920  0.87100  0.25540  Biso   1.000  H
  C25      1.0000 0.18762  0.24880  0.23719  Biso   1.000  C
  C26      1.0000 0.31238  0.75120  0.73719  Biso   1.000  C
  C27      1.0000 0.81238  0.74880  0.26281  Biso   1.000  C
  C28      1.0000 0.68762  0.25120  0.76281  Biso   1.000  C
  C29      1.0000 0.81238  0.75120  0.76281  Biso   1.000  C
  C30      1.0000 0.68762  0.24880  0.26281  Biso   1.000  C
  C31      1.0000 0.18762  0.25120  0.73719  Biso   1.000  C
  C32      1.0000 0.31238  0.74880  0.23719  Biso   1.000  C
  C33      1.0000 0.21725  0.20130  0.19112  Biso   1.000  C
  C34      1.0000 0.28275  0.79870  0.69112  Biso   1.000  C
  C35      1.0000 0.78275  0.70130  0.30888  Biso   1.000  C
  C36      1.0000 0.71725  0.29870  0.80888  Biso   1.000  C
  C37      1.0000 0.78275  0.79870  0.80888  Biso   1.000  C
  C38      1.0000 0.71725  0.20130  0.30888  Biso   1.000  C
  C39      1.0000 0.21725  0.29870  0.69112  Biso   1.000  C
  C40      1.0000 0.28275  0.70130  0.19112  Biso   1.000  C
  H73      1.0000 0.25600  0.23590  0.18190  Biso   1.000  H
  H74      1.0000 0.24400  0.76410  0.68190  Biso   1.000  H
  H75      1.0000 0.74400  0.73590  0.31810  Biso   1.000  H
  H76      1.0000 0.75600  0.26410  0.81810  Biso   1.000  H
  H77      1.0000 0.74400  0.76410  0.81810  Biso   1.000  H
  H78      1.0000 0.75600  0.23590  0.31810  Biso   1.000  H
  H79      1.0000 0.25600  0.26410  0.68190  Biso   1.000  H
  H80      1.0000 0.24400  0.73590  0.18190  Biso   1.000  H
  C41      1.0000 0.18980  0.10540  0.15996  Biso   1.000  C
  C42      1.0000 0.31020  0.89460  0.65996  Biso   1.000  C
  C43      1.0000 0.81020  0.60540  0.34004  Biso   1.000  C
  C44      1.0000 0.68980  0.39460  0.84004  Biso   1.000  C
  C45      1.0000 0.81020  0.89460  0.84004  Biso   1.000  C
  C46      1.0000 0.68980  0.10540  0.34004  Biso   1.000  C
  C47      1.0000 0.18980  0.39460  0.65996  Biso   1.000  C
  C48      1.0000 0.31020  0.60540  0.15996  Biso   1.000  C
  C49      1.0000 0.13195  0.05490  0.17348  Biso   1.000  C
  C50      1.0000 0.36805  0.94510  0.67348  Biso   1.000  C
  C51      1.0000 0.86805  0.55490  0.32652  Biso   1.000  C
  C52      1.0000 0.63195  0.44510  0.82652  Biso   1.000  C
  C53      1.0000 0.86805  0.94510  0.82652  Biso   1.000  C
  C54      1.0000 0.63195  0.05490  0.32652  Biso   1.000  C
  C55      1.0000 0.13195  0.44510  0.67348  Biso   1.000  C
  C56      1.0000 0.36805  0.55490  0.17348  Biso   1.000  C
  H81      1.0000 0.11320  0.98890  0.15260  Biso   1.000  H
  H82      1.0000 0.38680  0.01110  0.65260  Biso   1.000  H
  H83      1.0000 0.88680  0.48890  0.34740  Biso   1.000  H
  H84      1.0000 0.61320  0.51110  0.84740  Biso   1.000  H
  H85      1.0000 0.88680  0.01110  0.84740  Biso   1.000  H
  H86      1.0000 0.61320  0.98890  0.34740  Biso   1.000  H
  H87      1.0000 0.11320  0.51110  0.65260  Biso   1.000  H
  H88      1.0000 0.38680  0.48890  0.15260  Biso   1.000  H
  C57      1.0000 0.10193  0.10160  0.21745  Biso   1.000  C
  C58      1.0000 0.39807  0.89840  0.71745  Biso   1.000  C
  C59      1.0000 0.89807  0.60160  0.28255  Biso   1.000  C
  C60      1.0000 0.60193  0.39840  0.78255  Biso   1.000  C
  C61      1.0000 0.89807  0.89840  0.78255  Biso   1.000  C
  C62      1.0000 0.60193  0.10160  0.28255  Biso   1.000  C
  C63      1.0000 0.10193  0.39840  0.71745  Biso   1.000  C
  C64      1.0000 0.39807  0.60160  0.21745  Biso   1.000  C
  H89      1.0000 0.06230  0.06920  0.22510  Biso   1.000  H
  H90      1.0000 0.43770  0.93080  0.72510  Biso   1.000  H
  H91      1.0000 0.93770  0.56920  0.27490  Biso   1.000  H
  H92      1.0000 0.56230  0.43080  0.77490  Biso   1.000  H
  H93      1.0000 0.93770  0.93080  0.77490  Biso   1.000  H
  H94      1.0000 0.56230  0.06920  0.27490  Biso   1.000  H
  H95      1.0000 0.06230  0.43080  0.72510  Biso   1.000  H
  H96      1.0000 0.43770  0.56920  0.22510  Biso   1.000  H
  C65      1.0000 0.12946  0.19640  0.25082  Biso   1.000  C
  C66      1.0000 0.37054  0.80360  0.75082  Biso   1.000  C
  C67      1.0000 0.87054  0.69640  0.24918  Biso   1.000  C
  C68      1.0000 0.62946  0.30360  0.74918  Biso   1.000  C
  C69      1.0000 0.87054  0.80360  0.74918  Biso   1.000  C
  C70      1.0000 0.62946  0.19640  0.24918  Biso   1.000  C
  C71      1.0000 0.12946  0.30360  0.75082  Biso   1.000  C
  C72      1.0000 0.37054  0.69640  0.25082  Biso   1.000  C
  C73      1.0000 0.27190  0.10720  0.09880  Biso   1.000  C
  C74      1.0000 0.22810  0.89280  0.59880  Biso   1.000  C
  C75      1.0000 0.72810  0.60720  0.40120  Biso   1.000  C
  C76      1.0000 0.77190  0.39280  0.90120  Biso   1.000  C
  C77      1.0000 0.72810  0.89280  0.90120  Biso   1.000  C
  C78      1.0000 0.77190  0.10720  0.40120  Biso   1.000  C
  C79      1.0000 0.27190  0.39280  0.59880  Biso   1.000  C
  C80      1.0000 0.22810  0.60720  0.09880  Biso   1.000  C
  H97      1.0000 0.28580  0.06130  0.06770  Biso   1.000  H
  H98      1.0000 0.21420  0.93870  0.56770  Biso   1.000  H
  H99      1.0000 0.71420  0.56130  0.43230  Biso   1.000  H
  H100     1.0000 0.78580  0.43870  0.93230  Biso   1.000  H
  H101     1.0000 0.71420  0.93870  0.93230  Biso   1.000  H
  H102     1.0000 0.78580  0.06130  0.43230  Biso   1.000  H
  H103     1.0000 0.28580  0.43870  0.56770  Biso   1.000  H
  H104     1.0000 0.21420  0.56130  0.06770  Biso   1.000  H
  H105     1.0000 0.30210  0.09510  0.12620  Biso   1.000  H
  H106     1.0000 0.19790  0.90490  0.62620  Biso   1.000  H
  H107     1.0000 0.69790  0.59510  0.37380  Biso   1.000  H
  H108     1.0000 0.80210  0.40490  0.87380  Biso   1.000  H
  H109     1.0000 0.69790  0.90490  0.87380  Biso   1.000  H
  H110     1.0000 0.80210  0.09510  0.37380  Biso   1.000  H
  H111     1.0000 0.30210  0.40490  0.62620  Biso   1.000  H
  H112     1.0000 0.19790  0.59510  0.12620  Biso   1.000  H
  H113     1.0000 0.26710  0.20260  0.09160  Biso   1.000  H
  H114     1.0000 0.23290  0.79740  0.59160  Biso   1.000  H
  H115     1.0000 0.73290  0.70260  0.40840  Biso   1.000  H
  H116     1.0000 0.76710  0.29740  0.90840  Biso   1.000  H
  H117     1.0000 0.73290  0.79740  0.90840  Biso   1.000  H
  H118     1.0000 0.76710  0.20260  0.40840  Biso   1.000  H
  H119     1.0000 0.26710  0.29740  0.59160  Biso   1.000  H
  H120     1.0000 0.23290  0.70260  0.09160  Biso   1.000  H
  C81      1.0000 0.97870  0.89430  0.34063  Biso   1.000  C
  C82      1.0000 0.52130  0.10570  0.84063  Biso   1.000  C
  C83      1.0000 0.02130  0.39430  0.15937  Biso   1.000  C
  C84      1.0000 0.47870  0.60570  0.65937  Biso   1.000  C
  C85      1.0000 0.02130  0.10570  0.65937  Biso   1.000  C
  C86      1.0000 0.47870  0.89430  0.15937  Biso   1.000  C
  C87      1.0000 0.97870  0.60570  0.84063  Biso   1.000  C
  C88      1.0000 0.52130  0.39430  0.34063  Biso   1.000  C
  H121     1.0000 0.94610  0.87810  0.31500  Biso   1.000  H
  H122     1.0000 0.55390  0.12190  0.81500  Biso   1.000  H
  H123     1.0000 0.05390  0.37810  0.18500  Biso   1.000  H
  H124     1.0000 0.44610  0.62190  0.68500  Biso   1.000  H
  H125     1.0000 0.05390  0.12190  0.68500  Biso   1.000  H
  H126     1.0000 0.44610  0.87810  0.18500  Biso   1.000  H
  H127     1.0000 0.94610  0.62190  0.81500  Biso   1.000  H
  H128     1.0000 0.55390  0.37810  0.31500  Biso   1.000  H
  H129     1.0000 0.99390  0.80590  0.35190  Biso   1.000  H
  H130     1.0000 0.50610  0.19410  0.85190  Biso   1.000  H
  H131     1.0000 0.00610  0.30590  0.14810  Biso   1.000  H
  H132     1.0000 0.49390  0.69410  0.64810  Biso   1.000  H
  H133     1.0000 0.00610  0.19410  0.64810  Biso   1.000  H
  H134     1.0000 0.49390  0.80590  0.14810  Biso   1.000  H
  H135     1.0000 0.99390  0.69410  0.85190  Biso   1.000  H
  H136     1.0000 0.50610  0.30590  0.35190  Biso   1.000  H
  C89      1.0000 0.95180  0.95940  0.38430  Biso   1.000  C
  C90      1.0000 0.54820  0.04060  0.88430  Biso   1.000  C
  C91      1.0000 0.04820  0.45940  0.11570  Biso   1.000  C
  C92      1.0000 0.45180  0.54060  0.61570  Biso   1.000  C
  C93      1.0000 0.04820  0.04060  0.61570  Biso   1.000  C
  C94      1.0000 0.45180  0.95940  0.11570  Biso   1.000  C
  C95      1.0000 0.95180  0.54060  0.88430  Biso   1.000  C
  C96      1.0000 0.54820  0.45940  0.38430  Biso   1.000  C
  H137     1.0000 0.96640  0.91620  0.41620  Biso   1.000  H
  H138     1.0000 0.53360  0.08380  0.91620  Biso   1.000  H
  H139     1.0000 0.03360  0.41620  0.08380  Biso   1.000  H
  H140     1.0000 0.46640  0.58380  0.58380  Biso   1.000  H
  H141     1.0000 0.03360  0.08380  0.58380  Biso   1.000  H
  H142     1.0000 0.46640  0.91620  0.08380  Biso   1.000  H
  H143     1.0000 0.96640  0.58380  0.91620  Biso   1.000  H
  H144     1.0000 0.53360  0.41620  0.41620  Biso   1.000  H
  H145     1.0000 0.90700  0.94930  0.38280  Biso   1.000  H
  H146     1.0000 0.59300  0.05070  0.88280  Biso   1.000  H
  H147     1.0000 0.09300  0.44930  0.11720  Biso   1.000  H
  H148     1.0000 0.40700  0.55070  0.61720  Biso   1.000  H
  H149     1.0000 0.09300  0.05070  0.61720  Biso   1.000  H
  H150     1.0000 0.40700  0.94930  0.11720  Biso   1.000  H
  H151     1.0000 0.90700  0.55070  0.88280  Biso   1.000  H
  H152     1.0000 0.59300  0.44930  0.38280  Biso   1.000  H
  C97      1.0000 0.94050  0.18130  0.41837  Biso   1.000  C
  C98      1.0000 0.55950  0.81870  0.91837  Biso   1.000  C
  C99      1.0000 0.05950  0.68130  0.08163  Biso   1.000  C
  C100     1.0000 0.44050  0.31870  0.58163  Biso   1.000  C
  C101     1.0000 0.05950  0.81870  0.58163  Biso   1.000  C
  C102     1.0000 0.44050  0.18130  0.08163  Biso   1.000  C
  C103     1.0000 0.94050  0.31870  0.91837  Biso   1.000  C
  C104     1.0000 0.55950  0.68130  0.41837  Biso   1.000  C
  H153     1.0000 0.91060  0.14180  0.43990  Biso   1.000  H
  H154     1.0000 0.58940  0.85820  0.93990  Biso   1.000  H
  H155     1.0000 0.08940  0.64180  0.06010  Biso   1.000  H
  H156     1.0000 0.41060  0.35820  0.56010  Biso   1.000  H
  H157     1.0000 0.08940  0.85820  0.56010  Biso   1.000  H
  H158     1.0000 0.41060  0.14180  0.06010  Biso   1.000  H
  H159     1.0000 0.91060  0.35820  0.93990  Biso   1.000  H
  H160     1.0000 0.58940  0.64180  0.43990  Biso   1.000  H
  C105     1.0000 0.95213  0.32420  0.42518  Biso   1.000  C
  C106     1.0000 0.54787  0.67580  0.92518  Biso   1.000  C
  C107     1.0000 0.04787  0.82420  0.07482  Biso   1.000  C
  C108     1.0000 0.45213  0.17580  0.57482  Biso   1.000  C
  C109     1.0000 0.04787  0.67580  0.57482  Biso   1.000  C
  C110     1.0000 0.45213  0.32420  0.07482  Biso   1.000  C
  C111     1.0000 0.95213  0.17580  0.92518  Biso   1.000  C
  C112     1.0000 0.54787  0.82420  0.42518  Biso   1.000  C
  C113     1.0000 0.91249  0.39260  0.45918  Biso   1.000  C
  C114     1.0000 0.58751  0.60740  0.95918  Biso   1.000  C
  C115     1.0000 0.08751  0.89260  0.04082  Biso   1.000  C
  C116     1.0000 0.41249  0.10740  0.54082  Biso   1.000  C
  C117     1.0000 0.08751  0.60740  0.54082  Biso   1.000  C
  C118     1.0000 0.41249  0.39260  0.04082  Biso   1.000  C
  C119     1.0000 0.91249  0.10740  0.95918  Biso   1.000  C
  C120     1.0000 0.58751  0.89260  0.45918  Biso   1.000  C
  H161     1.0000 0.88160  0.34390  0.47650  Biso   1.000  H
  H162     1.0000 0.61840  0.65610  0.97650  Biso   1.000  H
  H163     1.0000 0.11840  0.84390  0.02350  Biso   1.000  H
  H164     1.0000 0.38160  0.15610  0.52350  Biso   1.000  H
  H165     1.0000 0.11840  0.65610  0.52350  Biso   1.000  H
  H166     1.0000 0.38160  0.34390  0.02350  Biso   1.000  H
  H167     1.0000 0.88160  0.15610  0.97650  Biso   1.000  H
  H168     1.0000 0.61840  0.84390  0.47650  Biso   1.000  H
  C121     1.0000 0.91764  0.53010  0.46780  Biso   1.000  C
  C122     1.0000 0.58236  0.46990  0.96780  Biso   1.000  C
  C123     1.0000 0.08236  0.03010  0.03220  Biso   1.000  C
  C124     1.0000 0.41764  0.96990  0.53220  Biso   1.000  C
  C125     1.0000 0.08236  0.46990  0.53220  Biso   1.000  C
  C126     1.0000 0.41764  0.53010  0.03220  Biso   1.000  C
  C127     1.0000 0.91764  0.96990  0.96780  Biso   1.000  C
  C128     1.0000 0.58236  0.03010  0.46780  Biso   1.000  C
  C129     1.0000 0.96313  0.60200  0.44245  Biso   1.000  C
  C130     1.0000 0.53687  0.39800  0.94245  Biso   1.000  C
  C131     1.0000 0.03687  0.10200  0.05755  Biso   1.000  C
  C132     1.0000 0.46313  0.89800  0.55755  Biso   1.000  C
  C133     1.0000 0.03687  0.39800  0.55755  Biso   1.000  C
  C134     1.0000 0.46313  0.60200  0.05755  Biso   1.000  C
  C135     1.0000 0.96313  0.89800  0.94245  Biso   1.000  C
  C136     1.0000 0.53687  0.10200  0.44245  Biso   1.000  C
  H169     1.0000 0.96740  0.69510  0.44840  Biso   1.000  H
  H170     1.0000 0.53260  0.30490  0.94840  Biso   1.000  H
  H171     1.0000 0.03260  0.19510  0.05160  Biso   1.000  H
  H172     1.0000 0.46740  0.80490  0.55160  Biso   1.000  H
  H173     1.0000 0.03260  0.30490  0.55160  Biso   1.000  H
  H174     1.0000 0.46740  0.69510  0.05160  Biso   1.000  H
  H175     1.0000 0.96740  0.80490  0.94840  Biso   1.000  H
  H176     1.0000 0.53260  0.19510  0.44840  Biso   1.000  H
  C137     1.0000 0.00298  0.53620  0.40779  Biso   1.000  C
  C138     1.0000 0.49702  0.46380  0.90779  Biso   1.000  C
  C139     1.0000 0.99702  0.03620  0.09221  Biso   1.000  C
  C140     1.0000 0.50298  0.96380  0.59221  Biso   1.000  C
  C141     1.0000 0.99702  0.46380  0.59221  Biso   1.000  C
  C142     1.0000 0.50298  0.53620  0.09221  Biso   1.000  C
  C143     1.0000 0.00298  0.96380  0.90779  Biso   1.000  C
  C144     1.0000 0.49702  0.03620  0.40779  Biso   1.000  C
  H177     1.0000 0.03290  0.58680  0.39010  Biso   1.000  H
  H178     1.0000 0.46710  0.41320  0.89010  Biso   1.000  H
  H179     1.0000 0.96710  0.08680  0.10990  Biso   1.000  H
  H180     1.0000 0.53290  0.91320  0.60990  Biso   1.000  H
  H181     1.0000 0.96710  0.41320  0.60990  Biso   1.000  H
  H182     1.0000 0.53290  0.58680  0.10990  Biso   1.000  H
  H183     1.0000 0.03290  0.91320  0.89010  Biso   1.000  H
  H184     1.0000 0.46710  0.08680  0.39010  Biso   1.000  H
  C145     1.0000 0.99916  0.39760  0.39908  Biso   1.000  C
  C146     1.0000 0.50084  0.60240  0.89908  Biso   1.000  C
  C147     1.0000 0.00084  0.89760  0.10092  Biso   1.000  C
  C148     1.0000 0.49916  0.10240  0.60092  Biso   1.000  C
  C149     1.0000 0.00084  0.60240  0.60092  Biso   1.000  C
  C150     1.0000 0.49916  0.39760  0.10092  Biso   1.000  C
  C151     1.0000 0.99916  0.10240  0.89908  Biso   1.000  C
  C152     1.0000 0.50084  0.89760  0.39908  Biso   1.000  C
  C153     1.0000 0.87090  0.72810  0.50460  Biso   1.000  C
  C154     1.0000 0.62910  0.27190  0.00460  Biso   1.000  C
  C155     1.0000 0.12910  0.22810  0.99540  Biso   1.000  C
  C156     1.0000 0.37090  0.77190  0.49540  Biso   1.000  C
  C157     1.0000 0.12910  0.27190  0.49540  Biso   1.000  C
  C158     1.0000 0.37090  0.72810  0.99540  Biso   1.000  C
  C159     1.0000 0.87090  0.77190  0.00460  Biso   1.000  C
  C160     1.0000 0.62910  0.22810  0.50460  Biso   1.000  C
  H185     1.0000 0.84080  0.75330  0.53070  Biso   1.000  H
  H186     1.0000 0.65920  0.24670  0.03070  Biso   1.000  H
  H187     1.0000 0.15920  0.25330  0.96930  Biso   1.000  H
  H188     1.0000 0.34080  0.74670  0.46930  Biso   1.000  H
  H189     1.0000 0.15920  0.24670  0.46930  Biso   1.000  H
  H190     1.0000 0.34080  0.75330  0.96930  Biso   1.000  H
  H191     1.0000 0.84080  0.74670  0.03070  Biso   1.000  H
  H192     1.0000 0.65920  0.25330  0.53070  Biso   1.000  H
  H193     1.0000 0.85750  0.76040  0.47090  Biso   1.000  H
  H194     1.0000 0.64250  0.23960  0.97090  Biso   1.000  H
  H195     1.0000 0.14250  0.26040  0.02910  Biso   1.000  H
  H196     1.0000 0.35750  0.73960  0.52910  Biso   1.000  H
  H197     1.0000 0.14250  0.23960  0.52910  Biso   1.000  H
  H198     1.0000 0.35750  0.76040  0.02910  Biso   1.000  H
  H199     1.0000 0.85750  0.73960  0.97090  Biso   1.000  H
  H200     1.0000 0.64250  0.26040  0.47090  Biso   1.000  H
  H201     1.0000 0.91040  0.76810  0.51310  Biso   1.000  H
  H202     1.0000 0.58960  0.23190  0.01310  Biso   1.000  H
  H203     1.0000 0.08960  0.26810  0.98690  Biso   1.000  H
  H204     1.0000 0.41040  0.73190  0.48690  Biso   1.000  H
  H205     1.0000 0.08960  0.23190  0.48690  Biso   1.000  H
  H206     1.0000 0.41040  0.76810  0.98690  Biso   1.000  H
  H207     1.0000 0.91040  0.73190  0.01310  Biso   1.000  H
  H208     1.0000 0.58960  0.26810  0.51310  Biso   1.000  H
  O33      1.0000 0.06860  0.55480  0.27896  Biso   1.000  O
  O34      1.0000 0.43140  0.44520  0.77896  Biso   1.000  O
  O35      1.0000 0.93140  0.05480  0.22104  Biso   1.000  O
  O36      1.0000 0.56860  0.94520  0.72104  Biso   1.000  O
  O37      1.0000 0.93140  0.44520  0.72104  Biso   1.000  O
  O38      1.0000 0.56860  0.55480  0.22104  Biso   1.000  O
  O39      1.0000 0.06860  0.94520  0.77896  Biso   1.000  O
  O40      1.0000 0.43140  0.05480  0.27896  Biso   1.000  O
  O41      1.0000 0.04717  0.74760  0.22947  Biso   1.000  O
  O42      1.0000 0.45283  0.25240  0.72947  Biso   1.000  O
  O43      1.0000 0.95283  0.24760  0.27053  Biso   1.000  O
  O44      1.0000 0.54717  0.75240  0.77053  Biso   1.000  O
  O45      1.0000 0.95283  0.25240  0.77053  Biso   1.000  O
  O46      1.0000 0.54717  0.74760  0.27053  Biso   1.000  O
  O47      1.0000 0.04717  0.75240  0.72947  Biso   1.000  O
  O48      1.0000 0.45283  0.24760  0.22947  Biso   1.000  O
  O49      1.0000 0.12787  0.75060  0.29128  Biso   1.000  O
  O50      1.0000 0.37213  0.24940  0.79128  Biso   1.000  O
  O51      1.0000 0.87213  0.25060  0.20872  Biso   1.000  O
  O52      1.0000 0.62787  0.74940  0.70872  Biso   1.000  O
  O53      1.0000 0.87213  0.24940  0.70872  Biso   1.000  O
  O54      1.0000 0.62787  0.75060  0.20872  Biso   1.000  O
  O55      1.0000 0.12787  0.74940  0.79128  Biso   1.000  O
  O56      1.0000 0.37213  0.25060  0.29128  Biso   1.000  O
  O57      1.0000 0.13771  0.62210  0.21559  Biso   1.000  O
  O58      1.0000 0.36229  0.37790  0.71559  Biso   1.000  O
  O59      1.0000 0.86229  0.12210  0.28441  Biso   1.000  O
  O60      1.0000 0.63771  0.87790  0.78441  Biso   1.000  O
  O61      1.0000 0.86229  0.37790  0.78441  Biso   1.000  O
  O62      1.0000 0.63771  0.62210  0.28441  Biso   1.000  O
  O63      1.0000 0.13771  0.87790  0.71559  Biso   1.000  O
  O64      1.0000 0.36229  0.12210  0.21559  Biso   1.000  O
  O65      1.0000 0.06800  0.94710  0.46970  Biso   1.000  O
  O66      1.0000 0.43200  0.05290  0.96970  Biso   1.000  O
  O67      1.0000 0.93200  0.44710  0.03030  Biso   1.000  O
  O68      1.0000 0.56800  0.55290  0.53030  Biso   1.000  O
  O69      1.0000 0.93200  0.05290  0.53030  Biso   1.000  O
  O70      1.0000 0.56800  0.94710  0.03030  Biso   1.000  O
  O71      1.0000 0.06800  0.55290  0.96970  Biso   1.000  O
  O72      1.0000 0.43200  0.44710  0.46970  Biso   1.000  O
  O73      1.0000 0.12808  0.02790  0.40243  Biso   1.000  O
  O74      1.0000 0.37192  0.97210  0.90243  Biso   1.000  O
  O75      1.0000 0.87192  0.52790  0.09757  Biso   1.000  O
  O76      1.0000 0.62808  0.47210  0.59757  Biso   1.000  O
  O77      1.0000 0.87192  0.97210  0.59757  Biso   1.000  O
  O78      1.0000 0.62808  0.02790  0.09757  Biso   1.000  O
  O79      1.0000 0.12808  0.47210  0.90243  Biso   1.000  O
  O80      1.0000 0.37192  0.52790  0.40243  Biso   1.000  O
  O81      1.0000 0.15850  0.96500  0.48210  Biso   1.000  O
  O82      1.0000 0.34150  0.03500  0.98210  Biso   1.000  O
  O83      1.0000 0.84150  0.46500  0.01790  Biso   1.000  O
  O84      1.0000 0.65850  0.53500  0.51790  Biso   1.000  O
  O85      1.0000 0.84150  0.03500  0.51790  Biso   1.000  O
  O86      1.0000 0.65850  0.96500  0.01790  Biso   1.000  O
  O87      1.0000 0.15850  0.53500  0.98210  Biso   1.000  O
  O88      1.0000 0.34150  0.46500  0.48210  Biso   1.000  O
  O89      1.0000 0.09090  0.80530  0.42060  Biso   1.000  O
  O90      1.0000 0.40910  0.19470  0.92060  Biso   1.000  O
  O91      1.0000 0.90910  0.30530  0.07940  Biso   1.000  O
  O92      1.0000 0.59090  0.69470  0.57940  Biso   1.000  O
  O93      1.0000 0.90910  0.19470  0.57940  Biso   1.000  O
  O94      1.0000 0.59090  0.80530  0.07940  Biso   1.000  O
  O95      1.0000 0.09090  0.69470  0.92060  Biso   1.000  O
  O96      1.0000 0.40910  0.30530  0.42060  Biso   1.000  O
  O97      1.0000 0.17480  0.87440  0.46490  Biso   1.000  O
  O98      1.0000 0.32520  0.12560  0.96490  Biso   1.000  O
  O99      1.0000 0.82520  0.37440  0.03510  Biso   1.000  O
  O100     1.0000 0.67480  0.62560  0.53510  Biso   1.000  O
  O101     1.0000 0.82520  0.12560  0.53510  Biso   1.000  O
  O102     1.0000 0.67480  0.87440  0.03510  Biso   1.000  O
  O103     1.0000 0.17480  0.62560  0.96490  Biso   1.000  O
  O104     1.0000 0.32520  0.37440  0.46490  Biso   1.000  O
  O105     1.0000 0.14580  0.81920  0.41470  Biso   1.000  O
  O106     1.0000 0.35420  0.18080  0.91470  Biso   1.000  O
  O107     1.0000 0.85420  0.31920  0.08530  Biso   1.000  O
  O108     1.0000 0.64580  0.68080  0.58530  Biso   1.000  O
  O109     1.0000 0.85420  0.18080  0.58530  Biso   1.000  O
  O110     1.0000 0.64580  0.81920  0.08530  Biso   1.000  O
  O111     1.0000 0.14580  0.68080  0.91470  Biso   1.000  O
  O112     1.0000 0.35420  0.31920  0.41470  Biso   1.000  O
