data_image0
_cell_length_a       21.672
_cell_length_b       6.8533
_cell_length_c       19.86
_cell_angle_alpha    90
_cell_angle_beta     90
_cell_angle_gamma    90

_symmetry_space_group_name_H-M    "P 1"
_symmetry_int_tables_number       1

loop_
  _symmetry_equiv_pos_as_xyz
  'x, y, z'

loop_
  _atom_site_label
  _atom_site_occupancy
  _atom_site_fract_x
  _atom_site_fract_y
  _atom_site_fract_z
  _atom_site_thermal_displace_type
  _atom_site_B_iso_or_equiv
  _atom_site_type_symbol
  Cu1      1.0000 0.75000  0.75000  0.56000  Biso   1.000  Cu
  Cu2      1.0000 0.25000  0.25000  0.94000  Biso   1.000  Cu
  Cu3      1.0000 0.25000  0.25000  0.44000  Biso   1.000  Cu
  Cu4      1.0000 0.75000  0.75000  0.06000  Biso   1.000  Cu
  S1       1.0000 0.75000  0.25000  0.60744  Biso   1.000  S
  S2       1.0000 0.25000  0.75000  0.89256  Biso   1.000  S
  S3       1.0000 0.25000  0.75000  0.39256  Biso   1.000  S
  S4       1.0000 0.75000  0.25000  0.10744  Biso   1.000  S
  O1       1.0000 0.39746  0.84220  0.20721  Biso   1.000  O
  O2       1.0000 0.10254  0.65780  0.20721  Biso   1.000  O
  O3       1.0000 0.60254  0.34220  0.29279  Biso   1.000  O
  O4       1.0000 0.89746  0.15780  0.29279  Biso   1.000  O
  O5       1.0000 0.60254  0.15780  0.79279  Biso   1.000  O
  O6       1.0000 0.89746  0.34220  0.79279  Biso   1.000  O
  O7       1.0000 0.39746  0.65780  0.70721  Biso   1.000  O
  O8       1.0000 0.10254  0.84220  0.70721  Biso   1.000  O
  O9       1.0000 0.73015  0.41410  0.56593  Biso   1.000  O
  O10      1.0000 0.76985  0.08590  0.56593  Biso   1.000  O
  O11      1.0000 0.26985  0.91410  0.93407  Biso   1.000  O
  O12      1.0000 0.23015  0.58590  0.93407  Biso   1.000  O
  O13      1.0000 0.26985  0.58590  0.43407  Biso   1.000  O
  O14      1.0000 0.23015  0.91410  0.43407  Biso   1.000  O
  O15      1.0000 0.73015  0.08590  0.06593  Biso   1.000  O
  O16      1.0000 0.76985  0.41410  0.06593  Biso   1.000  O
  O17      1.0000 0.69854  0.18650  0.65199  Biso   1.000  O
  O18      1.0000 0.80146  0.31350  0.65199  Biso   1.000  O
  O19      1.0000 0.30146  0.68650  0.84801  Biso   1.000  O
  O20      1.0000 0.19854  0.81350  0.84801  Biso   1.000  O
  O21      1.0000 0.30146  0.81350  0.34801  Biso   1.000  O
  O22      1.0000 0.19854  0.68650  0.34801  Biso   1.000  O
  O23      1.0000 0.69854  0.31350  0.15199  Biso   1.000  O
  O24      1.0000 0.80146  0.18650  0.15199  Biso   1.000  O
  O25      1.0000 0.68578  0.79520  0.63128  Biso   1.000  O
  O26      1.0000 0.81422  0.70480  0.63128  Biso   1.000  O
  O27      1.0000 0.31422  0.29520  0.86872  Biso   1.000  O
  O28      1.0000 0.18578  0.20480  0.86872  Biso   1.000  O
  O29      1.0000 0.31422  0.20480  0.36872  Biso   1.000  O
  O30      1.0000 0.18578  0.29520  0.36872  Biso   1.000  O
  O31      1.0000 0.68578  0.70480  0.13128  Biso   1.000  O
  O32      1.0000 0.81422  0.79520  0.13128  Biso   1.000  O
  H1       1.0000 0.68860  0.90770  0.64530  Biso   1.000  H
  H2       1.0000 0.81140  0.59230  0.64530  Biso   1.000  H
  H3       1.0000 0.31140  0.40770  0.85470  Biso   1.000  H
  H4       1.0000 0.18860  0.09230  0.85470  Biso   1.000  H
  H5       1.0000 0.31140  0.09230  0.35470  Biso   1.000  H
  H6       1.0000 0.18860  0.40770  0.35470  Biso   1.000  H
  H7       1.0000 0.68860  0.59230  0.14530  Biso   1.000  H
  H8       1.0000 0.81140  0.90770  0.14530  Biso   1.000  H
  H9       1.0000 0.69250  0.71250  0.66010  Biso   1.000  H
  H10      1.0000 0.80750  0.78750  0.66010  Biso   1.000  H
  H11      1.0000 0.30750  0.21250  0.83990  Biso   1.000  H
  H12      1.0000 0.19250  0.28750  0.83990  Biso   1.000  H
  H13      1.0000 0.30750  0.28750  0.33990  Biso   1.000  H
  H14      1.0000 0.19250  0.21250  0.33990  Biso   1.000  H
  H15      1.0000 0.69250  0.78750  0.16010  Biso   1.000  H
  H16      1.0000 0.80750  0.71250  0.16010  Biso   1.000  H
  N1       1.0000 0.68294  0.78310  0.49032  Biso   1.000  N
  N2       1.0000 0.81706  0.71690  0.49032  Biso   1.000  N
  N3       1.0000 0.31706  0.28310  0.00968  Biso   1.000  N
  N4       1.0000 0.18294  0.21690  0.00968  Biso   1.000  N
  N5       1.0000 0.31706  0.21690  0.50968  Biso   1.000  N
  N6       1.0000 0.18294  0.28310  0.50968  Biso   1.000  N
  N7       1.0000 0.68294  0.71690  0.99032  Biso   1.000  N
  N8       1.0000 0.81706  0.78310  0.99032  Biso   1.000  N
  N9       1.0000 0.42947  0.83300  0.31661  Biso   1.000  N
  N10      1.0000 0.07053  0.66700  0.31661  Biso   1.000  N
  N11      1.0000 0.57053  0.33300  0.18339  Biso   1.000  N
  N12      1.0000 0.92947  0.16700  0.18339  Biso   1.000  N
  N13      1.0000 0.57053  0.16700  0.68339  Biso   1.000  N
  N14      1.0000 0.92947  0.33300  0.68339  Biso   1.000  N
  N15      1.0000 0.42947  0.66700  0.81661  Biso   1.000  N
  N16      1.0000 0.07053  0.83300  0.81661  Biso   1.000  N
  H17      1.0000 0.39150  0.83170  0.32920  Biso   1.000  H
  H18      1.0000 0.10850  0.66830  0.32920  Biso   1.000  H
  H19      1.0000 0.60850  0.33170  0.17080  Biso   1.000  H
  H20      1.0000 0.89150  0.16830  0.17080  Biso   1.000  H
  H21      1.0000 0.60850  0.16830  0.67080  Biso   1.000  H
  H22      1.0000 0.89150  0.33170  0.67080  Biso   1.000  H
  H23      1.0000 0.39150  0.66830  0.82920  Biso   1.000  H
  H24      1.0000 0.10850  0.83170  0.82920  Biso   1.000  H
  N17      1.0000 0.52884  0.83490  0.10367  Biso   1.000  N
  N18      1.0000 0.97116  0.66510  0.10367  Biso   1.000  N
  N19      1.0000 0.47116  0.33490  0.39633  Biso   1.000  N
  N20      1.0000 0.02884  0.16510  0.39633  Biso   1.000  N
  N21      1.0000 0.47116  0.16510  0.89633  Biso   1.000  N
  N22      1.0000 0.02884  0.33490  0.89633  Biso   1.000  N
  N23      1.0000 0.52884  0.66510  0.60367  Biso   1.000  N
  N24      1.0000 0.97116  0.83490  0.60367  Biso   1.000  N
  C1       1.0000 0.67866  0.93640  0.44882  Biso   1.000  C
  C2       1.0000 0.82134  0.56360  0.44882  Biso   1.000  C
  C3       1.0000 0.32134  0.43640  0.05118  Biso   1.000  C
  C4       1.0000 0.17866  0.06360  0.05118  Biso   1.000  C
  C5       1.0000 0.32134  0.06360  0.55118  Biso   1.000  C
  C6       1.0000 0.17866  0.43640  0.55118  Biso   1.000  C
  C7       1.0000 0.67866  0.56360  0.94882  Biso   1.000  C
  C8       1.0000 0.82134  0.93640  0.94882  Biso   1.000  C
  H25      1.0000 0.70900  0.03230  0.45090  Biso   1.000  H
  H26      1.0000 0.79100  0.46770  0.45090  Biso   1.000  H
  H27      1.0000 0.29100  0.53230  0.04910  Biso   1.000  H
  H28      1.0000 0.20900  0.96770  0.04910  Biso   1.000  H
  H29      1.0000 0.29100  0.96770  0.54910  Biso   1.000  H
  H30      1.0000 0.20900  0.53230  0.54910  Biso   1.000  H
  H31      1.0000 0.70900  0.46770  0.95090  Biso   1.000  H
  H32      1.0000 0.79100  0.03230  0.95090  Biso   1.000  H
  C9       1.0000 0.63105  0.95830  0.40299  Biso   1.000  C
  C10      1.0000 0.86895  0.54170  0.40299  Biso   1.000  C
  C11      1.0000 0.36895  0.45830  0.09701  Biso   1.000  C
  C12      1.0000 0.13105  0.04170  0.09701  Biso   1.000  C
  C13      1.0000 0.36895  0.04170  0.59701  Biso   1.000  C
  C14      1.0000 0.13105  0.45830  0.59701  Biso   1.000  C
  C15      1.0000 0.63105  0.54170  0.90299  Biso   1.000  C
  C16      1.0000 0.86895  0.95830  0.90299  Biso   1.000  C
  H33      1.0000 0.63000  0.06650  0.37470  Biso   1.000  H
  H34      1.0000 0.87000  0.43350  0.37470  Biso   1.000  H
  H35      1.0000 0.37000  0.56650  0.12530  Biso   1.000  H
  H36      1.0000 0.13000  0.93350  0.12530  Biso   1.000  H
  H37      1.0000 0.37000  0.93350  0.62530  Biso   1.000  H
  H38      1.0000 0.13000  0.56650  0.62530  Biso   1.000  H
  H39      1.0000 0.63000  0.43350  0.87470  Biso   1.000  H
  H40      1.0000 0.87000  0.06650  0.87470  Biso   1.000  H
  C17      1.0000 0.58505  0.81900  0.39931  Biso   1.000  C
  C18      1.0000 0.91495  0.68100  0.39931  Biso   1.000  C
  C19      1.0000 0.41495  0.31900  0.10069  Biso   1.000  C
  C20      1.0000 0.08505  0.18100  0.10069  Biso   1.000  C
  C21      1.0000 0.41495  0.18100  0.60069  Biso   1.000  C
  C22      1.0000 0.08505  0.31900  0.60069  Biso   1.000  C
  C23      1.0000 0.58505  0.68100  0.89931  Biso   1.000  C
  C24      1.0000 0.91495  0.81900  0.89931  Biso   1.000  C
  C25      1.0000 0.58919  0.66230  0.44327  Biso   1.000  C
  C26      1.0000 0.91081  0.83770  0.44327  Biso   1.000  C
  C27      1.0000 0.41081  0.16230  0.05673  Biso   1.000  C
  C28      1.0000 0.08919  0.33770  0.05673  Biso   1.000  C
  C29      1.0000 0.41081  0.33770  0.55673  Biso   1.000  C
  C30      1.0000 0.08919  0.16230  0.55673  Biso   1.000  C
  C31      1.0000 0.58919  0.83770  0.94327  Biso   1.000  C
  C32      1.0000 0.91081  0.66230  0.94327  Biso   1.000  C
  H41      1.0000 0.55900  0.56590  0.44300  Biso   1.000  H
  H42      1.0000 0.94100  0.93410  0.44300  Biso   1.000  H
  H43      1.0000 0.44100  0.06590  0.05700  Biso   1.000  H
  H44      1.0000 0.05900  0.43410  0.05700  Biso   1.000  H
  H45      1.0000 0.44100  0.43410  0.55700  Biso   1.000  H
  H46      1.0000 0.05900  0.06590  0.55700  Biso   1.000  H
  H47      1.0000 0.55900  0.93410  0.94300  Biso   1.000  H
  H48      1.0000 0.94100  0.56590  0.94300  Biso   1.000  H
  C33      1.0000 0.63819  0.65000  0.48731  Biso   1.000  C
  C34      1.0000 0.86181  0.85000  0.48731  Biso   1.000  C
  C35      1.0000 0.36181  0.15000  0.01269  Biso   1.000  C
  C36      1.0000 0.13819  0.35000  0.01269  Biso   1.000  C
  C37      1.0000 0.36181  0.35000  0.51269  Biso   1.000  C
  C38      1.0000 0.13819  0.15000  0.51269  Biso   1.000  C
  C39      1.0000 0.63819  0.85000  0.98731  Biso   1.000  C
  C40      1.0000 0.86181  0.65000  0.98731  Biso   1.000  C
  H49      1.0000 0.64010  0.54370  0.51630  Biso   1.000  H
  H50      1.0000 0.85990  0.95630  0.51630  Biso   1.000  H
  H51      1.0000 0.35990  0.04370  0.98370  Biso   1.000  H
  H52      1.0000 0.14010  0.45630  0.98370  Biso   1.000  H
  H53      1.0000 0.35990  0.45630  0.48370  Biso   1.000  H
  H54      1.0000 0.14010  0.04370  0.48370  Biso   1.000  H
  H55      1.0000 0.64010  0.95630  0.01630  Biso   1.000  H
  H56      1.0000 0.85990  0.54370  0.01630  Biso   1.000  H
  C41      1.0000 0.53443  0.83120  0.34882  Biso   1.000  C
  C42      1.0000 0.96557  0.66880  0.34882  Biso   1.000  C
  C43      1.0000 0.46557  0.33120  0.15118  Biso   1.000  C
  C44      1.0000 0.03443  0.16880  0.15118  Biso   1.000  C
  C45      1.0000 0.46557  0.16880  0.65118  Biso   1.000  C
  C46      1.0000 0.03443  0.33120  0.65118  Biso   1.000  C
  C47      1.0000 0.53443  0.66880  0.84882  Biso   1.000  C
  C48      1.0000 0.96557  0.83120  0.84882  Biso   1.000  C
  C49      1.0000 0.54932  0.83720  0.27966  Biso   1.000  C
  C50      1.0000 0.95068  0.66280  0.27966  Biso   1.000  C
  C51      1.0000 0.45068  0.33720  0.22034  Biso   1.000  C
  C52      1.0000 0.04932  0.16280  0.22034  Biso   1.000  C
  C53      1.0000 0.45068  0.16280  0.72034  Biso   1.000  C
  C54      1.0000 0.04932  0.33720  0.72034  Biso   1.000  C
  C55      1.0000 0.54932  0.66280  0.77966  Biso   1.000  C
  C56      1.0000 0.95068  0.83720  0.77966  Biso   1.000  C
  H57      1.0000 0.59060  0.84070  0.26700  Biso   1.000  H
  H58      1.0000 0.90940  0.65930  0.26700  Biso   1.000  H
  H59      1.0000 0.40940  0.34070  0.23300  Biso   1.000  H
  H60      1.0000 0.09060  0.15930  0.23300  Biso   1.000  H
  H61      1.0000 0.40940  0.15930  0.73300  Biso   1.000  H
  H62      1.0000 0.09060  0.34070  0.73300  Biso   1.000  H
  H63      1.0000 0.59060  0.65930  0.76700  Biso   1.000  H
  H64      1.0000 0.90940  0.84070  0.76700  Biso   1.000  H
  C57      1.0000 0.50482  0.83810  0.23072  Biso   1.000  C
  C58      1.0000 0.99518  0.66190  0.23072  Biso   1.000  C
  C59      1.0000 0.49518  0.33810  0.26928  Biso   1.000  C
  C60      1.0000 0.00482  0.16190  0.26928  Biso   1.000  C
  C61      1.0000 0.49518  0.16190  0.76928  Biso   1.000  C
  C62      1.0000 0.00482  0.33810  0.76928  Biso   1.000  C
  C63      1.0000 0.50482  0.66190  0.73072  Biso   1.000  C
  C64      1.0000 0.99518  0.83810  0.73072  Biso   1.000  C
  C65      1.0000 0.44027  0.83800  0.24792  Biso   1.000  C
  C66      1.0000 0.05973  0.66200  0.24792  Biso   1.000  C
  C67      1.0000 0.55973  0.33800  0.25208  Biso   1.000  C
  C68      1.0000 0.94027  0.16200  0.25208  Biso   1.000  C
  C69      1.0000 0.55973  0.16200  0.75208  Biso   1.000  C
  C70      1.0000 0.94027  0.33800  0.75208  Biso   1.000  C
  C71      1.0000 0.44027  0.66200  0.74792  Biso   1.000  C
  C72      1.0000 0.05973  0.83800  0.74792  Biso   1.000  C
  C73      1.0000 0.47276  0.82980  0.36634  Biso   1.000  C
  C74      1.0000 0.02724  0.67020  0.36634  Biso   1.000  C
  C75      1.0000 0.52724  0.32980  0.13366  Biso   1.000  C
  C76      1.0000 0.97276  0.17020  0.13366  Biso   1.000  C
  C77      1.0000 0.52724  0.17020  0.63366  Biso   1.000  C
  C78      1.0000 0.97276  0.32980  0.63366  Biso   1.000  C
  C79      1.0000 0.47276  0.67020  0.86634  Biso   1.000  C
  C80      1.0000 0.02724  0.82980  0.86634  Biso   1.000  C
  C81      1.0000 0.44750  0.83240  0.43639  Biso   1.000  C
  C82      1.0000 0.05250  0.66760  0.43639  Biso   1.000  C
  C83      1.0000 0.55250  0.33240  0.06361  Biso   1.000  C
  C84      1.0000 0.94750  0.16760  0.06361  Biso   1.000  C
  C85      1.0000 0.55250  0.16760  0.56361  Biso   1.000  C
  C86      1.0000 0.94750  0.33240  0.56361  Biso   1.000  C
  C87      1.0000 0.44750  0.66760  0.93639  Biso   1.000  C
  C88      1.0000 0.05250  0.83240  0.93639  Biso   1.000  C
  H65      1.0000 0.42370  0.94900  0.44300  Biso   1.000  H
  H66      1.0000 0.07630  0.55100  0.44300  Biso   1.000  H
  H67      1.0000 0.57630  0.44900  0.05700  Biso   1.000  H
  H68      1.0000 0.92370  0.05100  0.05700  Biso   1.000  H
  H69      1.0000 0.57630  0.05100  0.55700  Biso   1.000  H
  H70      1.0000 0.92370  0.44900  0.55700  Biso   1.000  H
  H71      1.0000 0.42370  0.55100  0.94300  Biso   1.000  H
  H72      1.0000 0.07630  0.94900  0.94300  Biso   1.000  H
  H73      1.0000 0.48090  0.82950  0.46810  Biso   1.000  H
  H74      1.0000 0.01910  0.67050  0.46810  Biso   1.000  H
  H75      1.0000 0.51910  0.32950  0.03190  Biso   1.000  H
  H76      1.0000 0.98090  0.17050  0.03190  Biso   1.000  H
  H77      1.0000 0.51910  0.17050  0.53190  Biso   1.000  H
  H78      1.0000 0.98090  0.32950  0.53190  Biso   1.000  H
  H79      1.0000 0.48090  0.67050  0.96810  Biso   1.000  H
  H80      1.0000 0.01910  0.82950  0.96810  Biso   1.000  H
  H81      1.0000 0.42160  0.72040  0.44310  Biso   1.000  H
  H82      1.0000 0.07840  0.77960  0.44310  Biso   1.000  H
  H83      1.0000 0.57840  0.22040  0.05690  Biso   1.000  H
  H84      1.0000 0.92160  0.27960  0.05690  Biso   1.000  H
  H85      1.0000 0.57840  0.27960  0.55690  Biso   1.000  H
  H86      1.0000 0.92160  0.22040  0.55690  Biso   1.000  H
  H87      1.0000 0.42160  0.77960  0.94310  Biso   1.000  H
  H88      1.0000 0.07840  0.72040  0.94310  Biso   1.000  H
  C89      1.0000 0.51933  0.83640  0.16012  Biso   1.000  C
  C90      1.0000 0.98067  0.66360  0.16012  Biso   1.000  C
  C91      1.0000 0.48067  0.33640  0.33988  Biso   1.000  C
  C92      1.0000 0.01933  0.16360  0.33988  Biso   1.000  C
  C93      1.0000 0.48067  0.16360  0.83988  Biso   1.000  C
  C94      1.0000 0.01933  0.33640  0.83988  Biso   1.000  C
  C95      1.0000 0.51933  0.66360  0.66012  Biso   1.000  C
  C96      1.0000 0.98067  0.83640  0.66012  Biso   1.000  C
  O33      1.0000 0.69067  0.53820  0.73479  Biso   1.000  O
  O34      1.0000 0.80933  0.96180  0.73479  Biso   1.000  O
  O35      1.0000 0.30933  0.03820  0.76521  Biso   1.000  O
  O36      1.0000 0.19067  0.46180  0.76521  Biso   1.000  O
  O37      1.0000 0.30933  0.46180  0.26521  Biso   1.000  O
  O38      1.0000 0.19067  0.03820  0.26521  Biso   1.000  O
  O39      1.0000 0.69067  0.96180  0.23479  Biso   1.000  O
  O40      1.0000 0.80933  0.53820  0.23479  Biso   1.000  O
  H89      1.0000 0.71710  0.53270  0.76540  Biso   1.000  H
  H90      1.0000 0.78290  0.96730  0.76540  Biso   1.000  H
  H91      1.0000 0.28290  0.03270  0.73460  Biso   1.000  H
  H92      1.0000 0.21710  0.46730  0.73460  Biso   1.000  H
  H93      1.0000 0.28290  0.46730  0.23460  Biso   1.000  H
  H94      1.0000 0.21710  0.03270  0.23460  Biso   1.000  H
  H95      1.0000 0.71710  0.96730  0.26540  Biso   1.000  H
  H96      1.0000 0.78290  0.53270  0.26540  Biso   1.000  H
  H97      1.0000 0.68880  0.43320  0.71390  Biso   1.000  H
  H98      1.0000 0.81120  0.06680  0.71390  Biso   1.000  H
  H99      1.0000 0.31120  0.93320  0.78610  Biso   1.000  H
  H100     1.0000 0.18880  0.56680  0.78610  Biso   1.000  H
  H101     1.0000 0.31120  0.56680  0.28610  Biso   1.000  H
  H102     1.0000 0.18880  0.93320  0.28610  Biso   1.000  H
  H103     1.0000 0.68880  0.06680  0.21390  Biso   1.000  H
  H104     1.0000 0.81120  0.43320  0.21390  Biso   1.000  H
  O41      1.0000 0.78398  0.01510  0.32780  Biso   1.000  O
  O42      1.0000 0.71602  0.48490  0.32780  Biso   1.000  O
  O43      1.0000 0.21602  0.51510  0.17220  Biso   1.000  O
  O44      1.0000 0.28398  0.98490  0.17220  Biso   1.000  O
  O45      1.0000 0.21602  0.98490  0.67220  Biso   1.000  O
  O46      1.0000 0.28398  0.51510  0.67220  Biso   1.000  O
  O47      1.0000 0.78398  0.48490  0.82780  Biso   1.000  O
  O48      1.0000 0.71602  0.01510  0.82780  Biso   1.000  O
  H105     1.0000 0.77130  0.13160  0.33290  Biso   1.000  H
  H106     1.0000 0.72870  0.36840  0.33290  Biso   1.000  H
  H107     1.0000 0.22870  0.63160  0.16710  Biso   1.000  H
  H108     1.0000 0.27130  0.86840  0.16710  Biso   1.000  H
  H109     1.0000 0.22870  0.86840  0.66710  Biso   1.000  H
  H110     1.0000 0.27130  0.63160  0.66710  Biso   1.000  H
  H111     1.0000 0.77130  0.36840  0.83290  Biso   1.000  H
  H112     1.0000 0.72870  0.13160  0.83290  Biso   1.000  H
  H113     1.0000 0.81450  0.01560  0.30230  Biso   1.000  H
  H114     1.0000 0.68550  0.48440  0.30230  Biso   1.000  H
  H115     1.0000 0.18550  0.51560  0.19770  Biso   1.000  H
  H116     1.0000 0.31450  0.98440  0.19770  Biso   1.000  H
  H117     1.0000 0.18550  0.98440  0.69770  Biso   1.000  H
  H118     1.0000 0.31450  0.51560  0.69770  Biso   1.000  H
  H119     1.0000 0.81450  0.48440  0.80230  Biso   1.000  H
  H120     1.0000 0.68550  0.01560  0.80230  Biso   1.000  H
