data_image0
_cell_length_a       21.16
_cell_length_b       9.095
_cell_length_c       6.401
_cell_angle_alpha    90
_cell_angle_beta     90
_cell_angle_gamma    90

_symmetry_space_group_name_H-M    "P 1"
_symmetry_int_tables_number       1

loop_
  _symmetry_equiv_pos_as_xyz
  'x, y, z'

loop_
  _atom_site_label
  _atom_site_occupancy
  _atom_site_fract_x
  _atom_site_fract_y
  _atom_site_fract_z
  _atom_site_thermal_displace_type
  _atom_site_B_iso_or_equiv
  _atom_site_type_symbol
  Cu1      1.0000 0.41170  0.39037  0.47888  Biso   1.000  Cu
  Cu2      1.0000 0.58830  0.60963  0.97888  Biso   1.000  Cu
  Cu3      1.0000 0.08830  0.89037  0.97888  Biso   1.000  Cu
  Cu4      1.0000 0.91170  0.10963  0.47888  Biso   1.000  Cu
  O1       1.0000 0.34747  0.29320  0.65370  Biso   1.000  O
  O2       1.0000 0.65253  0.70680  0.15370  Biso   1.000  O
  O3       1.0000 0.15253  0.79320  0.15370  Biso   1.000  O
  O4       1.0000 0.84747  0.20680  0.65370  Biso   1.000  O
  O5       1.0000 0.33378  0.15990  0.36820  Biso   1.000  O
  O6       1.0000 0.66622  0.84010  0.86820  Biso   1.000  O
  O7       1.0000 0.16622  0.65990  0.86820  Biso   1.000  O
  O8       1.0000 0.83378  0.34010  0.36820  Biso   1.000  O
  O9       1.0000 0.47330  0.43660  0.26150  Biso   1.000  O
  O10      1.0000 0.52670  0.56340  0.76150  Biso   1.000  O
  O11      1.0000 0.02670  0.93660  0.76150  Biso   1.000  O
  O12      1.0000 0.97330  0.06340  0.26150  Biso   1.000  O
  O13      1.0000 0.57641  0.41870  0.19240  Biso   1.000  O
  O14      1.0000 0.42359  0.58130  0.69240  Biso   1.000  O
  O15      1.0000 0.92359  0.91870  0.69240  Biso   1.000  O
  O16      1.0000 0.07641  0.08130  0.19240  Biso   1.000  O
  N1       1.0000 0.15664  0.00020  0.83370  Biso   1.000  N
  N2       1.0000 0.84336  0.99980  0.33370  Biso   1.000  N
  N3       1.0000 0.34336  0.50020  0.33370  Biso   1.000  N
  N4       1.0000 0.65664  0.49980  0.83370  Biso   1.000  N
  N5       1.0000 0.48208  0.26720  0.58820  Biso   1.000  N
  N6       1.0000 0.51792  0.73280  0.08820  Biso   1.000  N
  N7       1.0000 0.01792  0.76720  0.08820  Biso   1.000  N
  N8       1.0000 0.98208  0.23280  0.58820  Biso   1.000  N
  C1       1.0000 0.19500  0.08720  0.93960  Biso   1.000  C
  C2       1.0000 0.80500  0.91280  0.43960  Biso   1.000  C
  C3       1.0000 0.30500  0.58720  0.43960  Biso   1.000  C
  C4       1.0000 0.69500  0.41280  0.93960  Biso   1.000  C
  H1       1.0000 0.18490  0.10720  0.08140  Biso   1.000  H
  H2       1.0000 0.81510  0.89280  0.58140  Biso   1.000  H
  H3       1.0000 0.31510  0.60720  0.58140  Biso   1.000  H
  H4       1.0000 0.68490  0.39280  0.08140  Biso   1.000  H
  C5       1.0000 0.24850  0.15050  0.85840  Biso   1.000  C
  C6       1.0000 0.75150  0.84950  0.35840  Biso   1.000  C
  C7       1.0000 0.25150  0.65050  0.35840  Biso   1.000  C
  C8       1.0000 0.74850  0.34950  0.85840  Biso   1.000  C
  H5       1.0000 0.27530  0.20960  0.94270  Biso   1.000  H
  H6       1.0000 0.72470  0.79040  0.44270  Biso   1.000  H
  H7       1.0000 0.22470  0.70960  0.44270  Biso   1.000  H
  H8       1.0000 0.77530  0.29040  0.94270  Biso   1.000  H
  C9       1.0000 0.26240  0.12540  0.64680  Biso   1.000  C
  C10      1.0000 0.73760  0.87460  0.14680  Biso   1.000  C
  C11      1.0000 0.23760  0.62540  0.14680  Biso   1.000  C
  C12      1.0000 0.76240  0.37460  0.64680  Biso   1.000  C
  C13      1.0000 0.31960  0.19560  0.54970  Biso   1.000  C
  C14      1.0000 0.68040  0.80440  0.04970  Biso   1.000  C
  C15      1.0000 0.18040  0.69560  0.04970  Biso   1.000  C
  C16      1.0000 0.81960  0.30440  0.54970  Biso   1.000  C
  C17      1.0000 0.22310  0.03580  0.54020  Biso   1.000  C
  C18      1.0000 0.77690  0.96420  0.04020  Biso   1.000  C
  C19      1.0000 0.27690  0.53580  0.04020  Biso   1.000  C
  C20      1.0000 0.72310  0.46420  0.54020  Biso   1.000  C
  H9       1.0000 0.23220  0.01420  0.39810  Biso   1.000  H
  H10      1.0000 0.76780  0.98580  0.89810  Biso   1.000  H
  H11      1.0000 0.26780  0.51420  0.89810  Biso   1.000  H
  H12      1.0000 0.73220  0.48580  0.39810  Biso   1.000  H
  C21      1.0000 0.17040  0.97480  0.63020  Biso   1.000  C
  C22      1.0000 0.82960  0.02520  0.13020  Biso   1.000  C
  C23      1.0000 0.32960  0.47480  0.13020  Biso   1.000  C
  C24      1.0000 0.67040  0.52520  0.63020  Biso   1.000  C
  H13      1.0000 0.14330  0.91410  0.54910  Biso   1.000  H
  H14      1.0000 0.85670  0.08590  0.04910  Biso   1.000  H
  H15      1.0000 0.35670  0.41410  0.04910  Biso   1.000  H
  H16      1.0000 0.64330  0.58590  0.54910  Biso   1.000  H
  C25      1.0000 0.52840  0.38670  0.29690  Biso   1.000  C
  C26      1.0000 0.47160  0.61330  0.79690  Biso   1.000  C
  C27      1.0000 0.97160  0.88670  0.79690  Biso   1.000  C
  C28      1.0000 0.02840  0.11330  0.29690  Biso   1.000  C
  C29      1.0000 0.53449  0.27990  0.46740  Biso   1.000  C
  C30      1.0000 0.46551  0.72010  0.96740  Biso   1.000  C
  C31      1.0000 0.96551  0.77990  0.96740  Biso   1.000  C
  C32      1.0000 0.03449  0.22010  0.46740  Biso   1.000  C
  C33      1.0000 0.58840  0.20110  0.51940  Biso   1.000  C
  C34      1.0000 0.41160  0.79890  0.01940  Biso   1.000  C
  C35      1.0000 0.91160  0.70110  0.01940  Biso   1.000  C
  C36      1.0000 0.08840  0.29890  0.51940  Biso   1.000  C
  H17      1.0000 0.62530  0.21260  0.43650  Biso   1.000  H
  H18      1.0000 0.37470  0.78740  0.93650  Biso   1.000  H
  H19      1.0000 0.87470  0.71260  0.93650  Biso   1.000  H
  H20      1.0000 0.12530  0.28740  0.43650  Biso   1.000  H
  C37      1.0000 0.59000  0.11110  0.67990  Biso   1.000  C
  C38      1.0000 0.41000  0.88890  0.17990  Biso   1.000  C
  C39      1.0000 0.91000  0.61110  0.17990  Biso   1.000  C
  C40      1.0000 0.09000  0.38890  0.67990  Biso   1.000  C
  H21      1.0000 0.62620  0.05200  0.70540  Biso   1.000  H
  H22      1.0000 0.37380  0.94800  0.20540  Biso   1.000  H
  H23      1.0000 0.87380  0.55200  0.20540  Biso   1.000  H
  H24      1.0000 0.12620  0.44800  0.70540  Biso   1.000  H
  C41      1.0000 0.53620  0.10310  0.81630  Biso   1.000  C
  C42      1.0000 0.46380  0.89690  0.31630  Biso   1.000  C
  C43      1.0000 0.96380  0.60310  0.31630  Biso   1.000  C
  C44      1.0000 0.03620  0.39690  0.81630  Biso   1.000  C
  H25      1.0000 0.53710  0.04590  0.94040  Biso   1.000  H
  H26      1.0000 0.46290  0.95410  0.44040  Biso   1.000  H
  H27      1.0000 0.96290  0.54590  0.44040  Biso   1.000  H
  H28      1.0000 0.03710  0.45410  0.94040  Biso   1.000  H
  C45      1.0000 0.48300  0.18230  0.75930  Biso   1.000  C
  C46      1.0000 0.51700  0.81770  0.25930  Biso   1.000  C
  C47      1.0000 0.01700  0.68230  0.25930  Biso   1.000  C
  C48      1.0000 0.98300  0.31770  0.75930  Biso   1.000  C
  H29      1.0000 0.44620  0.17620  0.84380  Biso   1.000  H
  H30      1.0000 0.55380  0.82380  0.34380  Biso   1.000  H
  H31      1.0000 0.05380  0.67620  0.34380  Biso   1.000  H
  H32      1.0000 0.94620  0.32380  0.84380  Biso   1.000  H
