data_image0
_cell_length_a       6.591
_cell_length_b       8.692
_cell_length_c       20.548
_cell_angle_alpha    90
_cell_angle_beta     90
_cell_angle_gamma    90

_symmetry_space_group_name_H-M    "P 1"
_symmetry_int_tables_number       1

loop_
  _symmetry_equiv_pos_as_xyz
  'x, y, z'

loop_
  _atom_site_label
  _atom_site_occupancy
  _atom_site_fract_x
  _atom_site_fract_y
  _atom_site_fract_z
  _atom_site_thermal_displace_type
  _atom_site_B_iso_or_equiv
  _atom_site_type_symbol
  Cu1      1.0000 0.05522  0.63927  0.08897  Biso   1.000  Cu
  Cu2      1.0000 0.44478  0.36073  0.58897  Biso   1.000  Cu
  Cu3      1.0000 0.55522  0.86073  0.91103  Biso   1.000  Cu
  Cu4      1.0000 0.94478  0.13927  0.41103  Biso   1.000  Cu
  O1       1.0000 0.27860  0.67390  0.02770  Biso   1.000  O
  O2       1.0000 0.22140  0.32610  0.52770  Biso   1.000  O
  O3       1.0000 0.77860  0.82610  0.97230  Biso   1.000  O
  O4       1.0000 0.72140  0.17390  0.47230  Biso   1.000  O
  O5       1.0000 0.35560  0.64990  0.92244  Biso   1.000  O
  O6       1.0000 0.14440  0.35010  0.42244  Biso   1.000  O
  O7       1.0000 0.85560  0.85010  0.07756  Biso   1.000  O
  O8       1.0000 0.64440  0.14990  0.57756  Biso   1.000  O
  O9       1.0000 0.12150  0.40590  0.18164  Biso   1.000  O
  O10      1.0000 0.37850  0.59410  0.68164  Biso   1.000  O
  O11      1.0000 0.62150  0.09410  0.81836  Biso   1.000  O
  O12      1.0000 0.87850  0.90590  0.31836  Biso   1.000  O
  O13      1.0000 0.85900  0.54960  0.15043  Biso   1.000  O
  O14      1.0000 0.64100  0.45040  0.65043  Biso   1.000  O
  O15      1.0000 0.35900  0.95040  0.84957  Biso   1.000  O
  O16      1.0000 0.14100  0.04960  0.34957  Biso   1.000  O
  N1       1.0000 0.94640  0.51590  0.01502  Biso   1.000  N
  N2       1.0000 0.55360  0.48410  0.51502  Biso   1.000  N
  N3       1.0000 0.44640  0.98410  0.98498  Biso   1.000  N
  N4       1.0000 0.05360  0.01590  0.48498  Biso   1.000  N
  N5       1.0000 0.79450  0.24360  0.33945  Biso   1.000  N
  N6       1.0000 0.70550  0.75640  0.83945  Biso   1.000  N
  N7       1.0000 0.29450  0.25640  0.66055  Biso   1.000  N
  N8       1.0000 0.20550  0.74360  0.16055  Biso   1.000  N
  C1       1.0000 0.77320  0.43690  0.01200  Biso   1.000  C
  C2       1.0000 0.72680  0.56310  0.51200  Biso   1.000  C
  C3       1.0000 0.27320  0.06310  0.98800  Biso   1.000  C
  C4       1.0000 0.22680  0.93690  0.48800  Biso   1.000  C
  H1       1.0000 0.68670  0.43430  0.04900  Biso   1.000  H
  H2       1.0000 0.81330  0.56570  0.54900  Biso   1.000  H
  H3       1.0000 0.18670  0.06570  0.95100  Biso   1.000  H
  H4       1.0000 0.31330  0.93430  0.45100  Biso   1.000  H
  C5       1.0000 0.71700  0.35900  0.95650  Biso   1.000  C
  C6       1.0000 0.78300  0.64100  0.45650  Biso   1.000  C
  C7       1.0000 0.21700  0.14100  0.04350  Biso   1.000  C
  C8       1.0000 0.28300  0.85900  0.54350  Biso   1.000  C
  H5       1.0000 0.59230  0.30430  0.95540  Biso   1.000  H
  H6       1.0000 0.90770  0.69570  0.45540  Biso   1.000  H
  H7       1.0000 0.09230  0.19570  0.04460  Biso   1.000  H
  H8       1.0000 0.40770  0.80430  0.54460  Biso   1.000  H
  C9       1.0000 0.84040  0.36030  0.90310  Biso   1.000  C
  C10      1.0000 0.65960  0.63970  0.40310  Biso   1.000  C
  C11      1.0000 0.34040  0.13970  0.09690  Biso   1.000  C
  C12      1.0000 0.15960  0.86030  0.59690  Biso   1.000  C
  H9       1.0000 0.80410  0.30530  0.86490  Biso   1.000  H
  H10      1.0000 0.69590  0.69470  0.36490  Biso   1.000  H
  H11      1.0000 0.30410  0.19470  0.13510  Biso   1.000  H
  H12      1.0000 0.19590  0.80530  0.63510  Biso   1.000  H
  C13      1.0000 0.01870  0.44320  0.90570  Biso   1.000  C
  C14      1.0000 0.48130  0.55680  0.40570  Biso   1.000  C
  C15      1.0000 0.51870  0.05680  0.09430  Biso   1.000  C
  C16      1.0000 0.98130  0.94320  0.59430  Biso   1.000  C
  H13      1.0000 0.10740  0.44650  0.86930  Biso   1.000  H
  H14      1.0000 0.39260  0.55350  0.36930  Biso   1.000  H
  H15      1.0000 0.60740  0.05350  0.13070  Biso   1.000  H
  H16      1.0000 0.89260  0.94650  0.63070  Biso   1.000  H
  C17      1.0000 0.06600  0.52140  0.96225  Biso   1.000  C
  C18      1.0000 0.43400  0.47860  0.46225  Biso   1.000  C
  C19      1.0000 0.56600  0.97860  0.03775  Biso   1.000  C
  C20      1.0000 0.93400  0.02140  0.53775  Biso   1.000  C
  C21      1.0000 0.25050  0.62240  0.97047  Biso   1.000  C
  C22      1.0000 0.24950  0.37760  0.47047  Biso   1.000  C
  C23      1.0000 0.75050  0.87760  0.02953  Biso   1.000  C
  C24      1.0000 0.74950  0.12240  0.52953  Biso   1.000  C
  C25      1.0000 0.59440  0.22440  0.33067  Biso   1.000  C
  C26      1.0000 0.90560  0.77560  0.83067  Biso   1.000  C
  C27      1.0000 0.09440  0.27560  0.66933  Biso   1.000  C
  C28      1.0000 0.40560  0.72440  0.16933  Biso   1.000  C
  H17      1.0000 0.51850  0.17170  0.36310  Biso   1.000  H
  H18      1.0000 0.98150  0.82830  0.86310  Biso   1.000  H
  H19      1.0000 0.01850  0.32830  0.63690  Biso   1.000  H
  H20      1.0000 0.48150  0.67170  0.13690  Biso   1.000  H
  C29      1.0000 0.49520  0.27840  0.27635  Biso   1.000  C
  C30      1.0000 0.00480  0.72160  0.77635  Biso   1.000  C
  C31      1.0000 0.99520  0.22160  0.72365  Biso   1.000  C
  C32      1.0000 0.50480  0.77840  0.22365  Biso   1.000  C
  H21      1.0000 0.35360  0.26190  0.27130  Biso   1.000  H
  H22      1.0000 0.14640  0.73810  0.77130  Biso   1.000  H
  H23      1.0000 0.85360  0.23810  0.72870  Biso   1.000  H
  H24      1.0000 0.64640  0.76190  0.22870  Biso   1.000  H
  C33      1.0000 0.60270  0.35680  0.22925  Biso   1.000  C
  C34      1.0000 0.89730  0.64320  0.72925  Biso   1.000  C
  C35      1.0000 0.10270  0.14320  0.77075  Biso   1.000  C
  C36      1.0000 0.39730  0.85680  0.27075  Biso   1.000  C
  H25      1.0000 0.53590  0.39760  0.19210  Biso   1.000  H
  H26      1.0000 0.96410  0.60240  0.69210  Biso   1.000  H
  H27      1.0000 0.03590  0.10240  0.80790  Biso   1.000  H
  H28      1.0000 0.46410  0.89760  0.30790  Biso   1.000  H
  C37      1.0000 0.81040  0.37470  0.23723  Biso   1.000  C
  C38      1.0000 0.68960  0.62530  0.73723  Biso   1.000  C
  C39      1.0000 0.31040  0.12530  0.76277  Biso   1.000  C
  C40      1.0000 0.18960  0.87470  0.26277  Biso   1.000  C
  C41      1.0000 0.89890  0.31790  0.29338  Biso   1.000  C
  C42      1.0000 0.60110  0.68210  0.79338  Biso   1.000  C
  C43      1.0000 0.39890  0.18210  0.70662  Biso   1.000  C
  C44      1.0000 0.10110  0.81790  0.20662  Biso   1.000  C
  H29      1.0000 0.04050  0.33240  0.29950  Biso   1.000  H
  H30      1.0000 0.45950  0.66760  0.79950  Biso   1.000  H
  H31      1.0000 0.54050  0.16760  0.70050  Biso   1.000  H
  H32      1.0000 0.95950  0.83240  0.20050  Biso   1.000  H
  C45      1.0000 0.94310  0.44710  0.18619  Biso   1.000  C
  C46      1.0000 0.55690  0.55290  0.68619  Biso   1.000  C
  C47      1.0000 0.44310  0.05290  0.81381  Biso   1.000  C
  C48      1.0000 0.05690  0.94710  0.31381  Biso   1.000  C
