data_image0
_cell_length_a       13.802
_cell_length_b       6.8732
_cell_length_c       13.314
_cell_angle_alpha    90
_cell_angle_beta     103.03
_cell_angle_gamma    90

_symmetry_space_group_name_H-M    "P 1"
_symmetry_int_tables_number       1

loop_
  _symmetry_equiv_pos_as_xyz
  'x, y, z'

loop_
  _atom_site_label
  _atom_site_occupancy
  _atom_site_fract_x
  _atom_site_fract_y
  _atom_site_fract_z
  _atom_site_thermal_displace_type
  _atom_site_B_iso_or_equiv
  _atom_site_type_symbol
  Cu1      1.0000 0.94946  0.00000  0.11326  Biso   1.000  Cu
  Cu2      1.0000 0.44946  0.50000  0.11326  Biso   1.000  Cu
  Cu3      1.0000 0.05054  0.00000  0.88674  Biso   1.000  Cu
  Cu4      1.0000 0.55054  0.50000  0.88674  Biso   1.000  Cu
  Cl1      1.0000 0.80460  0.00000  0.16080  Biso   1.000  Cl
  Cl2      1.0000 0.30460  0.50000  0.16080  Biso   1.000  Cl
  Cl3      1.0000 0.19540  0.00000  0.83920  Biso   1.000  Cl
  Cl4      1.0000 0.69540  0.50000  0.83920  Biso   1.000  Cl
  Cl5      1.0000 0.11078  0.00000  0.09837  Biso   1.000  Cl
  Cl6      1.0000 0.61078  0.50000  0.09837  Biso   1.000  Cl
  Cl7      1.0000 0.88922  0.00000  0.90163  Biso   1.000  Cl
  Cl8      1.0000 0.38922  0.50000  0.90163  Biso   1.000  Cl
  S1       1.0000 0.08480  0.28530  0.30352  Biso   1.000  S
  S2       1.0000 0.58480  0.78530  0.30352  Biso   1.000  S
  S3       1.0000 0.91520  0.28530  0.69648  Biso   1.000  S
  S4       1.0000 0.41520  0.78530  0.69648  Biso   1.000  S
  S5       1.0000 0.91520  0.71470  0.69648  Biso   1.000  S
  S6       1.0000 0.41520  0.21470  0.69648  Biso   1.000  S
  S7       1.0000 0.08480  0.71470  0.30352  Biso   1.000  S
  S8       1.0000 0.58480  0.21470  0.30352  Biso   1.000  S
  S9       1.0000 0.14354  0.71370  0.55477  Biso   1.000  S
  S10      1.0000 0.64354  0.21370  0.55477  Biso   1.000  S
  S11      1.0000 0.85646  0.71370  0.44523  Biso   1.000  S
  S12      1.0000 0.35646  0.21370  0.44523  Biso   1.000  S
  S13      1.0000 0.85646  0.28630  0.44523  Biso   1.000  S
  S14      1.0000 0.35646  0.78630  0.44523  Biso   1.000  S
  S15      1.0000 0.14354  0.28630  0.55477  Biso   1.000  S
  S16      1.0000 0.64354  0.78630  0.55477  Biso   1.000  S
  N1       1.0000 0.95180  0.29670  0.12120  Biso   1.000  N
  N2       1.0000 0.45180  0.79670  0.12120  Biso   1.000  N
  N3       1.0000 0.04820  0.29670  0.87880  Biso   1.000  N
  N4       1.0000 0.54820  0.79670  0.87880  Biso   1.000  N
  N5       1.0000 0.04820  0.70330  0.87880  Biso   1.000  N
  N6       1.0000 0.54820  0.20330  0.87880  Biso   1.000  N
  N7       1.0000 0.95180  0.70330  0.12120  Biso   1.000  N
  N8       1.0000 0.45180  0.20330  0.12120  Biso   1.000  N
  C1       1.0000 0.89180  0.40190  0.04500  Biso   1.000  C
  C2       1.0000 0.39180  0.90190  0.04500  Biso   1.000  C
  C3       1.0000 0.10820  0.40190  0.95500  Biso   1.000  C
  C4       1.0000 0.60820  0.90190  0.95500  Biso   1.000  C
  C5       1.0000 0.10820  0.59810  0.95500  Biso   1.000  C
  C6       1.0000 0.60820  0.09810  0.95500  Biso   1.000  C
  C7       1.0000 0.89180  0.59810  0.04500  Biso   1.000  C
  C8       1.0000 0.39180  0.09810  0.04500  Biso   1.000  C
  C9       1.0000 0.00720  0.39590  0.19840  Biso   1.000  C
  C10      1.0000 0.50720  0.89590  0.19840  Biso   1.000  C
  C11      1.0000 0.99280  0.39590  0.80160  Biso   1.000  C
  C12      1.0000 0.49280  0.89590  0.80160  Biso   1.000  C
  C13      1.0000 0.99280  0.60410  0.80160  Biso   1.000  C
  C14      1.0000 0.49280  0.10410  0.80160  Biso   1.000  C
  C15      1.0000 0.00720  0.60410  0.19840  Biso   1.000  C
  C16      1.0000 0.50720  0.10410  0.19840  Biso   1.000  C
  C17      1.0000 0.10140  0.50000  0.37730  Biso   1.000  C
  C18      1.0000 0.60140  0.00000  0.37730  Biso   1.000  C
  C19      1.0000 0.89860  0.50000  0.62270  Biso   1.000  C
  C20      1.0000 0.39860  0.00000  0.62270  Biso   1.000  C
  C21      1.0000 0.12590  0.50000  0.48080  Biso   1.000  C
  C22      1.0000 0.62590  0.00000  0.48080  Biso   1.000  C
  C23      1.0000 0.87410  0.50000  0.51920  Biso   1.000  C
  C24      1.0000 0.37410  0.00000  0.51920  Biso   1.000  C
  C25      1.0000 0.17410  0.59600  0.67230  Biso   1.000  C
  C26      1.0000 0.67410  0.09600  0.67230  Biso   1.000  C
  C27      1.0000 0.82590  0.59600  0.32770  Biso   1.000  C
  C28      1.0000 0.32590  0.09600  0.32770  Biso   1.000  C
  C29      1.0000 0.82590  0.40400  0.32770  Biso   1.000  C
  C30      1.0000 0.32590  0.90400  0.32770  Biso   1.000  C
  C31      1.0000 0.17410  0.40400  0.67230  Biso   1.000  C
  C32      1.0000 0.67410  0.90400  0.67230  Biso   1.000  C
  H1       1.0000 0.84460  0.33220  0.99670  Biso   1.000  H
  H2       1.0000 0.34460  0.83220  0.99670  Biso   1.000  H
  H3       1.0000 0.15540  0.33220  0.00330  Biso   1.000  H
  H4       1.0000 0.65540  0.83220  0.00330  Biso   1.000  H
  H5       1.0000 0.15540  0.66780  0.00330  Biso   1.000  H
  H6       1.0000 0.65540  0.16780  0.00330  Biso   1.000  H
  H7       1.0000 0.84460  0.66780  0.99670  Biso   1.000  H
  H8       1.0000 0.34460  0.16780  0.99670  Biso   1.000  H
  H9       1.0000 0.19570  0.67870  0.73190  Biso   1.000  H
  H10      1.0000 0.69570  0.17870  0.73190  Biso   1.000  H
  H11      1.0000 0.80430  0.67870  0.26810  Biso   1.000  H
  H12      1.0000 0.30430  0.17870  0.26810  Biso   1.000  H
  H13      1.0000 0.80430  0.32130  0.26810  Biso   1.000  H
  H14      1.0000 0.30430  0.82130  0.26810  Biso   1.000  H
  H15      1.0000 0.19570  0.32130  0.73190  Biso   1.000  H
  H16      1.0000 0.69570  0.82130  0.73190  Biso   1.000  H
