data_image0
_cell_length_a       15.7
_cell_length_b       11.738
_cell_length_c       9.281
_cell_angle_alpha    98.61
_cell_angle_beta     97.34
_cell_angle_gamma    98.16

_symmetry_space_group_name_H-M    "P 1"
_symmetry_int_tables_number       1

loop_
  _symmetry_equiv_pos_as_xyz
  'x, y, z'

loop_
  _atom_site_label
  _atom_site_occupancy
  _atom_site_fract_x
  _atom_site_fract_y
  _atom_site_fract_z
  _atom_site_thermal_displace_type
  _atom_site_B_iso_or_equiv
  _atom_site_type_symbol
  Cu1      1.0000 0.13962  0.07351  0.18506  Biso   1.000  Cu
  Cu2      1.0000 0.86038  0.92649  0.81494  Biso   1.000  Cu
  P1       1.0000 0.49970  0.25440  0.68180  Biso   1.000  P
  P2       1.0000 0.50030  0.74560  0.31820  Biso   1.000  P
  O1       1.0000 0.09200  0.91670  0.21150  Biso   1.000  O
  O2       1.0000 0.90800  0.08330  0.78850  Biso   1.000  O
  O3       1.0000 0.05860  0.81190  0.38160  Biso   1.000  O
  O4       1.0000 0.94140  0.18810  0.61840  Biso   1.000  O
  O5       1.0000 0.20870  0.21530  0.16220  Biso   1.000  O
  O6       1.0000 0.79130  0.78470  0.83780  Biso   1.000  O
  O7       1.0000 0.39930  0.25840  0.69420  Biso   1.000  O
  O8       1.0000 0.60070  0.74160  0.30580  Biso   1.000  O
  O9       1.0000 0.51160  0.13340  0.70000  Biso   1.000  O
  O10      1.0000 0.48840  0.86660  0.30000  Biso   1.000  O
  O11      1.0000 0.55660  0.35430  0.78480  Biso   1.000  O
  O12      1.0000 0.44340  0.64570  0.21520  Biso   1.000  O
  O13      1.0000 0.51020  0.27630  0.51990  Biso   1.000  O
  O14      1.0000 0.48980  0.72370  0.48010  Biso   1.000  O
  O15      1.0000 0.10950  0.03880  0.96890  Biso   1.000  O
  O16      1.0000 0.89050  0.96120  0.03110  Biso   1.000  O
  N1       1.0000 0.36180  0.46860  0.31470  Biso   1.000  N
  N2       1.0000 0.63820  0.53140  0.68530  Biso   1.000  N
  N3       1.0000 0.18410  0.09570  0.39510  Biso   1.000  N
  N4       1.0000 0.81590  0.90430  0.60490  Biso   1.000  N
  C1       1.0000 0.30740  0.38840  0.21610  Biso   1.000  C
  C2       1.0000 0.69260  0.61160  0.78390  Biso   1.000  C
  C3       1.0000 0.26140  0.28990  0.26310  Biso   1.000  C
  C4       1.0000 0.73860  0.71010  0.73690  Biso   1.000  C
  C5       1.0000 0.27790  0.28170  0.41550  Biso   1.000  C
  C6       1.0000 0.72210  0.71830  0.58450  Biso   1.000  C
  C7       1.0000 0.33890  0.36910  0.51270  Biso   1.000  C
  C8       1.0000 0.66110  0.63090  0.48730  Biso   1.000  C
  C9       1.0000 0.37830  0.46200  0.46000  Biso   1.000  C
  C10      1.0000 0.62170  0.53800  0.54000  Biso   1.000  C
  C11      1.0000 0.09480  0.90200  0.34600  Biso   1.000  C
  C12      1.0000 0.90520  0.09800  0.65400  Biso   1.000  C
  C13      1.0000 0.14530  0.00010  0.45980  Biso   1.000  C
  C14      1.0000 0.85470  0.99990  0.54020  Biso   1.000  C
  C15      1.0000 0.18960  0.97050  0.60050  Biso   1.000  C
  C16      1.0000 0.81040  0.02950  0.39950  Biso   1.000  C
  C17      1.0000 0.11180  0.02720  0.60610  Biso   1.000  C
  C18      1.0000 0.88820  0.97280  0.39390  Biso   1.000  C
  C19      1.0000 0.29890  0.40180  0.05770  Biso   1.000  C
  C20      1.0000 0.70110  0.59820  0.94230  Biso   1.000  C
  C21      1.0000 0.23650  0.18230  0.47270  Biso   1.000  C
  C22      1.0000 0.76350  0.81770  0.52730  Biso   1.000  C
  C23      1.0000 0.36280  0.36290  0.67430  Biso   1.000  C
  C24      1.0000 0.63720  0.63710  0.32570  Biso   1.000  C
  Cu3      1.0000 0.64045  0.06688  0.66071  Biso   1.000  Cu
  Cu4      1.0000 0.35955  0.93312  0.33929  Biso   1.000  Cu
  P3       1.0000 0.98850  0.25470  0.24750  Biso   1.000  P
  P4       1.0000 0.01150  0.74530  0.75250  Biso   1.000  P
  O17      1.0000 0.58780  0.90670  0.66940  Biso   1.000  O
  O18      1.0000 0.41220  0.09330  0.33060  Biso   1.000  O
  O19      1.0000 0.56050  0.78520  0.82540  Biso   1.000  O
  O20      1.0000 0.43950  0.21480  0.17460  Biso   1.000  O
  O21      1.0000 0.71600  0.20860  0.65100  Biso   1.000  O
  O22      1.0000 0.28400  0.79140  0.34900  Biso   1.000  O
  O23      1.0000 0.88490  0.23900  0.20500  Biso   1.000  O
  O24      1.0000 0.11510  0.76100  0.79500  Biso   1.000  O
  O25      1.0000 0.00890  0.13510  0.20780  Biso   1.000  O
  O26      1.0000 0.99110  0.86490  0.79220  Biso   1.000  O
  O27      1.0000 0.03120  0.34980  0.17830  Biso   1.000  O
  O28      1.0000 0.96880  0.65020  0.82170  Biso   1.000  O
  O29      1.0000 0.00720  0.29880  0.41940  Biso   1.000  O
  O30      1.0000 0.99280  0.70120  0.58060  Biso   1.000  O
  O31      1.0000 0.61260  0.03750  0.44530  Biso   1.000  O
  O32      1.0000 0.38740  0.96250  0.55470  Biso   1.000  O
  N5       1.0000 0.87000  0.45290  0.83400  Biso   1.000  N
  N6       1.0000 0.13000  0.54710  0.16600  Biso   1.000  N
  N7       1.0000 0.67990  0.07520  0.87000  Biso   1.000  N
  N8       1.0000 0.32010  0.92480  0.13000  Biso   1.000  N
  C25      1.0000 0.81850  0.37730  0.72580  Biso   1.000  C
  C26      1.0000 0.18150  0.62270  0.27420  Biso   1.000  C
  C27      1.0000 0.76610  0.27750  0.75960  Biso   1.000  C
  C28      1.0000 0.23390  0.72250  0.24040  Biso   1.000  C
  C29      1.0000 0.77490  0.26320  0.91020  Biso   1.000  C
  C30      1.0000 0.22510  0.73680  0.08980  Biso   1.000  C
  C31      1.0000 0.83130  0.34730  0.01900  Biso   1.000  C
  C32      1.0000 0.16870  0.65270  0.98100  Biso   1.000  C
  C33      1.0000 0.87770  0.44120  0.97850  Biso   1.000  C
  C34      1.0000 0.12230  0.55880  0.02150  Biso   1.000  C
  C35      1.0000 0.59210  0.88040  0.80060  Biso   1.000  C
  C36      1.0000 0.40790  0.11960  0.19940  Biso   1.000  C
  C37      1.0000 0.64040  0.97380  0.92330  Biso   1.000  C
  C38      1.0000 0.35960  0.02620  0.07670  Biso   1.000  C
  C39      1.0000 0.68350  0.93600  0.05900  Biso   1.000  C
  C40      1.0000 0.31650  0.06400  0.94100  Biso   1.000  C
  C41      1.0000 0.60450  0.98890  0.06890  Biso   1.000  C
  C42      1.0000 0.39550  0.01110  0.93110  Biso   1.000  C
  C43      1.0000 0.81910  0.39970  0.57190  Biso   1.000  C
  C44      1.0000 0.18090  0.60030  0.42810  Biso   1.000  C
  C45      1.0000 0.73000  0.16040  0.95640  Biso   1.000  C
  C46      1.0000 0.27000  0.83960  0.04360  Biso   1.000  C
  C47      1.0000 0.84340  0.33840  0.18080  Biso   1.000  C
  C48      1.0000 0.15660  0.66160  0.81920  Biso   1.000  C
  O33      1.0000 0.58010  0.34240  0.09360  Biso   1.000  O
  O34      1.0000 0.41990  0.65760  0.90640  Biso   1.000  O
  O35      1.0000 0.65070  0.24200  0.32570  Biso   1.000  O
  O36      1.0000 0.34930  0.75800  0.67430  Biso   1.000  O
  O37      1.0000 0.06820  0.25220  0.89700  Biso   1.000  O
  O38      1.0000 0.93180  0.74780  0.10300  Biso   1.000  O
  O39      1.0000 0.14730  0.36890  0.68650  Biso   1.000  O
  O40      1.0000 0.85270  0.63110  0.31350  Biso   1.000  O
  H1       1.0000 0.48100  0.21600  0.45200  Biso   1.000  H
  H2       1.0000 0.51900  0.78400  0.54800  Biso   1.000  H
  H3       1.0000 0.39100  0.53600  0.28700  Biso   1.000  H
  H4       1.0000 0.60900  0.46400  0.71300  Biso   1.000  H
  H5       1.0000 0.42000  0.52500  0.51800  Biso   1.000  H
  H6       1.0000 0.58000  0.47500  0.48200  Biso   1.000  H
  H7       1.0000 0.18400  0.88400  0.60100  Biso   1.000  H
  H8       1.0000 0.81600  0.11600  0.39900  Biso   1.000  H
  H9       1.0000 0.24200  0.01900  0.63800  Biso   1.000  H
  H10      1.0000 0.75800  0.98100  0.36200  Biso   1.000  H
  H11      1.0000 0.11900  0.11100  0.64200  Biso   1.000  H
  H12      1.0000 0.88100  0.88900  0.35800  Biso   1.000  H
  H13      1.0000 0.06100  0.98300  0.61700  Biso   1.000  H
  H14      1.0000 0.93900  0.01700  0.38300  Biso   1.000  H
  H15      1.0000 0.30600  0.48300  0.04800  Biso   1.000  H
  H16      1.0000 0.69400  0.51700  0.95200  Biso   1.000  H
  H17      1.0000 0.24900  0.36600  0.01300  Biso   1.000  H
  H18      1.0000 0.75100  0.63400  0.98700  Biso   1.000  H
  H19      1.0000 0.34400  0.37200  0.02300  Biso   1.000  H
  H20      1.0000 0.65600  0.62800  0.97700  Biso   1.000  H
  H21      1.0000 0.25200  0.18200  0.56800  Biso   1.000  H
  H22      1.0000 0.74800  0.81800  0.43200  Biso   1.000  H
  H23      1.0000 0.30900  0.35800  0.72300  Biso   1.000  H
  H24      1.0000 0.69100  0.64200  0.27700  Biso   1.000  H
  H25      1.0000 0.40500  0.43300  0.72300  Biso   1.000  H
  H26      1.0000 0.59500  0.56700  0.27700  Biso   1.000  H
  H27      1.0000 0.99100  0.25800  0.47600  Biso   1.000  H
  H28      1.0000 0.00900  0.74200  0.52400  Biso   1.000  H
  H29      1.0000 0.90100  0.51800  0.81300  Biso   1.000  H
  H30      1.0000 0.09900  0.48200  0.18700  Biso   1.000  H
  H31      1.0000 0.91200  0.50400  0.05200  Biso   1.000  H
  H32      1.0000 0.08800  0.49600  0.94800  Biso   1.000  H
  H33      1.0000 0.67800  0.85100  0.05100  Biso   1.000  H
  H34      1.0000 0.32200  0.14900  0.94900  Biso   1.000  H
  H35      1.0000 0.73500  0.97900  0.09500  Biso   1.000  H
  H36      1.0000 0.26500  0.02100  0.90500  Biso   1.000  H
  H37      1.0000 0.61000  0.07100  0.11100  Biso   1.000  H
  H38      1.0000 0.39000  0.92900  0.88900  Biso   1.000  H
  H39      1.0000 0.55700  0.94000  0.06400  Biso   1.000  H
  H40      1.0000 0.44300  0.06000  0.93600  Biso   1.000  H
  H41      1.0000 0.83100  0.33500  0.51400  Biso   1.000  H
  H42      1.0000 0.16900  0.66500  0.48600  Biso   1.000  H
  H43      1.0000 0.77200  0.41300  0.53700  Biso   1.000  H
  H44      1.0000 0.22800  0.58700  0.46300  Biso   1.000  H
  H45      1.0000 0.86100  0.45900  0.56500  Biso   1.000  H
  H46      1.0000 0.13900  0.54100  0.43500  Biso   1.000  H
  H47      1.0000 0.74300  0.15800  0.05800  Biso   1.000  H
  H48      1.0000 0.25700  0.84200  0.94200  Biso   1.000  H
  H49      1.0000 0.79100  0.32500  0.21400  Biso   1.000  H
  H50      1.0000 0.20900  0.67500  0.78600  Biso   1.000  H
  H51      1.0000 0.87500  0.41400  0.23500  Biso   1.000  H
  H52      1.0000 0.12500  0.58600  0.76500  Biso   1.000  H
  H53      1.0000 0.06400  0.98100  0.92800  Biso   1.000  H
  H54      1.0000 0.93600  0.01900  0.07200  Biso   1.000  H
  H55      1.0000 0.10300  0.10400  0.92600  Biso   1.000  H
  H56      1.0000 0.89700  0.89600  0.07400  Biso   1.000  H
  H57      1.0000 0.56700  0.97600  0.39600  Biso   1.000  H
  H58      1.0000 0.43300  0.02400  0.60400  Biso   1.000  H
  H59      1.0000 0.61200  0.10100  0.39300  Biso   1.000  H
  H60      1.0000 0.38800  0.89900  0.60700  Biso   1.000  H
  H61      1.0000 0.56800  0.35100  0.98800  Biso   1.000  H
  H62      1.0000 0.43200  0.64900  0.01200  Biso   1.000  H
  H63      1.0000 0.61000  0.28300  0.39700  Biso   1.000  H
  H64      1.0000 0.39000  0.71700  0.60300  Biso   1.000  H
  H65      1.0000 0.07000  0.28000  0.00000  Biso   1.000  H
  H66      1.0000 0.93000  0.72000  0.00000  Biso   1.000  H
  H67      1.0000 0.00000  0.22000  0.86000  Biso   1.000  H
  H68      1.0000 0.00000  0.78000  0.14000  Biso   1.000  H
  H69      1.0000 0.11100  0.33700  0.76500  Biso   1.000  H
  H70      1.0000 0.88900  0.66300  0.23500  Biso   1.000  H
