data_image0
_cell_length_a       9.249
_cell_length_b       6.798
_cell_length_c       16.707
_cell_angle_alpha    90
_cell_angle_beta     100.275
_cell_angle_gamma    90

_symmetry_space_group_name_H-M    "P 1"
_symmetry_int_tables_number       1

loop_
  _symmetry_equiv_pos_as_xyz
  'x, y, z'

loop_
  _atom_site_label
  _atom_site_occupancy
  _atom_site_fract_x
  _atom_site_fract_y
  _atom_site_fract_z
  _atom_site_thermal_displace_type
  _atom_site_B_iso_or_equiv
  _atom_site_type_symbol
  O1       1.0000 0.36290  0.97400  0.31610  Biso   1.000  O
  O2       1.0000 0.63710  0.47400  0.18390  Biso   1.000  O
  O3       1.0000 0.63710  0.02600  0.68390  Biso   1.000  O
  O4       1.0000 0.36290  0.52600  0.81610  Biso   1.000  O
  Cu1      1.0000 0.48392  0.37281  0.23677  Biso   1.000  Cu
  Cu2      1.0000 0.51608  0.87281  0.26323  Biso   1.000  Cu
  Cu3      1.0000 0.51608  0.62719  0.76323  Biso   1.000  Cu
  Cu4      1.0000 0.48392  0.12719  0.73677  Biso   1.000  Cu
  O5       1.0000 0.31350  0.28440  0.27610  Biso   1.000  O
  O6       1.0000 0.68650  0.78440  0.22390  Biso   1.000  O
  O7       1.0000 0.68650  0.71560  0.72390  Biso   1.000  O
  O8       1.0000 0.31350  0.21560  0.77610  Biso   1.000  O
  N1       1.0000 0.51520  0.10800  0.19480  Biso   1.000  N
  N2       1.0000 0.48480  0.60800  0.30520  Biso   1.000  N
  N3       1.0000 0.48480  0.89200  0.80520  Biso   1.000  N
  N4       1.0000 0.51520  0.39200  0.69480  Biso   1.000  N
  C1       1.0000 0.28340  0.12350  0.30610  Biso   1.000  C
  C2       1.0000 0.71660  0.62350  0.19390  Biso   1.000  C
  C3       1.0000 0.71660  0.87650  0.69390  Biso   1.000  C
  C4       1.0000 0.28340  0.37650  0.80610  Biso   1.000  C
  C5       1.0000 0.13790  0.11360  0.33320  Biso   1.000  C
  C6       1.0000 0.86210  0.61360  0.16680  Biso   1.000  C
  C7       1.0000 0.86210  0.88640  0.66680  Biso   1.000  C
  C8       1.0000 0.13790  0.38640  0.83320  Biso   1.000  C
  N5       1.0000 0.57300  0.09470  0.13480  Biso   1.000  N
  N6       1.0000 0.42700  0.59470  0.36520  Biso   1.000  N
  N7       1.0000 0.42700  0.90530  0.86520  Biso   1.000  N
  N8       1.0000 0.57300  0.40530  0.63480  Biso   1.000  N
  C9       1.0000 0.95820  0.93750  0.39420  Biso   1.000  C
  C10      1.0000 0.04180  0.43750  0.10580  Biso   1.000  C
  C11      1.0000 0.04180  0.06250  0.60580  Biso   1.000  C
  C12      1.0000 0.95820  0.56250  0.89420  Biso   1.000  C
  C13      1.0000 0.09640  0.94810  0.36870  Biso   1.000  C
  C14      1.0000 0.90360  0.44810  0.13130  Biso   1.000  C
  C15      1.0000 0.90360  0.05190  0.63130  Biso   1.000  C
  C16      1.0000 0.09640  0.55190  0.86870  Biso   1.000  C
  H1       1.0000 0.15940  0.84040  0.37630  Biso   1.000  H
  H2       1.0000 0.84060  0.34040  0.12370  Biso   1.000  H
  H3       1.0000 0.84060  0.15960  0.62370  Biso   1.000  H
  H4       1.0000 0.15940  0.65960  0.87630  Biso   1.000  H
  C17      1.0000 0.86340  0.10160  0.38290  Biso   1.000  C
  C18      1.0000 0.13660  0.60160  0.11710  Biso   1.000  C
  C19      1.0000 0.13660  0.89840  0.61710  Biso   1.000  C
  C20      1.0000 0.86340  0.39840  0.88290  Biso   1.000  C
  C21      1.0000 0.04320  0.27890  0.32310  Biso   1.000  C
  C22      1.0000 0.95680  0.77890  0.17690  Biso   1.000  C
  C23      1.0000 0.95680  0.72110  0.67690  Biso   1.000  C
  C24      1.0000 0.04320  0.22110  0.82310  Biso   1.000  C
  H5       1.0000 0.07290  0.39460  0.30110  Biso   1.000  H
  H6       1.0000 0.92710  0.89460  0.19890  Biso   1.000  H
  H7       1.0000 0.92710  0.60540  0.69890  Biso   1.000  H
  H8       1.0000 0.07290  0.10540  0.80110  Biso   1.000  H
  C25      1.0000 0.90700  0.26910  0.34580  Biso   1.000  C
  C26      1.0000 0.09300  0.76910  0.15420  Biso   1.000  C
  C27      1.0000 0.09300  0.73090  0.65420  Biso   1.000  C
  C28      1.0000 0.90700  0.23090  0.84580  Biso   1.000  C
  H9       1.0000 0.84360  0.37600  0.33610  Biso   1.000  H
  H10      1.0000 0.15640  0.87600  0.16390  Biso   1.000  H
  H11      1.0000 0.15640  0.62400  0.66390  Biso   1.000  H
  H12      1.0000 0.84360  0.12400  0.83610  Biso   1.000  H
  C29      1.0000 0.72580  0.08900  0.40880  Biso   1.000  C
  C30      1.0000 0.27420  0.58900  0.09120  Biso   1.000  C
  C31      1.0000 0.27420  0.91100  0.59120  Biso   1.000  C
  C32      1.0000 0.72580  0.41100  0.90880  Biso   1.000  C
  H13      1.0000 0.66110  0.19490  0.40100  Biso   1.000  H
  H14      1.0000 0.33890  0.69490  0.09900  Biso   1.000  H
  H15      1.0000 0.33890  0.80510  0.59900  Biso   1.000  H
  H16      1.0000 0.66110  0.30510  0.90100  Biso   1.000  H
  N9       1.0000 0.62520  0.08670  0.07830  Biso   1.000  N
  N10      1.0000 0.37480  0.58670  0.42170  Biso   1.000  N
  N11      1.0000 0.37480  0.91330  0.92170  Biso   1.000  N
  N12      1.0000 0.62520  0.41330  0.57830  Biso   1.000  N
  C33      1.0000 0.91650  0.76870  0.43120  Biso   1.000  C
  C34      1.0000 0.08350  0.26870  0.06880  Biso   1.000  C
  C35      1.0000 0.08350  0.23130  0.56880  Biso   1.000  C
  C36      1.0000 0.91650  0.73130  0.93120  Biso   1.000  C
  H17      1.0000 0.98020  0.66180  0.43970  Biso   1.000  H
  H18      1.0000 0.01980  0.16180  0.06030  Biso   1.000  H
  H19      1.0000 0.01980  0.33820  0.56030  Biso   1.000  H
  H20      1.0000 0.98020  0.83820  0.93970  Biso   1.000  H
  C37      1.0000 0.78150  0.75790  0.45540  Biso   1.000  C
  C38      1.0000 0.21850  0.25790  0.04460  Biso   1.000  C
  C39      1.0000 0.21850  0.24210  0.54460  Biso   1.000  C
  C40      1.0000 0.78150  0.74210  0.95540  Biso   1.000  C
  H21      1.0000 0.75250  0.64300  0.47830  Biso   1.000  H
  H22      1.0000 0.24750  0.14300  0.02170  Biso   1.000  H
  H23      1.0000 0.24750  0.35700  0.52170  Biso   1.000  H
  H24      1.0000 0.75250  0.85700  0.97830  Biso   1.000  H
  C41      1.0000 0.68840  0.92310  0.44500  Biso   1.000  C
  C42      1.0000 0.31160  0.42310  0.05500  Biso   1.000  C
  C43      1.0000 0.31160  0.07690  0.55500  Biso   1.000  C
  C44      1.0000 0.68840  0.57690  0.94500  Biso   1.000  C
  H25      1.0000 0.59930  0.91820  0.46330  Biso   1.000  H
  H26      1.0000 0.40070  0.41820  0.03670  Biso   1.000  H
  H27      1.0000 0.40070  0.08180  0.53670  Biso   1.000  H
  H28      1.0000 0.59930  0.58180  0.96330  Biso   1.000  H
