data_image0
_cell_length_a       10.815
_cell_length_b       9.072
_cell_length_c       19.985
_cell_angle_alpha    90
_cell_angle_beta     98.64
_cell_angle_gamma    90

_symmetry_space_group_name_H-M    "P 1"
_symmetry_int_tables_number       1

loop_
  _symmetry_equiv_pos_as_xyz
  'x, y, z'

loop_
  _atom_site_label
  _atom_site_occupancy
  _atom_site_fract_x
  _atom_site_fract_y
  _atom_site_fract_z
  _atom_site_thermal_displace_type
  _atom_site_B_iso_or_equiv
  _atom_site_type_symbol
  Br1      1.0000 0.72838  0.25920  0.48485  Biso   1.000  Br
  Br2      1.0000 0.22838  0.24080  0.98485  Biso   1.000  Br
  Br3      1.0000 0.27162  0.74080  0.51515  Biso   1.000  Br
  Br4      1.0000 0.77162  0.75920  0.01515  Biso   1.000  Br
  Cu1      1.0000 0.16319  0.39880  0.34553  Biso   1.000  Cu
  Cu2      1.0000 0.66319  0.10120  0.84553  Biso   1.000  Cu
  Cu3      1.0000 0.83681  0.60120  0.65447  Biso   1.000  Cu
  Cu4      1.0000 0.33681  0.89880  0.15447  Biso   1.000  Cu
  Cl1      1.0000 0.18100  0.40890  0.45841  Biso   1.000  Cl
  Cl2      1.0000 0.68100  0.09110  0.95841  Biso   1.000  Cl
  Cl3      1.0000 0.81900  0.59110  0.54159  Biso   1.000  Cl
  Cl4      1.0000 0.31900  0.90890  0.04159  Biso   1.000  Cl
  Cl5      1.0000 0.30380  0.21920  0.34960  Biso   1.000  Cl
  Cl6      1.0000 0.80380  0.28080  0.84960  Biso   1.000  Cl
  Cl7      1.0000 0.69620  0.78080  0.65040  Biso   1.000  Cl
  Cl8      1.0000 0.19620  0.71920  0.15040  Biso   1.000  Cl
  O1       1.0000 0.27610  0.60310  0.32850  Biso   1.000  O
  O2       1.0000 0.77610  0.89690  0.82850  Biso   1.000  O
  O3       1.0000 0.72390  0.39690  0.67150  Biso   1.000  O
  O4       1.0000 0.22390  0.10310  0.17150  Biso   1.000  O
  O5       1.0000 0.11460  0.90140  0.34890  Biso   1.000  O
  O6       1.0000 0.61460  0.59860  0.84890  Biso   1.000  O
  O7       1.0000 0.88540  0.09860  0.65110  Biso   1.000  O
  O8       1.0000 0.38540  0.40140  0.15110  Biso   1.000  O
  O9       1.0000 0.98970  0.07850  0.29470  Biso   1.000  O
  O10      1.0000 0.48970  0.42150  0.79470  Biso   1.000  O
  O11      1.0000 0.01030  0.92150  0.70530  Biso   1.000  O
  O12      1.0000 0.51030  0.57850  0.20530  Biso   1.000  O
  N1       1.0000 0.46290  0.70350  0.37380  Biso   1.000  N
  N2       1.0000 0.96290  0.79650  0.87380  Biso   1.000  N
  N3       1.0000 0.53710  0.29650  0.62620  Biso   1.000  N
  N4       1.0000 0.03710  0.20350  0.12620  Biso   1.000  N
  N5       1.0000 0.37960  0.89760  0.25780  Biso   1.000  N
  N6       1.0000 0.87960  0.60240  0.75780  Biso   1.000  N
  N7       1.0000 0.62040  0.10240  0.74220  Biso   1.000  N
  N8       1.0000 0.12040  0.39760  0.24220  Biso   1.000  N
  N9       1.0000 0.50030  0.01040  0.16790  Biso   1.000  N
  N10      1.0000 0.00030  0.48960  0.66790  Biso   1.000  N
  N11      1.0000 0.49970  0.98960  0.83210  Biso   1.000  N
  N12      1.0000 0.99970  0.51040  0.33210  Biso   1.000  N
  C1       1.0000 0.34470  0.70880  0.33740  Biso   1.000  C
  C2       1.0000 0.84470  0.79120  0.83740  Biso   1.000  C
  C3       1.0000 0.65530  0.29120  0.66260  Biso   1.000  C
  C4       1.0000 0.15530  0.20880  0.16260  Biso   1.000  C
  C5       1.0000 0.30250  0.85900  0.31080  Biso   1.000  C
  C6       1.0000 0.80250  0.64100  0.81080  Biso   1.000  C
  C7       1.0000 0.69750  0.14100  0.68920  Biso   1.000  C
  C8       1.0000 0.19750  0.35900  0.18920  Biso   1.000  C
  C9       1.0000 0.49170  0.94700  0.28160  Biso   1.000  C
  C10      1.0000 0.99170  0.55300  0.78160  Biso   1.000  C
  C11      1.0000 0.50830  0.05300  0.71840  Biso   1.000  C
  C12      1.0000 0.00830  0.44700  0.21840  Biso   1.000  C
  C13      1.0000 0.60130  0.07520  0.38180  Biso   1.000  C
  C14      1.0000 0.10130  0.42480  0.88180  Biso   1.000  C
  C15      1.0000 0.39870  0.92480  0.61820  Biso   1.000  C
  C16      1.0000 0.89870  0.57520  0.11820  Biso   1.000  C
  C17      1.0000 0.65630  0.07950  0.44850  Biso   1.000  C
  C18      1.0000 0.15630  0.42050  0.94850  Biso   1.000  C
  C19      1.0000 0.34370  0.92050  0.55150  Biso   1.000  C
  C20      1.0000 0.84370  0.57950  0.05150  Biso   1.000  C
  C21      1.0000 0.65410  0.95940  0.48710  Biso   1.000  C
  C22      1.0000 0.15410  0.54060  0.98710  Biso   1.000  C
  C23      1.0000 0.34590  0.04060  0.51290  Biso   1.000  C
  C24      1.0000 0.84590  0.45940  0.01290  Biso   1.000  C
  C25      1.0000 0.59180  0.83480  0.46450  Biso   1.000  C
  C26      1.0000 0.09180  0.66520  0.96450  Biso   1.000  C
  C27      1.0000 0.40820  0.16520  0.53550  Biso   1.000  C
  C28      1.0000 0.90820  0.33480  0.03550  Biso   1.000  C
  C29      1.0000 0.49970  0.55700  0.40250  Biso   1.000  C
  C30      1.0000 0.99970  0.94300  0.90250  Biso   1.000  C
  C31      1.0000 0.50030  0.44300  0.59750  Biso   1.000  C
  C32      1.0000 0.00030  0.05700  0.09750  Biso   1.000  C
  C33      1.0000 0.16420  0.86780  0.28710  Biso   1.000  C
  C34      1.0000 0.66420  0.63220  0.78710  Biso   1.000  C
  C35      1.0000 0.83580  0.13220  0.71290  Biso   1.000  C
  C36      1.0000 0.33580  0.36780  0.21290  Biso   1.000  C
  C37      1.0000 0.03130  0.01400  0.34440  Biso   1.000  C
  C38      1.0000 0.53130  0.48600  0.84440  Biso   1.000  C
  C39      1.0000 0.96870  0.98600  0.65560  Biso   1.000  C
  C40      1.0000 0.46870  0.51400  0.15560  Biso   1.000  C
  C41      1.0000 0.99200  0.04500  0.41170  Biso   1.000  C
  C42      1.0000 0.49200  0.45500  0.91170  Biso   1.000  C
  C43      1.0000 0.00800  0.95500  0.58830  Biso   1.000  C
  C44      1.0000 0.50800  0.54500  0.08830  Biso   1.000  C
  C45      1.0000 0.56480  0.00190  0.23050  Biso   1.000  C
  C46      1.0000 0.06480  0.49810  0.73050  Biso   1.000  C
  C47      1.0000 0.43520  0.99810  0.76950  Biso   1.000  C
  C48      1.0000 0.93520  0.50190  0.26950  Biso   1.000  C
  C49      1.0000 0.55310  0.06900  0.11930  Biso   1.000  C
  C50      1.0000 0.05310  0.43100  0.61930  Biso   1.000  C
  C51      1.0000 0.44690  0.93100  0.88070  Biso   1.000  C
  C52      1.0000 0.94690  0.56900  0.38070  Biso   1.000  C
  C53      1.0000 0.67260  0.13100  0.13070  Biso   1.000  C
  C54      1.0000 0.17260  0.36900  0.63070  Biso   1.000  C
  C55      1.0000 0.32740  0.86900  0.86930  Biso   1.000  C
  C56      1.0000 0.82740  0.63100  0.36930  Biso   1.000  C
  C57      1.0000 0.74560  0.11200  0.19530  Biso   1.000  C
  C58      1.0000 0.24560  0.38800  0.69530  Biso   1.000  C
  C59      1.0000 0.25440  0.88800  0.80470  Biso   1.000  C
  C60      1.0000 0.75440  0.61200  0.30470  Biso   1.000  C
  C61      1.0000 0.68900  0.04900  0.24530  Biso   1.000  C
  C62      1.0000 0.18900  0.45100  0.74530  Biso   1.000  C
  C63      1.0000 0.31100  0.95100  0.75470  Biso   1.000  C
  C64      1.0000 0.81100  0.54900  0.25470  Biso   1.000  C
  C65      1.0000 0.54480  0.95040  0.35490  Biso   1.000  C
  C66      1.0000 0.04480  0.54960  0.85490  Biso   1.000  C
  C67      1.0000 0.45520  0.04960  0.64510  Biso   1.000  C
  C68      1.0000 0.95520  0.45040  0.14510  Biso   1.000  C
  C69      1.0000 0.52970  0.82800  0.39550  Biso   1.000  C
  C70      1.0000 0.02970  0.67200  0.89550  Biso   1.000  C
  C71      1.0000 0.47030  0.17200  0.60450  Biso   1.000  C
  C72      1.0000 0.97030  0.32800  0.10450  Biso   1.000  C
  H1       1.0000 0.32274  0.92953  0.34795  Biso   1.000  H
  H2       1.0000 0.82274  0.57047  0.84795  Biso   1.000  H
  H3       1.0000 0.67726  0.07047  0.65205  Biso   1.000  H
  H4       1.0000 0.17726  0.42953  0.15205  Biso   1.000  H
  H5       1.0000 0.60274  0.15866  0.35491  Biso   1.000  H
  H6       1.0000 0.10274  0.34134  0.85491  Biso   1.000  H
  H7       1.0000 0.39726  0.84134  0.64509  Biso   1.000  H
  H8       1.0000 0.89726  0.65866  0.14509  Biso   1.000  H
  H9       1.0000 0.69680  0.96129  0.53115  Biso   1.000  H
  H10      1.0000 0.19680  0.53871  0.03115  Biso   1.000  H
  H11      1.0000 0.30320  0.03871  0.46885  Biso   1.000  H
  H12      1.0000 0.80320  0.46129  0.96885  Biso   1.000  H
  H13      1.0000 0.58930  0.75452  0.49324  Biso   1.000  H
  H14      1.0000 0.08930  0.74548  0.99324  Biso   1.000  H
  H15      1.0000 0.41070  0.24548  0.50676  Biso   1.000  H
  H16      1.0000 0.91070  0.25452  0.00676  Biso   1.000  H
  H17      1.0000 0.47188  0.48212  0.36968  Biso   1.000  H
  H18      1.0000 0.97188  0.01788  0.86968  Biso   1.000  H
  H19      1.0000 0.52812  0.51788  0.63032  Biso   1.000  H
  H20      1.0000 0.02812  0.98212  0.13032  Biso   1.000  H
  H21      1.0000 0.58910  0.55247  0.41386  Biso   1.000  H
  H22      1.0000 0.08910  0.94753  0.91386  Biso   1.000  H
  H23      1.0000 0.41090  0.44753  0.58614  Biso   1.000  H
  H24      1.0000 0.91090  0.05247  0.08614  Biso   1.000  H
  H25      1.0000 0.46214  0.54113  0.44244  Biso   1.000  H
  H26      1.0000 0.96214  0.95887  0.94244  Biso   1.000  H
  H27      1.0000 0.53786  0.45887  0.55756  Biso   1.000  H
  H28      1.0000 0.03786  0.04113  0.05756  Biso   1.000  H
  H29      1.0000 0.13185  0.77488  0.26792  Biso   1.000  H
  H30      1.0000 0.63185  0.72512  0.76792  Biso   1.000  H
  H31      1.0000 0.86815  0.22512  0.73208  Biso   1.000  H
  H32      1.0000 0.36815  0.27488  0.23208  Biso   1.000  H
  H33      1.0000 0.14445  0.94522  0.25376  Biso   1.000  H
  H34      1.0000 0.64445  0.55478  0.75376  Biso   1.000  H
  H35      1.0000 0.85555  0.05478  0.74624  Biso   1.000  H
  H36      1.0000 0.35555  0.44522  0.24624  Biso   1.000  H
  H37      1.0000 0.91660  0.10231  0.40546  Biso   1.000  H
  H38      1.0000 0.41660  0.39769  0.90546  Biso   1.000  H
  H39      1.0000 0.08340  0.89769  0.59454  Biso   1.000  H
  H40      1.0000 0.58340  0.60231  0.09454  Biso   1.000  H
  H41      1.0000 0.97684  0.95303  0.43321  Biso   1.000  H
  H42      1.0000 0.47684  0.54697  0.93321  Biso   1.000  H
  H43      1.0000 0.02316  0.04697  0.56679  Biso   1.000  H
  H44      1.0000 0.52316  0.45303  0.06679  Biso   1.000  H
  H45      1.0000 0.05682  0.09785  0.43969  Biso   1.000  H
  H46      1.0000 0.55682  0.40215  0.93969  Biso   1.000  H
  H47      1.0000 0.94318  0.90215  0.56031  Biso   1.000  H
  H48      1.0000 0.44318  0.59785  0.06031  Biso   1.000  H
  H49      1.0000 0.50922  0.06933  0.07551  Biso   1.000  H
  H50      1.0000 0.00922  0.43067  0.57551  Biso   1.000  H
  H51      1.0000 0.49078  0.93067  0.92449  Biso   1.000  H
  H52      1.0000 0.99078  0.56933  0.42449  Biso   1.000  H
  H53      1.0000 0.70359  0.18323  0.09677  Biso   1.000  H
  H54      1.0000 0.20359  0.31677  0.59677  Biso   1.000  H
  H55      1.0000 0.29641  0.81677  0.90323  Biso   1.000  H
  H56      1.0000 0.79641  0.68323  0.40323  Biso   1.000  H
  H57      1.0000 0.82887  0.14191  0.20344  Biso   1.000  H
  H58      1.0000 0.32887  0.35809  0.70344  Biso   1.000  H
  H59      1.0000 0.17113  0.85809  0.79656  Biso   1.000  H
  H60      1.0000 0.67113  0.64191  0.29656  Biso   1.000  H
  H61      1.0000 0.73291  0.03853  0.28877  Biso   1.000  H
  H62      1.0000 0.23291  0.46147  0.78877  Biso   1.000  H
  H63      1.0000 0.26709  0.96147  0.71123  Biso   1.000  H
  H64      1.0000 0.76709  0.53853  0.21123  Biso   1.000  H
