data_image0
_cell_length_a       7.802
_cell_length_b       12.023
_cell_length_c       13.205
_cell_angle_alpha    70.408
_cell_angle_beta     78.596
_cell_angle_gamma    85.879

_symmetry_space_group_name_H-M    "P 1"
_symmetry_int_tables_number       1

loop_
  _symmetry_equiv_pos_as_xyz
  'x, y, z'

loop_
  _atom_site_label
  _atom_site_occupancy
  _atom_site_fract_x
  _atom_site_fract_y
  _atom_site_fract_z
  _atom_site_thermal_displace_type
  _atom_site_B_iso_or_equiv
  _atom_site_type_symbol
  Cu1      1.0000 0.50821  0.52262  0.79451  Biso   1.000  Cu
  Cu2      1.0000 0.49179  0.47738  0.20549  Biso   1.000  Cu
  Cu3      1.0000 0.71066  0.07835  0.09518  Biso   1.000  Cu
  Cu4      1.0000 0.28934  0.92165  0.90482  Biso   1.000  Cu
  S1       1.0000 0.17129  0.77610  0.55166  Biso   1.000  S
  S2       1.0000 0.82871  0.22390  0.44834  Biso   1.000  S
  S3       1.0000 0.32850  0.30654  0.87364  Biso   1.000  S
  S4       1.0000 0.67150  0.69346  0.12636  Biso   1.000  S
  O1       1.0000 0.65070  0.43450  0.08573  Biso   1.000  O
  O2       1.0000 0.34930  0.56550  0.91427  Biso   1.000  O
  O3       1.0000 0.15300  0.89499  0.05637  Biso   1.000  O
  O4       1.0000 0.84700  0.10501  0.94363  Biso   1.000  O
  O5       1.0000 0.82940  0.22040  0.14326  Biso   1.000  O
  O6       1.0000 0.17060  0.77960  0.85674  Biso   1.000  O
  H1       1.0000 0.77140  0.29400  0.11990  Biso   1.000  H
  H2       1.0000 0.22860  0.70600  0.88010  Biso   1.000  H
  N1       1.0000 0.35530  0.61300  0.69480  Biso   1.000  N
  N2       1.0000 0.64470  0.38700  0.30520  Biso   1.000  N
  N3       1.0000 0.66720  0.47540  0.90040  Biso   1.000  N
  N4       1.0000 0.33280  0.52460  0.09960  Biso   1.000  N
  N5       1.0000 0.68060  0.48800  0.66990  Biso   1.000  N
  N6       1.0000 0.31940  0.51200  0.33010  Biso   1.000  N
  N7       1.0000 0.52920  0.17850  0.02640  Biso   1.000  N
  N8       1.0000 0.47080  0.82150  0.97360  Biso   1.000  N
  N9       1.0000 0.89840  0.96620  0.13710  Biso   1.000  N
  N10      1.0000 0.10160  0.03380  0.86290  Biso   1.000  N
  N11      1.0000 0.54330  0.01910  0.24450  Biso   1.000  N
  N12      1.0000 0.45670  0.98090  0.75550  Biso   1.000  N
  C1       1.0000 0.27890  0.68060  0.63530  Biso   1.000  C
  C2       1.0000 0.72110  0.31940  0.36470  Biso   1.000  C
  C3       1.0000 0.59120  0.47440  0.99650  Biso   1.000  C
  C4       1.0000 0.40880  0.52560  0.00350  Biso   1.000  C
  C5       1.0000 0.84530  0.42580  0.88890  Biso   1.000  C
  C6       1.0000 0.15470  0.57420  0.11110  Biso   1.000  C
  H3       1.0000 0.84030  0.34070  0.92290  Biso   1.000  H
  H4       1.0000 0.15970  0.65930  0.07710  Biso   1.000  H
  H5       1.0000 0.91480  0.45680  0.92660  Biso   1.000  H
  H6       1.0000 0.08520  0.54320  0.07340  Biso   1.000  H
  C7       1.0000 0.93120  0.45560  0.77120  Biso   1.000  C
  C8       1.0000 0.06880  0.54440  0.22880  Biso   1.000  C
  H7       1.0000 0.04770  0.42140  0.76700  Biso   1.000  H
  H8       1.0000 0.95230  0.57860  0.23300  Biso   1.000  H
  H9       1.0000 0.94300  0.54060  0.73890  Biso   1.000  H
  H10      1.0000 0.05700  0.45940  0.26110  Biso   1.000  H
  C9       1.0000 0.83130  0.41200  0.70590  Biso   1.000  C
  C10      1.0000 0.16870  0.58800  0.29410  Biso   1.000  C
  H11      1.0000 0.91100  0.40550  0.64170  Biso   1.000  H
  H12      1.0000 0.08900  0.59450  0.35830  Biso   1.000  H
  H13      1.0000 0.78830  0.33340  0.74960  Biso   1.000  H
  H14      1.0000 0.21170  0.66660  0.25040  Biso   1.000  H
  C11      1.0000 0.74280  0.60190  0.58820  Biso   1.000  C
  C12      1.0000 0.25720  0.39810  0.41180  Biso   1.000  C
  H15      1.0000 0.78440  0.64950  0.62390  Biso   1.000  H
  H16      1.0000 0.21560  0.35050  0.37610  Biso   1.000  H
  H17      1.0000 0.64830  0.64220  0.55350  Biso   1.000  H
  H18      1.0000 0.35170  0.35780  0.44650  Biso   1.000  H
  H19      1.0000 0.83610  0.58830  0.53420  Biso   1.000  H
  H20      1.0000 0.16390  0.41170  0.46580  Biso   1.000  H
  C13      1.0000 0.58920  0.42370  0.61720  Biso   1.000  C
  C14      1.0000 0.41080  0.57630  0.38280  Biso   1.000  C
  H21      1.0000 0.48770  0.46790  0.59500  Biso   1.000  H
  H22      1.0000 0.51230  0.53210  0.40500  Biso   1.000  H
  H23      1.0000 0.55430  0.34730  0.66830  Biso   1.000  H
  H24      1.0000 0.44570  0.65270  0.33170  Biso   1.000  H
  H25      1.0000 0.66680  0.41470  0.55420  Biso   1.000  H
  H26      1.0000 0.33320  0.58530  0.44580  Biso   1.000  H
  C15      1.0000 0.44730  0.23110  0.96240  Biso   1.000  C
  C16      1.0000 0.55270  0.76890  0.03760  Biso   1.000  C
  C17      1.0000 0.01590  0.95980  0.05500  Biso   1.000  C
  C18      1.0000 0.98410  0.04020  0.94500  Biso   1.000  C
  C19      1.0000 0.92370  0.89470  0.24710  Biso   1.000  C
  C20      1.0000 0.07630  0.10530  0.75290  Biso   1.000  C
  H27      1.0000 0.99270  0.93840  0.27440  Biso   1.000  H
  H28      1.0000 0.00730  0.06160  0.72560  Biso   1.000  H
  H29      1.0000 0.98740  0.82320  0.24420  Biso   1.000  H
  H30      1.0000 0.01260  0.17680  0.75580  Biso   1.000  H
  C21      1.0000 0.75240  0.86290  0.32310  Biso   1.000  C
  C22      1.0000 0.24760  0.13710  0.67690  Biso   1.000  C
  H31      1.0000 0.77500  0.81390  0.39430  Biso   1.000  H
  H32      1.0000 0.22500  0.18610  0.60570  Biso   1.000  H
  H33      1.0000 0.68800  0.81550  0.29680  Biso   1.000  H
  H34      1.0000 0.31200  0.18450  0.70320  Biso   1.000  H
  C23      1.0000 0.63840  0.96390  0.33760  Biso   1.000  C
  C24      1.0000 0.36160  0.03610  0.66240  Biso   1.000  C
  H35      1.0000 0.70980  0.02320  0.34380  Biso   1.000  H
  H36      1.0000 0.29020  0.97680  0.65620  Biso   1.000  H
  H37      1.0000 0.55380  0.93610  0.40510  Biso   1.000  H
  H38      1.0000 0.44620  0.06390  0.59490  Biso   1.000  H
  C25      1.0000 0.41300  0.93940  0.23960  Biso   1.000  C
  C26      1.0000 0.58700  0.06060  0.76040  Biso   1.000  C
  H39      1.0000 0.33580  0.91190  0.30910  Biso   1.000  H
  H40      1.0000 0.66420  0.08810  0.69090  Biso   1.000  H
  H41      1.0000 0.47140  0.87320  0.22230  Biso   1.000  H
  H42      1.0000 0.52860  0.12680  0.77770  Biso   1.000  H
  H43      1.0000 0.34670  0.98110  0.18410  Biso   1.000  H
  H44      1.0000 0.65330  0.01890  0.81590  Biso   1.000  H
  C27      1.0000 0.44600  0.12460  0.26400  Biso   1.000  C
  C28      1.0000 0.55400  0.87540  0.73600  Biso   1.000  C
  H45      1.0000 0.38830  0.16470  0.20370  Biso   1.000  H
  H46      1.0000 0.61170  0.83530  0.79630  Biso   1.000  H
  H47      1.0000 0.52680  0.17730  0.27050  Biso   1.000  H
  H48      1.0000 0.47320  0.82270  0.72950  Biso   1.000  H
  H49      1.0000 0.36070  0.09930  0.33030  Biso   1.000  H
  H50      1.0000 0.63930  0.90070  0.66970  Biso   1.000  H
  C29      1.0000 0.00630  0.23300  0.14630  Biso   1.000  C
  C30      1.0000 0.99370  0.76700  0.85370  Biso   1.000  C
  H51      1.0000 0.06670  0.15940  0.15150  Biso   1.000  H
  H52      1.0000 0.93330  0.84060  0.84850  Biso   1.000  H
  H53      1.0000 0.01370  0.25520  0.20870  Biso   1.000  H
  H54      1.0000 0.98630  0.74480  0.79130  Biso   1.000  H
  H55      1.0000 0.05900  0.29300  0.08070  Biso   1.000  H
  H56      1.0000 0.94100  0.70700  0.91930  Biso   1.000  H
  C31      1.0000 0.79790  0.91960  0.33680  Biso   1.000  C
  C32      1.0000 0.20210  0.08040  0.66320  Biso   1.000  C
  C33      1.0000 0.61180  0.91200  0.32900  Biso   1.000  C
  C34      1.0000 0.38820  0.08800  0.67100  Biso   1.000  C
  C35      1.0000 0.39500  0.97100  0.21340  Biso   1.000  C
  C36      1.0000 0.60500  0.02900  0.78660  Biso   1.000  C
  C37      1.0000 0.47500  0.10680  0.29900  Biso   1.000  C
  C38      1.0000 0.52500  0.89320  0.70100  Biso   1.000  C
  H57      1.0000 0.04100  0.90780  0.25470  Biso   1.000  H
  H58      1.0000 0.95900  0.09220  0.74530  Biso   1.000  H
  H59      1.0000 0.91560  0.81210  0.25460  Biso   1.000  H
  H60      1.0000 0.08440  0.18790  0.74540  Biso   1.000  H
  H61      1.0000 0.81960  0.99820  0.33630  Biso   1.000  H
  H62      1.0000 0.18040  0.00180  0.66370  Biso   1.000  H
  H63      1.0000 0.81820  0.86400  0.40600  Biso   1.000  H
  H64      1.0000 0.18180  0.13600  0.59400  Biso   1.000  H
  H65      1.0000 0.54000  0.90240  0.40020  Biso   1.000  H
  H66      1.0000 0.46000  0.09760  0.59980  Biso   1.000  H
  H67      1.0000 0.59760  0.84200  0.31070  Biso   1.000  H
  H68      1.0000 0.40240  0.15800  0.68930  Biso   1.000  H
  H69      1.0000 0.44050  0.91580  0.17620  Biso   1.000  H
  H70      1.0000 0.55950  0.08420  0.82380  Biso   1.000  H
  H71      1.0000 0.33750  0.03480  0.16590  Biso   1.000  H
  H72      1.0000 0.66250  0.96520  0.83410  Biso   1.000  H
  H73      1.0000 0.31270  0.93180  0.27810  Biso   1.000  H
  H74      1.0000 0.68730  0.06820  0.72190  Biso   1.000  H
  H75      1.0000 0.42570  0.17260  0.24870  Biso   1.000  H
  H76      1.0000 0.57430  0.82740  0.75130  Biso   1.000  H
  H77      1.0000 0.56910  0.13370  0.32210  Biso   1.000  H
  H78      1.0000 0.43090  0.86630  0.67790  Biso   1.000  H
  H79      1.0000 0.38690  0.07100  0.36150  Biso   1.000  H
  H80      1.0000 0.61310  0.92900  0.63850  Biso   1.000  H
