data_image0
_cell_length_a       7.04
_cell_length_b       7.962
_cell_length_c       9.364
_cell_angle_alpha    84.58
_cell_angle_beta     89.25
_cell_angle_gamma    76.53

_symmetry_space_group_name_H-M    "P 1"
_symmetry_int_tables_number       1

loop_
  _symmetry_equiv_pos_as_xyz
  'x, y, z'

loop_
  _atom_site_label
  _atom_site_occupancy
  _atom_site_fract_x
  _atom_site_fract_y
  _atom_site_fract_z
  _atom_site_thermal_displace_type
  _atom_site_B_iso_or_equiv
  _atom_site_type_symbol
  Cl1      1.0000 0.26110  0.90900  0.52640  Biso   1.000  Cl
  Cl2      1.0000 0.73890  0.09100  0.47360  Biso   1.000  Cl
  Cu1      1.0000 0.24800  0.47500  0.18565  Biso   1.000  Cu
  Cu2      1.0000 0.75200  0.52500  0.81435  Biso   1.000  Cu
  Cl3      1.0000 0.25020  0.03480  0.84660  Biso   1.000  Cl
  Cl4      1.0000 0.74980  0.96520  0.15340  Biso   1.000  Cl
  O1       1.0000 0.26000  0.29250  0.05600  Biso   1.000  O
  O2       1.0000 0.74000  0.70750  0.94400  Biso   1.000  O
  O3       1.0000 0.24620  0.24050  0.34230  Biso   1.000  O
  O4       1.0000 0.75380  0.75950  0.65770  Biso   1.000  O
  O5       1.0000 0.24010  0.65630  0.31570  Biso   1.000  O
  O6       1.0000 0.75990  0.34370  0.68430  Biso   1.000  O
  O7       1.0000 0.24290  0.71000  0.03050  Biso   1.000  O
  O8       1.0000 0.75710  0.29000  0.96950  Biso   1.000  O
  O9       1.0000 0.53880  0.42340  0.20030  Biso   1.000  O
  O10      1.0000 0.46120  0.57660  0.79970  Biso   1.000  O
  O11      1.0000 0.95440  0.51960  0.17990  Biso   1.000  O
  O12      1.0000 0.04560  0.48040  0.82010  Biso   1.000  O
  C1       1.0000 0.25280  0.14130  0.11220  Biso   1.000  C
  C2       1.0000 0.74720  0.85870  0.88780  Biso   1.000  C
  C3       1.0000 0.25060  0.11180  0.27610  Biso   1.000  C
  C4       1.0000 0.74940  0.88820  0.72390  Biso   1.000  C
  C5       1.0000 0.25390  0.94290  0.34090  Biso   1.000  C
  C6       1.0000 0.74610  0.05710  0.65910  Biso   1.000  C
  C7       1.0000 0.24730  0.80950  0.26190  Biso   1.000  C
  C8       1.0000 0.75270  0.19050  0.73810  Biso   1.000  C
  C9       1.0000 0.24430  0.83850  0.09810  Biso   1.000  C
  C10      1.0000 0.75570  0.16150  0.90190  Biso   1.000  C
  C11      1.0000 0.24860  0.00340  0.03230  Biso   1.000  C
  C12      1.0000 0.75140  0.99660  0.96770  Biso   1.000  C
  O13      1.0000 0.26720  0.44980  0.58030  Biso   1.000  O
  O14      1.0000 0.73280  0.55020  0.41970  Biso   1.000  O
