data_image0
_cell_length_a       10.6443
_cell_length_b       7.8218
_cell_length_c       11.2109
_cell_angle_alpha    90
_cell_angle_beta     111.566
_cell_angle_gamma    90

_symmetry_space_group_name_H-M    "P 1"
_symmetry_int_tables_number       1

loop_
  _symmetry_equiv_pos_as_xyz
  'x, y, z'

loop_
  _atom_site_label
  _atom_site_occupancy
  _atom_site_fract_x
  _atom_site_fract_y
  _atom_site_fract_z
  _atom_site_thermal_displace_type
  _atom_site_B_iso_or_equiv
  _atom_site_type_symbol
  Cu1      1.0000 0.00000  0.50000  0.50000  Biso   1.000  Cu
  Cu2      1.0000 0.50000  0.00000  0.50000  Biso   1.000  Cu
  O1       1.0000 0.11420  0.50000  0.40030  Biso   1.000  O
  O2       1.0000 0.88580  0.50000  0.59970  Biso   1.000  O
  O3       1.0000 0.61420  0.00000  0.40030  Biso   1.000  O
  O4       1.0000 0.38580  0.00000  0.59970  Biso   1.000  O
  O5       1.0000 0.83430  0.50000  0.34560  Biso   1.000  O
  O6       1.0000 0.16570  0.50000  0.65440  Biso   1.000  O
  O7       1.0000 0.33430  0.00000  0.34560  Biso   1.000  O
  O8       1.0000 0.66570  0.00000  0.65440  Biso   1.000  O
  N1       1.0000 0.00000  0.17910  0.50000  Biso   1.000  N
  N2       1.0000 0.50000  0.67910  0.50000  Biso   1.000  N
  N3       1.0000 0.00000  0.82090  0.50000  Biso   1.000  N
  N4       1.0000 0.50000  0.32090  0.50000  Biso   1.000  N
  C1       1.0000 0.07410  0.08710  0.44960  Biso   1.000  C
  C2       1.0000 0.92590  0.08710  0.55040  Biso   1.000  C
  C3       1.0000 0.57410  0.58710  0.44960  Biso   1.000  C
  C4       1.0000 0.42590  0.58710  0.55040  Biso   1.000  C
  C5       1.0000 0.92590  0.91290  0.55040  Biso   1.000  C
  C6       1.0000 0.07410  0.91290  0.44960  Biso   1.000  C
  C7       1.0000 0.42590  0.41290  0.55040  Biso   1.000  C
  C8       1.0000 0.57410  0.41290  0.44960  Biso   1.000  C
  H1       1.0000 0.12770  0.14420  0.41300  Biso   1.000  H
  H2       1.0000 0.87230  0.14420  0.58700  Biso   1.000  H
  H3       1.0000 0.62770  0.64420  0.41300  Biso   1.000  H
  H4       1.0000 0.37230  0.64420  0.58700  Biso   1.000  H
  H5       1.0000 0.87230  0.85580  0.58700  Biso   1.000  H
  H6       1.0000 0.12770  0.85580  0.41300  Biso   1.000  H
  H7       1.0000 0.37230  0.35580  0.58700  Biso   1.000  H
  H8       1.0000 0.62770  0.35580  0.41300  Biso   1.000  H
  C9       1.0000 0.83510  0.50000  0.23350  Biso   1.000  C
  C10      1.0000 0.16490  0.50000  0.76650  Biso   1.000  C
  C11      1.0000 0.33510  0.00000  0.23350  Biso   1.000  C
  C12      1.0000 0.66490  0.00000  0.76650  Biso   1.000  C
  C13      1.0000 0.07910  0.50000  0.28070  Biso   1.000  C
  C14      1.0000 0.92090  0.50000  0.71930  Biso   1.000  C
  C15      1.0000 0.57910  0.00000  0.28070  Biso   1.000  C
  C16      1.0000 0.42090  0.00000  0.71930  Biso   1.000  C
  C17      1.0000 0.69490  0.50000  0.12890  Biso   1.000  C
  C18      1.0000 0.30510  0.50000  0.87110  Biso   1.000  C
  C19      1.0000 0.19490  0.00000  0.12890  Biso   1.000  C
  C20      1.0000 0.80510  0.00000  0.87110  Biso   1.000  C
  C21      1.0000 0.19250  0.50000  0.23010  Biso   1.000  C
  C22      1.0000 0.80750  0.50000  0.76990  Biso   1.000  C
  C23      1.0000 0.69250  0.00000  0.23010  Biso   1.000  C
  C24      1.0000 0.30750  0.00000  0.76990  Biso   1.000  C
  H9       1.0000 0.27780  0.50000  0.30070  Biso   1.000  H
  H10      1.0000 0.72220  0.50000  0.69930  Biso   1.000  H
  H11      1.0000 0.77780  0.00000  0.30070  Biso   1.000  H
  H12      1.0000 0.22220  0.00000  0.69930  Biso   1.000  H
  H13      1.0000 0.18600  0.60020  0.17870  Biso   1.000  H
  H14      1.0000 0.81400  0.60020  0.82130  Biso   1.000  H
  H15      1.0000 0.68600  0.10020  0.17870  Biso   1.000  H
  H16      1.0000 0.31400  0.10020  0.82130  Biso   1.000  H
  H17      1.0000 0.81400  0.39980  0.82130  Biso   1.000  H
  H18      1.0000 0.18600  0.39980  0.17870  Biso   1.000  H
  H19      1.0000 0.31400  0.89980  0.82130  Biso   1.000  H
  H20      1.0000 0.68600  0.89980  0.17870  Biso   1.000  H
  H21      1.0000 0.15540  0.50000  0.13800  Biso   1.000  H
  H22      1.0000 0.84460  0.50000  0.86200  Biso   1.000  H
  H23      1.0000 0.65540  0.00000  0.13800  Biso   1.000  H
  H24      1.0000 0.34460  0.00000  0.86200  Biso   1.000  H
  H25      1.0000 0.24720  0.39980  0.26000  Biso   1.000  H
  H26      1.0000 0.75280  0.39980  0.74000  Biso   1.000  H
  H27      1.0000 0.74720  0.89980  0.26000  Biso   1.000  H
  H28      1.0000 0.25280  0.89980  0.74000  Biso   1.000  H
  H29      1.0000 0.75280  0.60020  0.74000  Biso   1.000  H
  H30      1.0000 0.24720  0.60020  0.26000  Biso   1.000  H
  H31      1.0000 0.25280  0.10020  0.74000  Biso   1.000  H
  H32      1.0000 0.74720  0.10020  0.26000  Biso   1.000  H
  C25      1.0000 0.94490  0.50000  0.19670  Biso   1.000  C
  C26      1.0000 0.05510  0.50000  0.80330  Biso   1.000  C
  C27      1.0000 0.44490  0.00000  0.19670  Biso   1.000  C
  C28      1.0000 0.55510  0.00000  0.80330  Biso   1.000  C
  H33      1.0000 0.92840  0.50000  0.10920  Biso   1.000  H
  H34      1.0000 0.07160  0.50000  0.89080  Biso   1.000  H
  H35      1.0000 0.42840  0.00000  0.10920  Biso   1.000  H
  H36      1.0000 0.57160  0.00000  0.89080  Biso   1.000  H
  F1       1.0000 0.68290  0.62970  0.04950  Biso   1.000  F
  F2       1.0000 0.31710  0.62970  0.95050  Biso   1.000  F
  F3       1.0000 0.18290  0.12970  0.04950  Biso   1.000  F
  F4       1.0000 0.81710  0.12970  0.95050  Biso   1.000  F
  F5       1.0000 0.31710  0.37030  0.95050  Biso   1.000  F
  F6       1.0000 0.68290  0.37030  0.04950  Biso   1.000  F
  F7       1.0000 0.81710  0.87030  0.95050  Biso   1.000  F
  F8       1.0000 0.18290  0.87030  0.04950  Biso   1.000  F
  F9       1.0000 0.60410  0.50000  0.16480  Biso   1.000  F
  F10      1.0000 0.39590  0.50000  0.83520  Biso   1.000  F
  F11      1.0000 0.10410  0.00000  0.16480  Biso   1.000  F
  F12      1.0000 0.89590  0.00000  0.83520  Biso   1.000  F
  F13      1.0000 0.62240  0.62880  0.13880  Biso   1.000  F
  F14      1.0000 0.37760  0.62880  0.86120  Biso   1.000  F
  F15      1.0000 0.12240  0.12880  0.13880  Biso   1.000  F
  F16      1.0000 0.87760  0.12880  0.86120  Biso   1.000  F
  F17      1.0000 0.37760  0.37120  0.86120  Biso   1.000  F
  F18      1.0000 0.62240  0.37120  0.13880  Biso   1.000  F
  F19      1.0000 0.87760  0.87120  0.86120  Biso   1.000  F
  F20      1.0000 0.12240  0.87120  0.13880  Biso   1.000  F
  F21      1.0000 0.68540  0.50000  0.01190  Biso   1.000  F
  F22      1.0000 0.31460  0.50000  0.98810  Biso   1.000  F
  F23      1.0000 0.18540  0.00000  0.01190  Biso   1.000  F
  F24      1.0000 0.81460  0.00000  0.98810  Biso   1.000  F
