data_image0
_cell_length_a       8.5384
_cell_length_b       8.9181
_cell_length_c       9.1121
_cell_angle_alpha    63.155
_cell_angle_beta     73.639
_cell_angle_gamma    82.85

_symmetry_space_group_name_H-M    "P 1"
_symmetry_int_tables_number       1

loop_
  _symmetry_equiv_pos_as_xyz
  'x, y, z'

loop_
  _atom_site_label
  _atom_site_occupancy
  _atom_site_fract_x
  _atom_site_fract_y
  _atom_site_fract_z
  _atom_site_thermal_displace_type
  _atom_site_B_iso_or_equiv
  _atom_site_type_symbol
  C1       1.0000 0.09830  0.33720  0.75580  Biso   1.000  C
  C2       1.0000 0.90170  0.66280  0.24420  Biso   1.000  C
  C3       1.0000 0.96880  0.40470  0.83420  Biso   1.000  C
  C4       1.0000 0.03120  0.59530  0.16580  Biso   1.000  C
  H1       1.0000 0.96210  0.52120  0.78950  Biso   1.000  H
  H2       1.0000 0.03790  0.47880  0.21050  Biso   1.000  H
  C5       1.0000 0.84750  0.31240  0.97500  Biso   1.000  C
  C6       1.0000 0.15250  0.68760  0.02500  Biso   1.000  C
  C7       1.0000 0.70600  0.40450  0.03960  Biso   1.000  C
  C8       1.0000 0.29400  0.59550  0.96040  Biso   1.000  C
  H3       1.0000 0.63020  0.32480  0.13530  Biso   1.000  H
  H4       1.0000 0.36980  0.67520  0.86470  Biso   1.000  H
  H5       1.0000 0.65230  0.47050  0.95090  Biso   1.000  H
  H6       1.0000 0.34770  0.52950  0.04910  Biso   1.000  H
  H7       1.0000 0.74530  0.47700  0.07370  Biso   1.000  H
  H8       1.0000 0.25470  0.52300  0.92630  Biso   1.000  H
  C9       1.0000 0.22230  0.45520  0.60080  Biso   1.000  C
  C10      1.0000 0.77770  0.54480  0.39920  Biso   1.000  C
  C11      1.0000 0.30860  0.95340  0.16220  Biso   1.000  C
  C12      1.0000 0.69140  0.04660  0.83780  Biso   1.000  C
  H9       1.0000 0.35090  0.90220  0.09030  Biso   1.000  H
  H10      1.0000 0.64910  0.09780  0.90970  Biso   1.000  H
  C13      1.0000 0.40300  0.95450  0.26460  Biso   1.000  C
  C14      1.0000 0.59700  0.04550  0.73540  Biso   1.000  C
  H11      1.0000 0.50630  0.90650  0.25870  Biso   1.000  H
  H12      1.0000 0.49370  0.09350  0.74130  Biso   1.000  H
  C15      1.0000 0.34210  0.02730  0.37470  Biso   1.000  C
  C16      1.0000 0.65790  0.97270  0.62530  Biso   1.000  C
  C17      1.0000 0.19280  0.09820  0.37370  Biso   1.000  C
  C18      1.0000 0.80720  0.90180  0.62630  Biso   1.000  C
  H13      1.0000 0.14710  0.15020  0.44430  Biso   1.000  H
  H14      1.0000 0.85290  0.84980  0.55570  Biso   1.000  H
  C19      1.0000 0.10990  0.09300  0.26880  Biso   1.000  C
  C20      1.0000 0.89010  0.90700  0.73120  Biso   1.000  C
  H15      1.0000 0.00770  0.14360  0.27110  Biso   1.000  H
  H16      1.0000 0.99230  0.85640  0.72890  Biso   1.000  H
  C21      1.0000 0.42970  0.02540  0.49720  Biso   1.000  C
  C22      1.0000 0.57030  0.97460  0.50280  Biso   1.000  C
  H17      1.0000 0.37340  0.06590  0.57550  Biso   1.000  H
  H18      1.0000 0.62660  0.93410  0.42450  Biso   1.000  H
  N1       1.0000 0.16220  0.02180  0.16290  Biso   1.000  N
  N2       1.0000 0.83780  0.97820  0.83710  Biso   1.000  N
  O1       1.0000 0.13180  0.18550  0.79480  Biso   1.000  O
  O2       1.0000 0.86820  0.81450  0.20520  Biso   1.000  O
  O3       1.0000 0.84240  0.15600  0.05490  Biso   1.000  O
  O4       1.0000 0.15760  0.84400  0.94510  Biso   1.000  O
  F1       1.0000 0.36110  0.44310  0.64390  Biso   1.000  F
  F2       1.0000 0.63890  0.55690  0.35610  Biso   1.000  F
  F3       1.0000 0.25640  0.42000  0.47910  Biso   1.000  F
  F4       1.0000 0.74360  0.58000  0.52090  Biso   1.000  F
  F5       1.0000 0.18530  0.61240  0.55440  Biso   1.000  F
  F6       1.0000 0.81470  0.38760  0.44560  Biso   1.000  F
  Cu1      1.0000 0.00000  0.00000  0.00000  Biso   1.000  Cu
  F7       1.0000 0.70800  0.35200  0.19700  Biso   1.000  F
  F8       1.0000 0.29200  0.64800  0.80300  Biso   1.000  F
  F9       1.0000 0.72820  0.55810  0.96200  Biso   1.000  F
  F10      1.0000 0.27180  0.44190  0.03800  Biso   1.000  F
  F11      1.0000 0.58590  0.34550  0.04300  Biso   1.000  F
  F12      1.0000 0.41410  0.65450  0.95700  Biso   1.000  F
  H19      1.0000 0.25610  0.53800  0.62570  Biso   1.000  H
  H20      1.0000 0.74390  0.46200  0.37430  Biso   1.000  H
  H21      1.0000 0.17350  0.51020  0.50650  Biso   1.000  H
  H22      1.0000 0.82650  0.48980  0.49350  Biso   1.000  H
  H23      1.0000 0.31540  0.39200  0.57230  Biso   1.000  H
  H24      1.0000 0.68460  0.60800  0.42770  Biso   1.000  H
