data_image0
_cell_length_a       8.933
_cell_length_b       18.279
_cell_length_c       19.957
_cell_angle_alpha    90
_cell_angle_beta     111.156
_cell_angle_gamma    90

_symmetry_space_group_name_H-M    "P 1"
_symmetry_int_tables_number       1

loop_
  _symmetry_equiv_pos_as_xyz
  'x, y, z'

loop_
  _atom_site_label
  _atom_site_occupancy
  _atom_site_fract_x
  _atom_site_fract_y
  _atom_site_fract_z
  _atom_site_thermal_displace_type
  _atom_site_B_iso_or_equiv
  _atom_site_type_symbol
  Cu1      1.0000 0.39559  0.10538  0.98678  Biso   1.000  Cu
  Cu2      1.0000 0.60441  0.60538  0.51322  Biso   1.000  Cu
  Cu3      1.0000 0.60441  0.89462  0.01322  Biso   1.000  Cu
  Cu4      1.0000 0.39559  0.39462  0.48678  Biso   1.000  Cu
  F1       1.0000 0.00260  0.80574  0.81202  Biso   1.000  F
  F2       1.0000 0.99740  0.30574  0.68798  Biso   1.000  F
  F3       1.0000 0.99740  0.19426  0.18798  Biso   1.000  F
  F4       1.0000 0.00260  0.69426  0.31202  Biso   1.000  F
  O1       1.0000 0.07280  0.84021  0.98823  Biso   1.000  O
  O2       1.0000 0.92720  0.34021  0.51177  Biso   1.000  O
  O3       1.0000 0.92720  0.15979  0.01177  Biso   1.000  O
  O4       1.0000 0.07280  0.65979  0.48823  Biso   1.000  O
  H1       1.0000 0.15700  0.82470  0.01620  Biso   1.000  H
  H2       1.0000 0.84300  0.32470  0.48380  Biso   1.000  H
  H3       1.0000 0.84300  0.17530  0.98380  Biso   1.000  H
  H4       1.0000 0.15700  0.67530  0.51620  Biso   1.000  H
  H5       1.0000 0.02490  0.80560  0.96000  Biso   1.000  H
  H6       1.0000 0.97510  0.30560  0.54000  Biso   1.000  H
  H7       1.0000 0.97510  0.19440  0.04000  Biso   1.000  H
  H8       1.0000 0.02490  0.69440  0.46000  Biso   1.000  H
  O5       1.0000 0.69660  0.30640  0.92629  Biso   1.000  O
  O6       1.0000 0.30340  0.80640  0.57371  Biso   1.000  O
  O7       1.0000 0.30340  0.69360  0.07371  Biso   1.000  O
  O8       1.0000 0.69660  0.19360  0.42629  Biso   1.000  O
  H9       1.0000 0.74800  0.34400  0.93480  Biso   1.000  H
  H10      1.0000 0.25200  0.84400  0.56520  Biso   1.000  H
  H11      1.0000 0.25200  0.65600  0.06520  Biso   1.000  H
  H12      1.0000 0.74800  0.15600  0.43480  Biso   1.000  H
  H13      1.0000 0.60920  0.31300  0.93070  Biso   1.000  H
  H14      1.0000 0.39080  0.81300  0.56930  Biso   1.000  H
  H15      1.0000 0.39080  0.68700  0.06930  Biso   1.000  H
  H16      1.0000 0.60920  0.18700  0.43070  Biso   1.000  H
  O9       1.0000 0.48810  0.40350  0.95810  Biso   1.000  O
  O10      1.0000 0.51190  0.90350  0.54190  Biso   1.000  O
  O11      1.0000 0.51190  0.59650  0.04190  Biso   1.000  O
  O12      1.0000 0.48810  0.09650  0.45810  Biso   1.000  O
  H17      1.0000 0.56610  0.42290  0.99050  Biso   1.000  H
  H18      1.0000 0.43390  0.92290  0.50950  Biso   1.000  H
  H19      1.0000 0.43390  0.57710  0.00950  Biso   1.000  H
  H20      1.0000 0.56610  0.07710  0.49050  Biso   1.000  H
  H21      1.0000 0.42740  0.43770  0.93670  Biso   1.000  H
  H22      1.0000 0.57260  0.93770  0.56330  Biso   1.000  H
  H23      1.0000 0.57260  0.56230  0.06330  Biso   1.000  H
  H24      1.0000 0.42740  0.06230  0.43670  Biso   1.000  H
  O13      1.0000 0.04090  0.69350  0.93960  Biso   1.000  O
  O14      1.0000 0.95910  0.19350  0.56040  Biso   1.000  O
  O15      1.0000 0.95910  0.30650  0.06040  Biso   1.000  O
  O16      1.0000 0.04090  0.80650  0.43960  Biso   1.000  O
  H25      1.0000 0.09120  0.65600  0.93250  Biso   1.000  H
  H26      1.0000 0.90880  0.15600  0.56750  Biso   1.000  H
  H27      1.0000 0.90880  0.34400  0.06750  Biso   1.000  H
  H28      1.0000 0.09120  0.84400  0.43250  Biso   1.000  H
  H29      1.0000 0.95260  0.69800  0.90190  Biso   1.000  H
  H30      1.0000 0.04740  0.19800  0.59810  Biso   1.000  H
  H31      1.0000 0.04740  0.30200  0.09810  Biso   1.000  H
  H32      1.0000 0.95260  0.80200  0.40190  Biso   1.000  H
  O17      1.0000 0.53480  0.14186  0.93982  Biso   1.000  O
  O18      1.0000 0.46520  0.64186  0.56018  Biso   1.000  O
  O19      1.0000 0.46520  0.85814  0.06018  Biso   1.000  O
  O20      1.0000 0.53480  0.35814  0.43982  Biso   1.000  O
  O21      1.0000 0.60450  0.16824  0.84813  Biso   1.000  O
  O22      1.0000 0.39550  0.66824  0.65187  Biso   1.000  O
  O23      1.0000 0.39550  0.83176  0.15187  Biso   1.000  O
  O24      1.0000 0.60450  0.33176  0.34813  Biso   1.000  O
  O25      1.0000 0.32810  0.02285  0.92210  Biso   1.000  O
  O26      1.0000 0.67190  0.52285  0.57790  Biso   1.000  O
  O27      1.0000 0.67190  0.97715  0.07790  Biso   1.000  O
  O28      1.0000 0.32810  0.47715  0.42210  Biso   1.000  O
  O29      1.0000 0.76920  0.05310  0.57540  Biso   1.000  O
  O30      1.0000 0.23080  0.55310  0.92460  Biso   1.000  O
  O31      1.0000 0.23080  0.94690  0.42460  Biso   1.000  O
  O32      1.0000 0.76920  0.44690  0.07540  Biso   1.000  O
  O33      1.0000 0.91400  0.07640  0.68180  Biso   1.000  O
  O34      1.0000 0.08600  0.57640  0.81820  Biso   1.000  O
  O35      1.0000 0.08600  0.92360  0.31820  Biso   1.000  O
  O36      1.0000 0.91400  0.42360  0.18180  Biso   1.000  O
  O37      1.0000 0.74730  0.98960  0.65520  Biso   1.000  O
  O38      1.0000 0.25270  0.48960  0.84480  Biso   1.000  O
  O39      1.0000 0.25270  0.01040  0.34480  Biso   1.000  O
  O40      1.0000 0.74730  0.51040  0.15520  Biso   1.000  O
  N1       1.0000 0.32860  0.01125  0.71693  Biso   1.000  N
  N2       1.0000 0.67140  0.51125  0.78307  Biso   1.000  N
  N3       1.0000 0.67140  0.98875  0.28307  Biso   1.000  N
  N4       1.0000 0.32860  0.48875  0.21693  Biso   1.000  N
  N5       1.0000 0.97390  0.79949  0.67079  Biso   1.000  N
  N6       1.0000 0.02610  0.29949  0.82921  Biso   1.000  N
  N7       1.0000 0.02610  0.20051  0.32921  Biso   1.000  N
  N8       1.0000 0.97390  0.70051  0.17079  Biso   1.000  N
  N9       1.0000 0.82110  0.68285  0.57003  Biso   1.000  N
  N10      1.0000 0.17890  0.18285  0.92997  Biso   1.000  N
  N11      1.0000 0.17890  0.31715  0.42997  Biso   1.000  N
  N12      1.0000 0.82110  0.81715  0.07003  Biso   1.000  N
  H33      1.0000 0.88860  0.66940  0.54500  Biso   1.000  H
  H34      1.0000 0.11140  0.16940  0.95500  Biso   1.000  H
  H35      1.0000 0.11140  0.33060  0.45500  Biso   1.000  H
  H36      1.0000 0.88860  0.83060  0.04500  Biso   1.000  H
  N13      1.0000 0.30380  0.06037  0.05562  Biso   1.000  N
  N14      1.0000 0.69620  0.56037  0.44438  Biso   1.000  N
  N15      1.0000 0.69620  0.93963  0.94438  Biso   1.000  N
  N16      1.0000 0.30380  0.43963  0.55562  Biso   1.000  N
  N17      1.0000 0.49250  0.17477  0.06962  Biso   1.000  N
  N18      1.0000 0.50750  0.67477  0.43038  Biso   1.000  N
  N19      1.0000 0.50750  0.82523  0.93038  Biso   1.000  N
  N20      1.0000 0.49250  0.32523  0.56962  Biso   1.000  N
  N21      1.0000 0.81010  0.03930  0.63850  Biso   1.000  N
  N22      1.0000 0.18990  0.53930  0.86150  Biso   1.000  N
  N23      1.0000 0.18990  0.96070  0.36150  Biso   1.000  N
  N24      1.0000 0.81010  0.46070  0.13850  Biso   1.000  N
  C1       1.0000 0.52770  0.13050  0.87549  Biso   1.000  C
  C2       1.0000 0.47230  0.63050  0.62451  Biso   1.000  C
  C3       1.0000 0.47230  0.86950  0.12451  Biso   1.000  C
  C4       1.0000 0.52770  0.36950  0.37549  Biso   1.000  C
  C5       1.0000 0.42320  0.06953  0.83251  Biso   1.000  C
  C6       1.0000 0.57680  0.56953  0.66749  Biso   1.000  C
  C7       1.0000 0.57680  0.93047  0.16749  Biso   1.000  C
  C8       1.0000 0.42320  0.43047  0.33251  Biso   1.000  C
  C9       1.0000 0.33580  0.02038  0.85929  Biso   1.000  C
  C10      1.0000 0.66420  0.52038  0.64071  Biso   1.000  C
  C11      1.0000 0.66420  0.97962  0.14071  Biso   1.000  C
  C12      1.0000 0.33580  0.47962  0.35929  Biso   1.000  C
  C13      1.0000 0.24910  0.96264  0.81124  Biso   1.000  C
  C14      1.0000 0.75090  0.46264  0.68876  Biso   1.000  C
  C15      1.0000 0.75090  0.03736  0.18876  Biso   1.000  C
  C16      1.0000 0.24910  0.53736  0.31124  Biso   1.000  C
  C17      1.0000 0.16590  0.90911  0.83442  Biso   1.000  C
  C18      1.0000 0.83410  0.40911  0.66558  Biso   1.000  C
  C19      1.0000 0.83410  0.09089  0.16558  Biso   1.000  C
  C20      1.0000 0.16590  0.59089  0.33442  Biso   1.000  C
  H37      1.0000 0.16720  0.90580  0.88410  Biso   1.000  H
  H38      1.0000 0.83280  0.40580  0.61590  Biso   1.000  H
  H39      1.0000 0.83280  0.09420  0.11590  Biso   1.000  H
  H40      1.0000 0.16720  0.59420  0.38410  Biso   1.000  H
  C21      1.0000 0.08360  0.85648  0.78847  Biso   1.000  C
  C22      1.0000 0.91640  0.35648  0.71153  Biso   1.000  C
  C23      1.0000 0.91640  0.14352  0.21153  Biso   1.000  C
  C24      1.0000 0.08360  0.64352  0.28847  Biso   1.000  C
  C25      1.0000 0.07300  0.85221  0.71608  Biso   1.000  C
  C26      1.0000 0.92700  0.35221  0.78392  Biso   1.000  C
  C27      1.0000 0.92700  0.14779  0.28392  Biso   1.000  C
  C28      1.0000 0.07300  0.64779  0.21608  Biso   1.000  C
  C29      1.0000 0.15580  0.90435  0.69354  Biso   1.000  C
  C30      1.0000 0.84420  0.40435  0.80646  Biso   1.000  C
  C31      1.0000 0.84420  0.09565  0.30646  Biso   1.000  C
  C32      1.0000 0.15580  0.59565  0.19354  Biso   1.000  C
  H41      1.0000 0.14250  0.90650  0.64290  Biso   1.000  H
  H42      1.0000 0.85750  0.40650  0.85710  Biso   1.000  H
  H43      1.0000 0.85750  0.09350  0.35710  Biso   1.000  H
  H44      1.0000 0.14250  0.59350  0.14290  Biso   1.000  H
  C33      1.0000 0.24400  0.95949  0.73995  Biso   1.000  C
  C34      1.0000 0.75600  0.45949  0.76005  Biso   1.000  C
  C35      1.0000 0.75600  0.04051  0.26005  Biso   1.000  C
  C36      1.0000 0.24400  0.54051  0.23995  Biso   1.000  C
  C37      1.0000 0.41610  0.06190  0.76319  Biso   1.000  C
  C38      1.0000 0.58390  0.56190  0.73681  Biso   1.000  C
  C39      1.0000 0.58390  0.93810  0.23681  Biso   1.000  C
  C40      1.0000 0.41610  0.43810  0.26319  Biso   1.000  C
  H45      1.0000 0.47740  0.09700  0.74210  Biso   1.000  H
  H46      1.0000 0.52260  0.59700  0.75790  Biso   1.000  H
  H47      1.0000 0.52260  0.90300  0.25790  Biso   1.000  H
  H48      1.0000 0.47740  0.40300  0.24210  Biso   1.000  H
  C41      1.0000 0.33420  0.00760  0.64499  Biso   1.000  C
  C42      1.0000 0.66580  0.50760  0.85501  Biso   1.000  C
  C43      1.0000 0.66580  0.99240  0.35501  Biso   1.000  C
  C44      1.0000 0.33420  0.49240  0.14499  Biso   1.000  C
  H49      1.0000 0.40400  0.97170  0.64080  Biso   1.000  H
  H50      1.0000 0.59600  0.47170  0.85920  Biso   1.000  H
  H51      1.0000 0.59600  0.02830  0.35920  Biso   1.000  H
  H52      1.0000 0.40400  0.52830  0.14080  Biso   1.000  H
  C45      1.0000 0.18440  0.02240  0.58108  Biso   1.000  C
  C46      1.0000 0.81560  0.52240  0.91892  Biso   1.000  C
  C47      1.0000 0.81560  0.97760  0.41892  Biso   1.000  C
  C48      1.0000 0.18440  0.47760  0.08108  Biso   1.000  C
  H53      1.0000 0.18590  0.99820  0.53930  Biso   1.000  H
  H54      1.0000 0.81410  0.49820  0.96070  Biso   1.000  H
  H55      1.0000 0.81410  0.00180  0.46070  Biso   1.000  H
  H56      1.0000 0.18590  0.50180  0.03930  Biso   1.000  H
  H57      1.0000 0.07360  0.03310  0.59010  Biso   1.000  H
  H58      1.0000 0.92640  0.53310  0.90990  Biso   1.000  H
  H59      1.0000 0.92640  0.96690  0.40990  Biso   1.000  H
  H60      1.0000 0.07360  0.46690  0.09010  Biso   1.000  H
  C49      1.0000 0.32120  0.07690  0.60340  Biso   1.000  C
  C50      1.0000 0.67880  0.57690  0.89660  Biso   1.000  C
  C51      1.0000 0.67880  0.92310  0.39660  Biso   1.000  C
  C52      1.0000 0.32120  0.42310  0.10340  Biso   1.000  C
  H61      1.0000 0.38440  0.08310  0.58520  Biso   1.000  H
  H62      1.0000 0.61560  0.58310  0.91480  Biso   1.000  H
  H63      1.0000 0.61560  0.91690  0.41480  Biso   1.000  H
  H64      1.0000 0.38440  0.41690  0.08520  Biso   1.000  H
  H65      1.0000 0.29010  0.12480  0.61880  Biso   1.000  H
  H66      1.0000 0.70990  0.62480  0.88120  Biso   1.000  H
  H67      1.0000 0.70990  0.87520  0.38120  Biso   1.000  H
  H68      1.0000 0.29010  0.37520  0.11880  Biso   1.000  H
  C53      1.0000 0.92610  0.81200  0.59280  Biso   1.000  C
  C54      1.0000 0.07390  0.31200  0.90720  Biso   1.000  C
  C55      1.0000 0.07390  0.18800  0.40720  Biso   1.000  C
  C56      1.0000 0.92610  0.68800  0.09280  Biso   1.000  C
  H69      1.0000 0.89660  0.86490  0.58070  Biso   1.000  H
  H70      1.0000 0.10340  0.36490  0.91930  Biso   1.000  H
  H71      1.0000 0.10340  0.13510  0.41930  Biso   1.000  H
  H72      1.0000 0.89660  0.63510  0.08070  Biso   1.000  H
  H73      1.0000 0.03320  0.80190  0.58120  Biso   1.000  H
  H74      1.0000 0.96680  0.30190  0.91880  Biso   1.000  H
  H75      1.0000 0.96680  0.19810  0.41880  Biso   1.000  H
  H76      1.0000 0.03320  0.69810  0.08120  Biso   1.000  H
  C57      1.0000 0.78660  0.76169  0.55314  Biso   1.000  C
  C58      1.0000 0.21340  0.26169  0.94686  Biso   1.000  C
  C59      1.0000 0.21340  0.23831  0.44686  Biso   1.000  C
  C60      1.0000 0.78660  0.73831  0.05314  Biso   1.000  C
  H77      1.0000 0.75340  0.77000  0.50130  Biso   1.000  H
  H78      1.0000 0.24660  0.27000  0.99870  Biso   1.000  H
  H79      1.0000 0.24660  0.23000  0.49870  Biso   1.000  H
  H80      1.0000 0.75340  0.73000  0.00130  Biso   1.000  H
  H81      1.0000 0.68780  0.77390  0.56080  Biso   1.000  H
  H82      1.0000 0.31220  0.27390  0.93920  Biso   1.000  H
  H83      1.0000 0.31220  0.22610  0.43920  Biso   1.000  H
  H84      1.0000 0.68780  0.72610  0.06080  Biso   1.000  H
  C61      1.0000 0.88030  0.67281  0.64841  Biso   1.000  C
  C62      1.0000 0.11970  0.17281  0.85159  Biso   1.000  C
  C63      1.0000 0.11970  0.32719  0.35159  Biso   1.000  C
  C64      1.0000 0.88030  0.82719  0.14841  Biso   1.000  C
  H85      1.0000 0.78670  0.68220  0.66850  Biso   1.000  H
  H86      1.0000 0.21330  0.18220  0.83150  Biso   1.000  H
  H87      1.0000 0.21330  0.31780  0.33150  Biso   1.000  H
  H88      1.0000 0.78670  0.81780  0.16850  Biso   1.000  H
  H89      1.0000 0.92070  0.62000  0.66390  Biso   1.000  H
  H90      1.0000 0.07930  0.12000  0.83610  Biso   1.000  H
  H91      1.0000 0.07930  0.38000  0.33610  Biso   1.000  H
  H92      1.0000 0.92070  0.88000  0.16390  Biso   1.000  H
  C65      1.0000 0.02060  0.72257  0.68893  Biso   1.000  C
  C66      1.0000 0.97940  0.22257  0.81107  Biso   1.000  C
  C67      1.0000 0.97940  0.27743  0.31107  Biso   1.000  C
  C68      1.0000 0.02060  0.77743  0.18893  Biso   1.000  C
  H93      1.0000 0.03800  0.71110  0.74120  Biso   1.000  H
  H94      1.0000 0.96200  0.21110  0.75880  Biso   1.000  H
  H95      1.0000 0.96200  0.28890  0.25880  Biso   1.000  H
  H96      1.0000 0.03800  0.78890  0.24120  Biso   1.000  H
  H97      1.0000 0.10890  0.71050  0.66970  Biso   1.000  H
  H98      1.0000 0.89110  0.21050  0.83030  Biso   1.000  H
  H99      1.0000 0.89110  0.28950  0.33030  Biso   1.000  H
  H100     1.0000 0.10890  0.78950  0.16970  Biso   1.000  H
  C69      1.0000 0.20960  0.00162  0.04714  Biso   1.000  C
  C70      1.0000 0.79040  0.50162  0.45286  Biso   1.000  C
  C71      1.0000 0.79040  0.99838  0.95286  Biso   1.000  C
  C72      1.0000 0.20960  0.49838  0.54714  Biso   1.000  C
  H101     1.0000 0.18210  0.97720  0.99800  Biso   1.000  H
  H102     1.0000 0.81790  0.47720  0.50200  Biso   1.000  H
  H103     1.0000 0.81790  0.02280  0.00200  Biso   1.000  H
  H104     1.0000 0.18210  0.52280  0.49800  Biso   1.000  H
  C73      1.0000 0.15310  0.97940  0.10039  Biso   1.000  C
  C74      1.0000 0.84690  0.47940  0.39961  Biso   1.000  C
  C75      1.0000 0.84690  0.02060  0.89961  Biso   1.000  C
  C76      1.0000 0.15310  0.52060  0.60039  Biso   1.000  C
  H105     1.0000 0.08550  0.93620  0.08880  Biso   1.000  H
  H106     1.0000 0.91450  0.43620  0.41120  Biso   1.000  H
  H107     1.0000 0.91450  0.06380  0.91120  Biso   1.000  H
  H108     1.0000 0.08550  0.56380  0.58880  Biso   1.000  H
  C77      1.0000 0.19080  0.01680  0.16313  Biso   1.000  C
  C78      1.0000 0.80920  0.51680  0.33687  Biso   1.000  C
  C79      1.0000 0.80920  0.98320  0.83687  Biso   1.000  C
  C80      1.0000 0.19080  0.48320  0.66313  Biso   1.000  C
  H109     1.0000 0.17220  0.00290  0.20760  Biso   1.000  H
  H110     1.0000 0.82780  0.50290  0.29240  Biso   1.000  H
  H111     1.0000 0.82780  0.99710  0.79240  Biso   1.000  H
  H112     1.0000 0.17220  0.49710  0.70760  Biso   1.000  H
  C81      1.0000 0.28880  0.08000  0.17346  Biso   1.000  C
  C82      1.0000 0.71120  0.58000  0.32654  Biso   1.000  C
  C83      1.0000 0.71120  0.92000  0.82654  Biso   1.000  C
  C84      1.0000 0.28880  0.42000  0.67346  Biso   1.000  C
  C85      1.0000 0.34170  0.09884  0.11788  Biso   1.000  C
  C86      1.0000 0.65830  0.59884  0.38212  Biso   1.000  C
  C87      1.0000 0.65830  0.90116  0.88212  Biso   1.000  C
  C88      1.0000 0.34170  0.40116  0.61788  Biso   1.000  C
  C89      1.0000 0.33570  0.12500  0.23642  Biso   1.000  C
  C90      1.0000 0.66430  0.62500  0.26358  Biso   1.000  C
  C91      1.0000 0.66430  0.87500  0.76358  Biso   1.000  C
  C92      1.0000 0.33570  0.37500  0.73642  Biso   1.000  C
  H113     1.0000 0.30800  0.10870  0.28110  Biso   1.000  H
  H114     1.0000 0.69200  0.60870  0.21890  Biso   1.000  H
  H115     1.0000 0.69200  0.89130  0.71890  Biso   1.000  H
  H116     1.0000 0.30800  0.39130  0.78110  Biso   1.000  H
  C93      1.0000 0.42980  0.18440  0.24252  Biso   1.000  C
  C94      1.0000 0.57020  0.68440  0.25748  Biso   1.000  C
  C95      1.0000 0.57020  0.81560  0.75748  Biso   1.000  C
  C96      1.0000 0.42980  0.31560  0.74252  Biso   1.000  C
  H117     1.0000 0.45490  0.21730  0.28150  Biso   1.000  H
  H118     1.0000 0.54510  0.71730  0.21850  Biso   1.000  H
  H119     1.0000 0.54510  0.78270  0.71850  Biso   1.000  H
  H120     1.0000 0.45490  0.28270  0.78150  Biso   1.000  H
  C97      1.0000 0.48590  0.20440  0.18687  Biso   1.000  C
  C98      1.0000 0.51410  0.70440  0.31313  Biso   1.000  C
  C99      1.0000 0.51410  0.79560  0.81313  Biso   1.000  C
  C100     1.0000 0.48590  0.29560  0.68687  Biso   1.000  C
  C101     1.0000 0.44300  0.16126  0.12484  Biso   1.000  C
  C102     1.0000 0.55700  0.66126  0.37516  Biso   1.000  C
  C103     1.0000 0.55700  0.83874  0.87516  Biso   1.000  C
  C104     1.0000 0.44300  0.33874  0.62484  Biso   1.000  C
  C105     1.0000 0.58480  0.26537  0.18934  Biso   1.000  C
  C106     1.0000 0.41520  0.76537  0.31066  Biso   1.000  C
  C107     1.0000 0.41520  0.73463  0.81066  Biso   1.000  C
  C108     1.0000 0.58480  0.23463  0.68934  Biso   1.000  C
  H121     1.0000 0.61320  0.30110  0.23170  Biso   1.000  H
  H122     1.0000 0.38680  0.80110  0.26830  Biso   1.000  H
  H123     1.0000 0.38680  0.69890  0.76830  Biso   1.000  H
  H124     1.0000 0.61320  0.19890  0.73170  Biso   1.000  H
  C109     1.0000 0.63480  0.27924  0.13320  Biso   1.000  C
  C110     1.0000 0.36520  0.77924  0.36680  Biso   1.000  C
  C111     1.0000 0.36520  0.72076  0.86680  Biso   1.000  C
  C112     1.0000 0.63480  0.22076  0.63320  Biso   1.000  C
  H125     1.0000 0.70120  0.32300  0.12970  Biso   1.000  H
  H126     1.0000 0.29880  0.82300  0.37030  Biso   1.000  H
  H127     1.0000 0.29880  0.67700  0.87030  Biso   1.000  H
  H128     1.0000 0.70120  0.17700  0.62970  Biso   1.000  H
  C113     1.0000 0.58560  0.23229  0.07357  Biso   1.000  C
  C114     1.0000 0.41440  0.73229  0.42643  Biso   1.000  C
  C115     1.0000 0.41440  0.76771  0.92643  Biso   1.000  C
  C116     1.0000 0.58560  0.26771  0.57357  Biso   1.000  C
  H129     1.0000 0.60940  0.24930  0.02980  Biso   1.000  H
  H130     1.0000 0.39060  0.74930  0.47020  Biso   1.000  H
  H131     1.0000 0.39060  0.75070  0.97020  Biso   1.000  H
  H132     1.0000 0.60940  0.25070  0.52980  Biso   1.000  H
