data_image0
_cell_length_a       18.2296
_cell_length_b       6.8793
_cell_length_c       13.0246
_cell_angle_alpha    90
_cell_angle_beta     120.89
_cell_angle_gamma    90

_symmetry_space_group_name_H-M    "P 1"
_symmetry_int_tables_number       1

loop_
  _symmetry_equiv_pos_as_xyz
  'x, y, z'

loop_
  _atom_site_label
  _atom_site_occupancy
  _atom_site_fract_x
  _atom_site_fract_y
  _atom_site_fract_z
  _atom_site_thermal_displace_type
  _atom_site_B_iso_or_equiv
  _atom_site_type_symbol
  Cu1      1.0000 0.00000  0.00000  0.00000  Biso   1.000  Cu
  Cu2      1.0000 0.00000  0.00000  0.50000  Biso   1.000  Cu
  Cu3      1.0000 0.50000  0.50000  0.00000  Biso   1.000  Cu
  Cu4      1.0000 0.50000  0.50000  0.50000  Biso   1.000  Cu
  O1       1.0000 0.17440  0.71670  0.27950  Biso   1.000  O
  O2       1.0000 0.82560  0.71670  0.22050  Biso   1.000  O
  O3       1.0000 0.67440  0.21670  0.27950  Biso   1.000  O
  O4       1.0000 0.32560  0.21670  0.22050  Biso   1.000  O
  O5       1.0000 0.82560  0.28330  0.72050  Biso   1.000  O
  O6       1.0000 0.17440  0.28330  0.77950  Biso   1.000  O
  O7       1.0000 0.32560  0.78330  0.72050  Biso   1.000  O
  O8       1.0000 0.67440  0.78330  0.77950  Biso   1.000  O
  O9       1.0000 0.05660  0.79230  0.10790  Biso   1.000  O
  O10      1.0000 0.94340  0.79230  0.39210  Biso   1.000  O
  O11      1.0000 0.55660  0.29230  0.10790  Biso   1.000  O
  O12      1.0000 0.44340  0.29230  0.39210  Biso   1.000  O
  O13      1.0000 0.94340  0.20770  0.89210  Biso   1.000  O
  O14      1.0000 0.05660  0.20770  0.60790  Biso   1.000  O
  O15      1.0000 0.44340  0.70770  0.89210  Biso   1.000  O
  O16      1.0000 0.55660  0.70770  0.60790  Biso   1.000  O
  O17      1.0000 0.16360  0.39270  0.96400  Biso   1.000  O
  O18      1.0000 0.83640  0.39270  0.53600  Biso   1.000  O
  O19      1.0000 0.66360  0.89270  0.96400  Biso   1.000  O
  O20      1.0000 0.33640  0.89270  0.53600  Biso   1.000  O
  O21      1.0000 0.83640  0.60730  0.03600  Biso   1.000  O
  O22      1.0000 0.16360  0.60730  0.46400  Biso   1.000  O
  O23      1.0000 0.33640  0.10730  0.03600  Biso   1.000  O
  O24      1.0000 0.66360  0.10730  0.46400  Biso   1.000  O
  O25      1.0000 0.13390  0.08230  0.98370  Biso   1.000  O
  O26      1.0000 0.86610  0.08230  0.51630  Biso   1.000  O
  O27      1.0000 0.63390  0.58230  0.98370  Biso   1.000  O
  O28      1.0000 0.36610  0.58230  0.51630  Biso   1.000  O
  O29      1.0000 0.86610  0.91770  0.01630  Biso   1.000  O
  O30      1.0000 0.13390  0.91770  0.48370  Biso   1.000  O
  O31      1.0000 0.36610  0.41770  0.01630  Biso   1.000  O
  O32      1.0000 0.63390  0.41770  0.48370  Biso   1.000  O
  N1       1.0000 0.08080  0.18070  0.13980  Biso   1.000  N
  N2       1.0000 0.91920  0.18070  0.36020  Biso   1.000  N
  N3       1.0000 0.58080  0.68070  0.13980  Biso   1.000  N
  N4       1.0000 0.41920  0.68070  0.36020  Biso   1.000  N
  N5       1.0000 0.91920  0.81930  0.86020  Biso   1.000  N
  N6       1.0000 0.08080  0.81930  0.63980  Biso   1.000  N
  N7       1.0000 0.41920  0.31930  0.86020  Biso   1.000  N
  N8       1.0000 0.58080  0.31930  0.63980  Biso   1.000  N
  C1       1.0000 0.12490  0.83560  0.20350  Biso   1.000  C
  C2       1.0000 0.87510  0.83560  0.29650  Biso   1.000  C
  C3       1.0000 0.62490  0.33560  0.20350  Biso   1.000  C
  C4       1.0000 0.37510  0.33560  0.29650  Biso   1.000  C
  C5       1.0000 0.87510  0.16440  0.79650  Biso   1.000  C
  C6       1.0000 0.12490  0.16440  0.70350  Biso   1.000  C
  C7       1.0000 0.37510  0.66440  0.79650  Biso   1.000  C
  C8       1.0000 0.62490  0.66440  0.70350  Biso   1.000  C
  C9       1.0000 0.11580  0.33300  0.09570  Biso   1.000  C
  C10      1.0000 0.88420  0.33300  0.40430  Biso   1.000  C
  C11      1.0000 0.61580  0.83300  0.09570  Biso   1.000  C
  C12      1.0000 0.38420  0.83300  0.40430  Biso   1.000  C
  C13      1.0000 0.88420  0.66700  0.90430  Biso   1.000  C
  C14      1.0000 0.11580  0.66700  0.59570  Biso   1.000  C
  C15      1.0000 0.38420  0.16700  0.90430  Biso   1.000  C
  C16      1.0000 0.61580  0.16700  0.59570  Biso   1.000  C
  H1       1.0000 0.16730  0.39110  0.16460  Biso   1.000  H
  H2       1.0000 0.83270  0.39110  0.33540  Biso   1.000  H
  H3       1.0000 0.66730  0.89110  0.16460  Biso   1.000  H
  H4       1.0000 0.33270  0.89110  0.33540  Biso   1.000  H
  H5       1.0000 0.83270  0.60890  0.83540  Biso   1.000  H
  H6       1.0000 0.16730  0.60890  0.66460  Biso   1.000  H
  H7       1.0000 0.33270  0.10890  0.83540  Biso   1.000  H
  H8       1.0000 0.66730  0.10890  0.66460  Biso   1.000  H
  H9       1.0000 0.07280  0.43730  0.05620  Biso   1.000  H
  H10      1.0000 0.92720  0.43730  0.44380  Biso   1.000  H
  H11      1.0000 0.57280  0.93730  0.05620  Biso   1.000  H
  H12      1.0000 0.42720  0.93730  0.44380  Biso   1.000  H
  H13      1.0000 0.92720  0.56270  0.94380  Biso   1.000  H
  H14      1.0000 0.07280  0.56270  0.55620  Biso   1.000  H
  H15      1.0000 0.42720  0.06270  0.94380  Biso   1.000  H
  H16      1.0000 0.57280  0.06270  0.55620  Biso   1.000  H
  C17      1.0000 0.15060  0.04960  0.22590  Biso   1.000  C
  C18      1.0000 0.84940  0.04960  0.27410  Biso   1.000  C
  C19      1.0000 0.65060  0.54960  0.22590  Biso   1.000  C
  C20      1.0000 0.34940  0.54960  0.27410  Biso   1.000  C
  C21      1.0000 0.84940  0.95040  0.77410  Biso   1.000  C
  C22      1.0000 0.15060  0.95040  0.72590  Biso   1.000  C
  C23      1.0000 0.34940  0.45040  0.77410  Biso   1.000  C
  C24      1.0000 0.65060  0.45040  0.72590  Biso   1.000  C
  H17      1.0000 0.16600  0.08420  0.30840  Biso   1.000  H
  H18      1.0000 0.83400  0.08420  0.19160  Biso   1.000  H
  H19      1.0000 0.66600  0.58420  0.30840  Biso   1.000  H
  H20      1.0000 0.33400  0.58420  0.19160  Biso   1.000  H
  H21      1.0000 0.83400  0.91580  0.69160  Biso   1.000  H
  H22      1.0000 0.16600  0.91580  0.80840  Biso   1.000  H
  H23      1.0000 0.33400  0.41580  0.69160  Biso   1.000  H
  H24      1.0000 0.66600  0.41580  0.80840  Biso   1.000  H
  H25      1.0000 0.20170  0.06970  0.21920  Biso   1.000  H
  H26      1.0000 0.79830  0.06970  0.28080  Biso   1.000  H
  H27      1.0000 0.70170  0.56970  0.21920  Biso   1.000  H
  H28      1.0000 0.29830  0.56970  0.28080  Biso   1.000  H
  H29      1.0000 0.79830  0.93030  0.78080  Biso   1.000  H
  H30      1.0000 0.20170  0.93030  0.71920  Biso   1.000  H
  H31      1.0000 0.29830  0.43030  0.78080  Biso   1.000  H
  H32      1.0000 0.70170  0.43030  0.71920  Biso   1.000  H
  C25      1.0000 0.03810  0.28240  0.19570  Biso   1.000  C
  C26      1.0000 0.96190  0.28240  0.30430  Biso   1.000  C
  C27      1.0000 0.53810  0.78240  0.19570  Biso   1.000  C
  C28      1.0000 0.46190  0.78240  0.30430  Biso   1.000  C
  C29      1.0000 0.96190  0.71760  0.80430  Biso   1.000  C
  C30      1.0000 0.03810  0.71760  0.69570  Biso   1.000  C
  C31      1.0000 0.46190  0.21760  0.80430  Biso   1.000  C
  C32      1.0000 0.53810  0.21760  0.69570  Biso   1.000  C
  H33      1.0000 0.99210  0.36520  0.13410  Biso   1.000  H
  H34      1.0000 0.00790  0.36520  0.36590  Biso   1.000  H
  H35      1.0000 0.49210  0.86520  0.13410  Biso   1.000  H
  H36      1.0000 0.50790  0.86520  0.36590  Biso   1.000  H
  H37      1.0000 0.00790  0.63480  0.86590  Biso   1.000  H
  H38      1.0000 0.99210  0.63480  0.63410  Biso   1.000  H
  H39      1.0000 0.50790  0.13480  0.86590  Biso   1.000  H
  H40      1.0000 0.49210  0.13480  0.63410  Biso   1.000  H
  H41      1.0000 0.08040  0.36960  0.25890  Biso   1.000  H
  H42      1.0000 0.91960  0.36960  0.24110  Biso   1.000  H
  H43      1.0000 0.58040  0.86960  0.25890  Biso   1.000  H
  H44      1.0000 0.41960  0.86960  0.24110  Biso   1.000  H
  H45      1.0000 0.91960  0.63040  0.74110  Biso   1.000  H
  H46      1.0000 0.08040  0.63040  0.75890  Biso   1.000  H
  H47      1.0000 0.41960  0.13040  0.74110  Biso   1.000  H
  H48      1.0000 0.58040  0.13040  0.75890  Biso   1.000  H
  C33      1.0000 0.00000  0.15430  0.25000  Biso   1.000  C
  C34      1.0000 0.50000  0.65430  0.25000  Biso   1.000  C
  C35      1.0000 0.00000  0.84570  0.75000  Biso   1.000  C
  C36      1.0000 0.50000  0.34570  0.75000  Biso   1.000  C
  H49      1.0000 0.96700  0.09300  0.18900  Biso   1.000  H
  H50      1.0000 0.03300  0.09300  0.31100  Biso   1.000  H
  H51      1.0000 0.46700  0.59300  0.18900  Biso   1.000  H
  H52      1.0000 0.53300  0.59300  0.31100  Biso   1.000  H
  H53      1.0000 0.03300  0.90700  0.81100  Biso   1.000  H
  H54      1.0000 0.96700  0.90700  0.68900  Biso   1.000  H
  H55      1.0000 0.53300  0.40700  0.81100  Biso   1.000  H
  H56      1.0000 0.46700  0.40700  0.68900  Biso   1.000  H
  C37      1.0000 0.13890  0.25380  0.00940  Biso   1.000  C
  C38      1.0000 0.86110  0.25380  0.49060  Biso   1.000  C
  C39      1.0000 0.63890  0.75380  0.00940  Biso   1.000  C
  C40      1.0000 0.36110  0.75380  0.49060  Biso   1.000  C
  C41      1.0000 0.86110  0.74620  0.99060  Biso   1.000  C
  C42      1.0000 0.13890  0.74620  0.50940  Biso   1.000  C
  C43      1.0000 0.36110  0.24620  0.99060  Biso   1.000  C
  C44      1.0000 0.63890  0.24620  0.50940  Biso   1.000  C
  H57      1.0000 0.16300  0.34900  0.89500  Biso   1.000  H
  H58      1.0000 0.83700  0.34900  0.60500  Biso   1.000  H
  H59      1.0000 0.66300  0.84900  0.89500  Biso   1.000  H
  H60      1.0000 0.33700  0.84900  0.60500  Biso   1.000  H
  H61      1.0000 0.83700  0.65100  0.10500  Biso   1.000  H
  H62      1.0000 0.16300  0.65100  0.39500  Biso   1.000  H
  H63      1.0000 0.33700  0.15100  0.10500  Biso   1.000  H
  H64      1.0000 0.66300  0.15100  0.39500  Biso   1.000  H
