data_image0
_cell_length_a       13.0605
_cell_length_b       16.4911
_cell_length_c       16.6975
_cell_angle_alpha    90
_cell_angle_beta     90
_cell_angle_gamma    90

_symmetry_space_group_name_H-M    "P 1"
_symmetry_int_tables_number       1

loop_
  _symmetry_equiv_pos_as_xyz
  'x, y, z'

loop_
  _atom_site_label
  _atom_site_occupancy
  _atom_site_fract_x
  _atom_site_fract_y
  _atom_site_fract_z
  _atom_site_thermal_displace_type
  _atom_site_B_iso_or_equiv
  _atom_site_type_symbol
  Cu1      1.0000 0.40787  0.19694  0.35583  Biso   1.000  Cu
  Cu2      1.0000 0.90787  0.30306  0.64417  Biso   1.000  Cu
  Cu3      1.0000 0.59213  0.69694  0.14417  Biso   1.000  Cu
  Cu4      1.0000 0.09213  0.80306  0.85583  Biso   1.000  Cu
  Cu5      1.0000 0.59213  0.80306  0.64417  Biso   1.000  Cu
  Cu6      1.0000 0.09213  0.69694  0.35583  Biso   1.000  Cu
  Cu7      1.0000 0.40787  0.30306  0.85583  Biso   1.000  Cu
  Cu8      1.0000 0.90787  0.19694  0.14417  Biso   1.000  Cu
  O1       1.0000 0.39200  0.08080  0.35470  Biso   1.000  O
  O2       1.0000 0.89200  0.41920  0.64530  Biso   1.000  O
  O3       1.0000 0.60800  0.58080  0.14530  Biso   1.000  O
  O4       1.0000 0.10800  0.91920  0.85470  Biso   1.000  O
  O5       1.0000 0.60800  0.91920  0.64530  Biso   1.000  O
  O6       1.0000 0.10800  0.58080  0.35470  Biso   1.000  O
  O7       1.0000 0.39200  0.41920  0.85470  Biso   1.000  O
  O8       1.0000 0.89200  0.08080  0.14530  Biso   1.000  O
  O9       1.0000 0.39270  0.31820  0.37498  Biso   1.000  O
  O10      1.0000 0.89270  0.18180  0.62502  Biso   1.000  O
  O11      1.0000 0.60730  0.81820  0.12502  Biso   1.000  O
  O12      1.0000 0.10730  0.68180  0.87498  Biso   1.000  O
  O13      1.0000 0.60730  0.68180  0.62502  Biso   1.000  O
  O14      1.0000 0.10730  0.81820  0.37498  Biso   1.000  O
  O15      1.0000 0.39270  0.18180  0.87498  Biso   1.000  O
  O16      1.0000 0.89270  0.31820  0.12502  Biso   1.000  O
  N1       1.0000 0.49900  0.20770  0.22660  Biso   1.000  N
  N2       1.0000 0.99900  0.29230  0.77340  Biso   1.000  N
  N3       1.0000 0.50100  0.70770  0.27340  Biso   1.000  N
  N4       1.0000 0.00100  0.79230  0.72660  Biso   1.000  N
  N5       1.0000 0.50100  0.79230  0.77340  Biso   1.000  N
  N6       1.0000 0.00100  0.70770  0.22660  Biso   1.000  N
  N7       1.0000 0.49900  0.29230  0.72660  Biso   1.000  N
  N8       1.0000 0.99900  0.20770  0.27340  Biso   1.000  N
  N9       1.0000 0.77070  0.20680  0.19730  Biso   1.000  N
  N10      1.0000 0.27070  0.29320  0.80270  Biso   1.000  N
  N11      1.0000 0.22930  0.70680  0.30270  Biso   1.000  N
  N12      1.0000 0.72930  0.79320  0.69730  Biso   1.000  N
  N13      1.0000 0.22930  0.79320  0.80270  Biso   1.000  N
  N14      1.0000 0.72930  0.70680  0.19730  Biso   1.000  N
  N15      1.0000 0.77070  0.29320  0.69730  Biso   1.000  N
  N16      1.0000 0.27070  0.20680  0.30270  Biso   1.000  N
  N17      1.0000 0.65750  0.26490  0.27980  Biso   1.000  N
  N18      1.0000 0.15750  0.23510  0.72020  Biso   1.000  N
  N19      1.0000 0.34250  0.76490  0.22020  Biso   1.000  N
  N20      1.0000 0.84250  0.73510  0.77980  Biso   1.000  N
  N21      1.0000 0.34250  0.73510  0.72020  Biso   1.000  N
  N22      1.0000 0.84250  0.76490  0.27980  Biso   1.000  N
  N23      1.0000 0.65750  0.23510  0.77980  Biso   1.000  N
  N24      1.0000 0.15750  0.26490  0.22020  Biso   1.000  N
  N25      1.0000 0.52930  0.12410  0.11010  Biso   1.000  N
  N26      1.0000 0.02930  0.37590  0.88990  Biso   1.000  N
  N27      1.0000 0.47070  0.62410  0.38990  Biso   1.000  N
  N28      1.0000 0.97070  0.87590  0.61010  Biso   1.000  N
  N29      1.0000 0.47070  0.87590  0.88990  Biso   1.000  N
  N30      1.0000 0.97070  0.62410  0.11010  Biso   1.000  N
  N31      1.0000 0.52930  0.37590  0.61010  Biso   1.000  N
  N32      1.0000 0.02930  0.12410  0.38990  Biso   1.000  N
  N33      1.0000 0.69070  0.09140  0.06360  Biso   1.000  N
  N34      1.0000 0.19070  0.40860  0.93640  Biso   1.000  N
  N35      1.0000 0.30930  0.59140  0.43640  Biso   1.000  N
  N36      1.0000 0.80930  0.90860  0.56360  Biso   1.000  N
  N37      1.0000 0.30930  0.90860  0.93640  Biso   1.000  N
  N38      1.0000 0.80930  0.59140  0.06360  Biso   1.000  N
  N39      1.0000 0.69070  0.40860  0.56360  Biso   1.000  N
  N40      1.0000 0.19070  0.09140  0.43640  Biso   1.000  N
  N41      1.0000 0.54340  0.19400  0.40560  Biso   1.000  N
  N42      1.0000 0.04340  0.30600  0.59440  Biso   1.000  N
  N43      1.0000 0.45660  0.69400  0.09440  Biso   1.000  N
  N44      1.0000 0.95660  0.80600  0.90560  Biso   1.000  N
  N45      1.0000 0.45660  0.80600  0.59440  Biso   1.000  N
  N46      1.0000 0.95660  0.69400  0.40560  Biso   1.000  N
  N47      1.0000 0.54340  0.30600  0.90560  Biso   1.000  N
  N48      1.0000 0.04340  0.19400  0.09440  Biso   1.000  N
  N49      1.0000 0.33770  0.32630  0.43920  Biso   1.000  N
  N50      1.0000 0.83770  0.17370  0.56080  Biso   1.000  N
  N51      1.0000 0.66230  0.82630  0.06080  Biso   1.000  N
  N52      1.0000 0.16230  0.67370  0.93920  Biso   1.000  N
  N53      1.0000 0.66230  0.67370  0.56080  Biso   1.000  N
  N54      1.0000 0.16230  0.82630  0.43920  Biso   1.000  N
  N55      1.0000 0.33770  0.17370  0.93920  Biso   1.000  N
  N56      1.0000 0.83770  0.32630  0.06080  Biso   1.000  N
  O17      1.0000 0.30250  0.39350  0.45420  Biso   1.000  O
  O18      1.0000 0.80250  0.10650  0.54580  Biso   1.000  O
  O19      1.0000 0.69750  0.89350  0.04580  Biso   1.000  O
  O20      1.0000 0.19750  0.60650  0.95420  Biso   1.000  O
  O21      1.0000 0.69750  0.60650  0.54580  Biso   1.000  O
  O22      1.0000 0.19750  0.89350  0.45420  Biso   1.000  O
  O23      1.0000 0.30250  0.10650  0.95420  Biso   1.000  O
  O24      1.0000 0.80250  0.39350  0.04580  Biso   1.000  O
  O25      1.0000 0.32240  0.26570  0.48080  Biso   1.000  O
  O26      1.0000 0.82240  0.23430  0.51920  Biso   1.000  O
  O27      1.0000 0.67760  0.76570  0.01920  Biso   1.000  O
  O28      1.0000 0.17760  0.73430  0.98080  Biso   1.000  O
  O29      1.0000 0.67760  0.73430  0.51920  Biso   1.000  O
  O30      1.0000 0.17760  0.76570  0.48080  Biso   1.000  O
  O31      1.0000 0.32240  0.23430  0.98080  Biso   1.000  O
  O32      1.0000 0.82240  0.26570  0.01920  Biso   1.000  O
  C1       1.0000 0.75730  0.25660  0.25800  Biso   1.000  C
  C2       1.0000 0.25730  0.24340  0.74200  Biso   1.000  C
  C3       1.0000 0.24270  0.75660  0.24200  Biso   1.000  C
  C4       1.0000 0.74270  0.74340  0.75800  Biso   1.000  C
  C5       1.0000 0.24270  0.74340  0.74200  Biso   1.000  C
  C6       1.0000 0.74270  0.75660  0.25800  Biso   1.000  C
  C7       1.0000 0.75730  0.24340  0.75800  Biso   1.000  C
  C8       1.0000 0.25730  0.25660  0.24200  Biso   1.000  C
  H1       1.0000 0.81190  0.28410  0.28400  Biso   1.000  H
  H2       1.0000 0.31190  0.21590  0.71600  Biso   1.000  H
  H3       1.0000 0.18810  0.78410  0.21600  Biso   1.000  H
  H4       1.0000 0.68810  0.71590  0.78400  Biso   1.000  H
  H5       1.0000 0.18810  0.71590  0.71600  Biso   1.000  H
  H6       1.0000 0.68810  0.78410  0.28400  Biso   1.000  H
  H7       1.0000 0.81190  0.21590  0.78400  Biso   1.000  H
  H8       1.0000 0.31190  0.28410  0.21600  Biso   1.000  H
  C9       1.0000 0.60200  0.21710  0.22790  Biso   1.000  C
  C10      1.0000 0.10200  0.28290  0.77210  Biso   1.000  C
  C11      1.0000 0.39800  0.71710  0.27210  Biso   1.000  C
  C12      1.0000 0.89800  0.78290  0.72790  Biso   1.000  C
  C13      1.0000 0.39800  0.78290  0.77210  Biso   1.000  C
  C14      1.0000 0.89800  0.71710  0.22790  Biso   1.000  C
  C15      1.0000 0.60200  0.28290  0.72790  Biso   1.000  C
  C16      1.0000 0.10200  0.21710  0.27210  Biso   1.000  C
  C17      1.0000 0.47120  0.16060  0.16480  Biso   1.000  C
  C18      1.0000 0.97120  0.33940  0.83520  Biso   1.000  C
  C19      1.0000 0.52880  0.66060  0.33520  Biso   1.000  C
  C20      1.0000 0.02880  0.83940  0.66480  Biso   1.000  C
  C21      1.0000 0.52880  0.83940  0.83520  Biso   1.000  C
  C22      1.0000 0.02880  0.66060  0.16480  Biso   1.000  C
  C23      1.0000 0.47120  0.33940  0.66480  Biso   1.000  C
  C24      1.0000 0.97120  0.16060  0.33520  Biso   1.000  C
  H9       1.0000 0.39960  0.15200  0.15930  Biso   1.000  H
  H10      1.0000 0.89960  0.34800  0.84070  Biso   1.000  H
  H11      1.0000 0.60040  0.65200  0.34070  Biso   1.000  H
  H12      1.0000 0.10040  0.84800  0.65930  Biso   1.000  H
  H13      1.0000 0.60040  0.84800  0.84070  Biso   1.000  H
  H14      1.0000 0.10040  0.65200  0.15930  Biso   1.000  H
  H15      1.0000 0.39960  0.34800  0.65930  Biso   1.000  H
  H16      1.0000 0.89960  0.15200  0.34070  Biso   1.000  H
  C25      1.0000 0.63310  0.13100  0.11540  Biso   1.000  C
  C26      1.0000 0.13310  0.36900  0.88460  Biso   1.000  C
  C27      1.0000 0.36690  0.63100  0.38460  Biso   1.000  C
  C28      1.0000 0.86690  0.86900  0.61540  Biso   1.000  C
  C29      1.0000 0.36690  0.86900  0.88460  Biso   1.000  C
  C30      1.0000 0.86690  0.63100  0.11540  Biso   1.000  C
  C31      1.0000 0.63310  0.36900  0.61540  Biso   1.000  C
  C32      1.0000 0.13310  0.13100  0.38460  Biso   1.000  C
  C33      1.0000 0.67160  0.18190  0.17660  Biso   1.000  C
  C34      1.0000 0.17160  0.31810  0.82340  Biso   1.000  C
  C35      1.0000 0.32840  0.68190  0.32340  Biso   1.000  C
  C36      1.0000 0.82840  0.81810  0.67660  Biso   1.000  C
  C37      1.0000 0.32840  0.81810  0.82340  Biso   1.000  C
  C38      1.0000 0.82840  0.68190  0.17660  Biso   1.000  C
  C39      1.0000 0.67160  0.31810  0.67660  Biso   1.000  C
  C40      1.0000 0.17160  0.18190  0.32340  Biso   1.000  C
  C41      1.0000 0.61690  0.31760  0.34310  Biso   1.000  C
  C42      1.0000 0.11690  0.18240  0.65690  Biso   1.000  C
  C43      1.0000 0.38310  0.81760  0.15690  Biso   1.000  C
  C44      1.0000 0.88310  0.68240  0.84310  Biso   1.000  C
  C45      1.0000 0.38310  0.68240  0.65690  Biso   1.000  C
  C46      1.0000 0.88310  0.81760  0.34310  Biso   1.000  C
  C47      1.0000 0.61690  0.18240  0.84310  Biso   1.000  C
  C48      1.0000 0.11690  0.31760  0.15690  Biso   1.000  C
  H17      1.0000 0.55150  0.34180  0.32500  Biso   1.000  H
  H18      1.0000 0.05150  0.15820  0.67500  Biso   1.000  H
  H19      1.0000 0.44850  0.84180  0.17500  Biso   1.000  H
  H20      1.0000 0.94850  0.65820  0.82500  Biso   1.000  H
  H21      1.0000 0.44850  0.65820  0.67500  Biso   1.000  H
  H22      1.0000 0.94850  0.84180  0.32500  Biso   1.000  H
  H23      1.0000 0.55150  0.15820  0.82500  Biso   1.000  H
  H24      1.0000 0.05150  0.34180  0.17500  Biso   1.000  H
  H25      1.0000 0.66580  0.36220  0.35340  Biso   1.000  H
  H26      1.0000 0.16580  0.13780  0.64660  Biso   1.000  H
  H27      1.0000 0.33420  0.86220  0.14660  Biso   1.000  H
  H28      1.0000 0.83420  0.63780  0.85340  Biso   1.000  H
  H29      1.0000 0.33420  0.63780  0.64660  Biso   1.000  H
  H30      1.0000 0.83420  0.86220  0.35340  Biso   1.000  H
  H31      1.0000 0.66580  0.13780  0.85340  Biso   1.000  H
  H32      1.0000 0.16580  0.36220  0.14660  Biso   1.000  H
  C49      1.0000 0.45990  0.02550  0.37800  Biso   1.000  C
  C50      1.0000 0.95990  0.47450  0.62200  Biso   1.000  C
  C51      1.0000 0.54010  0.52550  0.12200  Biso   1.000  C
  C52      1.0000 0.04010  0.97450  0.87800  Biso   1.000  C
  C53      1.0000 0.54010  0.97450  0.62200  Biso   1.000  C
  C54      1.0000 0.04010  0.52550  0.37800  Biso   1.000  C
  C55      1.0000 0.45990  0.47450  0.87800  Biso   1.000  C
  C56      1.0000 0.95990  0.02550  0.12200  Biso   1.000  C
  C57      1.0000 0.43480  0.94340  0.37150  Biso   1.000  C
  C58      1.0000 0.93480  0.55660  0.62850  Biso   1.000  C
  C59      1.0000 0.56520  0.44340  0.12850  Biso   1.000  C
  C60      1.0000 0.06520  0.05660  0.87150  Biso   1.000  C
  C61      1.0000 0.56520  0.05660  0.62850  Biso   1.000  C
  C62      1.0000 0.06520  0.44340  0.37150  Biso   1.000  C
  C63      1.0000 0.43480  0.55660  0.87150  Biso   1.000  C
  C64      1.0000 0.93480  0.94340  0.12850  Biso   1.000  C
  H33      1.0000 0.37040  0.92840  0.34950  Biso   1.000  H
  H34      1.0000 0.87040  0.57160  0.65050  Biso   1.000  H
  H35      1.0000 0.62960  0.42840  0.15050  Biso   1.000  H
  H36      1.0000 0.12960  0.07160  0.84950  Biso   1.000  H
  H37      1.0000 0.62960  0.07160  0.65050  Biso   1.000  H
  H38      1.0000 0.12960  0.42840  0.34950  Biso   1.000  H
  H39      1.0000 0.37040  0.57160  0.84950  Biso   1.000  H
  H40      1.0000 0.87040  0.92840  0.15050  Biso   1.000  H
  C65      1.0000 0.50180  0.88340  0.39620  Biso   1.000  C
  C66      1.0000 0.00180  0.61660  0.60380  Biso   1.000  C
  C67      1.0000 0.49820  0.38340  0.10380  Biso   1.000  C
  C68      1.0000 0.99820  0.11660  0.89620  Biso   1.000  C
  C69      1.0000 0.49820  0.11660  0.60380  Biso   1.000  C
  C70      1.0000 0.99820  0.38340  0.39620  Biso   1.000  C
  C71      1.0000 0.50180  0.61660  0.89620  Biso   1.000  C
  C72      1.0000 0.00180  0.88340  0.10380  Biso   1.000  C
  H41      1.0000 0.48260  0.82800  0.39160  Biso   1.000  H
  H42      1.0000 0.98260  0.67200  0.60840  Biso   1.000  H
  H43      1.0000 0.51740  0.32800  0.10840  Biso   1.000  H
  H44      1.0000 0.01740  0.17200  0.89160  Biso   1.000  H
  H45      1.0000 0.51740  0.17200  0.60840  Biso   1.000  H
  H46      1.0000 0.01740  0.32800  0.39160  Biso   1.000  H
  H47      1.0000 0.48260  0.67200  0.89160  Biso   1.000  H
  H48      1.0000 0.98260  0.82800  0.10840  Biso   1.000  H
  C73      1.0000 0.59760  0.90370  0.42790  Biso   1.000  C
  C74      1.0000 0.09760  0.59630  0.57210  Biso   1.000  C
  C75      1.0000 0.40240  0.40370  0.07210  Biso   1.000  C
  C76      1.0000 0.90240  0.09630  0.92790  Biso   1.000  C
  C77      1.0000 0.40240  0.09630  0.57210  Biso   1.000  C
  C78      1.0000 0.90240  0.40370  0.42790  Biso   1.000  C
  C79      1.0000 0.59760  0.59630  0.92790  Biso   1.000  C
  C80      1.0000 0.09760  0.90370  0.07210  Biso   1.000  C
  H49      1.0000 0.64410  0.86270  0.44450  Biso   1.000  H
  H50      1.0000 0.14410  0.63730  0.55550  Biso   1.000  H
  H51      1.0000 0.35590  0.36270  0.05550  Biso   1.000  H
  H52      1.0000 0.85590  0.13730  0.94450  Biso   1.000  H
  H53      1.0000 0.35590  0.13730  0.55550  Biso   1.000  H
  H54      1.0000 0.85590  0.36270  0.44450  Biso   1.000  H
  H55      1.0000 0.64410  0.63730  0.94450  Biso   1.000  H
  H56      1.0000 0.14410  0.86270  0.05550  Biso   1.000  H
  C81      1.0000 0.62290  0.98380  0.43460  Biso   1.000  C
  C82      1.0000 0.12290  0.51620  0.56540  Biso   1.000  C
  C83      1.0000 0.37710  0.48380  0.06540  Biso   1.000  C
  C84      1.0000 0.87710  0.01620  0.93460  Biso   1.000  C
  C85      1.0000 0.37710  0.01620  0.56540  Biso   1.000  C
  C86      1.0000 0.87710  0.48380  0.43460  Biso   1.000  C
  C87      1.0000 0.62290  0.51620  0.93460  Biso   1.000  C
  C88      1.0000 0.12290  0.98380  0.06540  Biso   1.000  C
  H57      1.0000 0.68780  0.99790  0.45630  Biso   1.000  H
  H58      1.0000 0.18780  0.50210  0.54370  Biso   1.000  H
  H59      1.0000 0.31220  0.49790  0.04370  Biso   1.000  H
  H60      1.0000 0.81220  0.00210  0.95630  Biso   1.000  H
  H61      1.0000 0.31220  0.00210  0.54370  Biso   1.000  H
  H62      1.0000 0.81220  0.49790  0.45630  Biso   1.000  H
  H63      1.0000 0.68780  0.50210  0.95630  Biso   1.000  H
  H64      1.0000 0.18780  0.99790  0.04370  Biso   1.000  H
  C89      1.0000 0.55630  0.04610  0.41050  Biso   1.000  C
  C90      1.0000 0.05630  0.45390  0.58950  Biso   1.000  C
  C91      1.0000 0.44370  0.54610  0.08950  Biso   1.000  C
  C92      1.0000 0.94370  0.95390  0.91050  Biso   1.000  C
  C93      1.0000 0.44370  0.95390  0.58950  Biso   1.000  C
  C94      1.0000 0.94370  0.54610  0.41050  Biso   1.000  C
  C95      1.0000 0.55630  0.45390  0.91050  Biso   1.000  C
  C96      1.0000 0.05630  0.04610  0.08950  Biso   1.000  C
  C97      1.0000 0.59200  0.12740  0.42180  Biso   1.000  C
  C98      1.0000 0.09200  0.37260  0.57820  Biso   1.000  C
  C99      1.0000 0.40800  0.62740  0.07820  Biso   1.000  C
  C100     1.0000 0.90800  0.87260  0.92180  Biso   1.000  C
  C101     1.0000 0.40800  0.87260  0.57820  Biso   1.000  C
  C102     1.0000 0.90800  0.62740  0.42180  Biso   1.000  C
  C103     1.0000 0.59200  0.37260  0.92180  Biso   1.000  C
  C104     1.0000 0.09200  0.12740  0.07820  Biso   1.000  C
  H65      1.0000 0.65870  0.13330  0.44370  Biso   1.000  H
  H66      1.0000 0.15870  0.36670  0.55630  Biso   1.000  H
  H67      1.0000 0.34130  0.63330  0.05630  Biso   1.000  H
  H68      1.0000 0.84130  0.86670  0.94370  Biso   1.000  H
  H69      1.0000 0.34130  0.86670  0.55630  Biso   1.000  H
  H70      1.0000 0.84130  0.63330  0.44370  Biso   1.000  H
  H71      1.0000 0.65870  0.36670  0.94370  Biso   1.000  H
  H72      1.0000 0.15870  0.13330  0.05630  Biso   1.000  H
  C105     1.0000 0.59880  0.27020  0.42090  Biso   1.000  C
  C106     1.0000 0.09880  0.22980  0.57910  Biso   1.000  C
  C107     1.0000 0.40120  0.77020  0.07910  Biso   1.000  C
  C108     1.0000 0.90120  0.72980  0.92090  Biso   1.000  C
  C109     1.0000 0.40120  0.72980  0.57910  Biso   1.000  C
  C110     1.0000 0.90120  0.77020  0.42090  Biso   1.000  C
  C111     1.0000 0.59880  0.22980  0.92090  Biso   1.000  C
  C112     1.0000 0.09880  0.27020  0.07910  Biso   1.000  C
  H73      1.0000 0.66560  0.25780  0.44620  Biso   1.000  H
  H74      1.0000 0.16560  0.24220  0.55380  Biso   1.000  H
  H75      1.0000 0.33440  0.75780  0.05380  Biso   1.000  H
  H76      1.0000 0.83440  0.74220  0.94620  Biso   1.000  H
  H77      1.0000 0.33440  0.74220  0.55380  Biso   1.000  H
  H78      1.0000 0.83440  0.75780  0.44620  Biso   1.000  H
  H79      1.0000 0.66560  0.24220  0.94620  Biso   1.000  H
  H80      1.0000 0.16560  0.25780  0.05380  Biso   1.000  H
  H81      1.0000 0.55880  0.30400  0.45850  Biso   1.000  H
  H82      1.0000 0.05880  0.19600  0.54150  Biso   1.000  H
  H83      1.0000 0.44120  0.80400  0.04150  Biso   1.000  H
  H84      1.0000 0.94120  0.69600  0.95850  Biso   1.000  H
  H85      1.0000 0.44120  0.69600  0.54150  Biso   1.000  H
  H86      1.0000 0.94120  0.80400  0.45850  Biso   1.000  H
  H87      1.0000 0.55880  0.19600  0.95850  Biso   1.000  H
  H88      1.0000 0.05880  0.30400  0.04150  Biso   1.000  H
  H89      1.0000 0.66500  0.06300  0.03200  Biso   1.000  H
  H90      1.0000 0.16500  0.43700  0.96800  Biso   1.000  H
  H91      1.0000 0.33500  0.56300  0.46800  Biso   1.000  H
  H92      1.0000 0.83500  0.93700  0.53200  Biso   1.000  H
  H93      1.0000 0.33500  0.93700  0.96800  Biso   1.000  H
  H94      1.0000 0.83500  0.56300  0.03200  Biso   1.000  H
  H95      1.0000 0.66500  0.43700  0.53200  Biso   1.000  H
  H96      1.0000 0.16500  0.06300  0.46800  Biso   1.000  H
  H97      1.0000 0.75700  0.08900  0.07000  Biso   1.000  H
  H98      1.0000 0.25700  0.41100  0.93000  Biso   1.000  H
  H99      1.0000 0.24300  0.58900  0.43000  Biso   1.000  H
  H100     1.0000 0.74300  0.91100  0.57000  Biso   1.000  H
  H101     1.0000 0.24300  0.91100  0.93000  Biso   1.000  H
  H102     1.0000 0.74300  0.58900  0.07000  Biso   1.000  H
  H103     1.0000 0.75700  0.41100  0.57000  Biso   1.000  H
  H104     1.0000 0.25700  0.08900  0.43000  Biso   1.000  H
  O33      1.0000 0.78320  0.02330  0.28040  Biso   1.000  O
  O34      1.0000 0.28320  0.47670  0.71960  Biso   1.000  O
  O35      1.0000 0.21680  0.52330  0.21960  Biso   1.000  O
  O36      1.0000 0.71680  0.97670  0.78040  Biso   1.000  O
  O37      1.0000 0.21680  0.97670  0.71960  Biso   1.000  O
  O38      1.0000 0.71680  0.52330  0.28040  Biso   1.000  O
  O39      1.0000 0.78320  0.47670  0.78040  Biso   1.000  O
  O40      1.0000 0.28320  0.02330  0.21960  Biso   1.000  O
  H105     1.0000 0.82090  0.04110  0.24370  Biso   1.000  H
  H106     1.0000 0.32090  0.45890  0.75630  Biso   1.000  H
  H107     1.0000 0.17910  0.54110  0.25630  Biso   1.000  H
  H108     1.0000 0.67910  0.95890  0.74370  Biso   1.000  H
  H109     1.0000 0.17910  0.95890  0.75630  Biso   1.000  H
  H110     1.0000 0.67910  0.54110  0.24370  Biso   1.000  H
  H111     1.0000 0.82090  0.45890  0.74370  Biso   1.000  H
  H112     1.0000 0.32090  0.04110  0.25630  Biso   1.000  H
  C113     1.0000 0.68640  0.98050  0.24250  Biso   1.000  C
  C114     1.0000 0.18640  0.51950  0.75750  Biso   1.000  C
  C115     1.0000 0.31360  0.48050  0.25750  Biso   1.000  C
  C116     1.0000 0.81360  0.01950  0.74250  Biso   1.000  C
  C117     1.0000 0.31360  0.01950  0.75750  Biso   1.000  C
  C118     1.0000 0.81360  0.48050  0.24250  Biso   1.000  C
  C119     1.0000 0.68640  0.51950  0.74250  Biso   1.000  C
  C120     1.0000 0.18640  0.98050  0.25750  Biso   1.000  C
  H113     1.0000 0.70110  0.96590  0.18680  Biso   1.000  H
  H114     1.0000 0.20110  0.53410  0.81320  Biso   1.000  H
  H115     1.0000 0.29890  0.46590  0.31320  Biso   1.000  H
  H116     1.0000 0.79890  0.03410  0.68680  Biso   1.000  H
  H117     1.0000 0.29890  0.03410  0.81320  Biso   1.000  H
  H118     1.0000 0.79890  0.46590  0.18680  Biso   1.000  H
  H119     1.0000 0.70110  0.53410  0.68680  Biso   1.000  H
  H120     1.0000 0.20110  0.96590  0.31320  Biso   1.000  H
  H121     1.0000 0.62790  0.01770  0.24420  Biso   1.000  H
  H122     1.0000 0.12790  0.48230  0.75580  Biso   1.000  H
  H123     1.0000 0.37210  0.51770  0.25580  Biso   1.000  H
  H124     1.0000 0.87210  0.98230  0.74420  Biso   1.000  H
  H125     1.0000 0.37210  0.98230  0.75580  Biso   1.000  H
  H126     1.0000 0.87210  0.51770  0.24420  Biso   1.000  H
  H127     1.0000 0.62790  0.48230  0.74420  Biso   1.000  H
  H128     1.0000 0.12790  0.01770  0.25580  Biso   1.000  H
  H129     1.0000 0.67020  0.93140  0.27310  Biso   1.000  H
  H130     1.0000 0.17020  0.56860  0.72690  Biso   1.000  H
  H131     1.0000 0.32980  0.43140  0.22690  Biso   1.000  H
  H132     1.0000 0.82980  0.06860  0.77310  Biso   1.000  H
  H133     1.0000 0.32980  0.06860  0.72690  Biso   1.000  H
  H134     1.0000 0.82980  0.43140  0.27310  Biso   1.000  H
  H135     1.0000 0.67020  0.56860  0.77310  Biso   1.000  H
  H136     1.0000 0.17020  0.93140  0.22690  Biso   1.000  H
  O41      1.0000 0.89630  0.98570  0.42350  Biso   1.000  O
  O42      1.0000 0.39630  0.51430  0.57650  Biso   1.000  O
  O43      1.0000 0.10370  0.48570  0.07650  Biso   1.000  O
  O44      1.0000 0.60370  0.01430  0.92350  Biso   1.000  O
  O45      1.0000 0.10370  0.01430  0.57650  Biso   1.000  O
  O46      1.0000 0.60370  0.48570  0.42350  Biso   1.000  O
  O47      1.0000 0.89630  0.51430  0.92350  Biso   1.000  O
  O48      1.0000 0.39630  0.98570  0.07650  Biso   1.000  O
  H137     1.0000 0.90500  0.03840  0.42800  Biso   1.000  H
  H138     1.0000 0.40500  0.46160  0.57200  Biso   1.000  H
  H139     1.0000 0.09500  0.53840  0.07200  Biso   1.000  H
  H140     1.0000 0.59500  0.96160  0.92800  Biso   1.000  H
  H141     1.0000 0.09500  0.96160  0.57200  Biso   1.000  H
  H142     1.0000 0.59500  0.53840  0.42800  Biso   1.000  H
  H143     1.0000 0.90500  0.46160  0.92800  Biso   1.000  H
  H144     1.0000 0.40500  0.03840  0.07200  Biso   1.000  H
  H145     1.0000 0.95700  0.97300  0.43700  Biso   1.000  H
  H146     1.0000 0.45700  0.52700  0.56300  Biso   1.000  H
  H147     1.0000 0.04300  0.47300  0.06300  Biso   1.000  H
  H148     1.0000 0.54300  0.02700  0.93700  Biso   1.000  H
  H149     1.0000 0.04300  0.02700  0.56300  Biso   1.000  H
  H150     1.0000 0.54300  0.47300  0.43700  Biso   1.000  H
  H151     1.0000 0.95700  0.52700  0.93700  Biso   1.000  H
  H152     1.0000 0.45700  0.97300  0.06300  Biso   1.000  H
