data_image0
_cell_length_a       5.218
_cell_length_b       8.395
_cell_length_c       9.112
_cell_angle_alpha    108.77
_cell_angle_beta     98.86
_cell_angle_gamma    106.56

_symmetry_space_group_name_H-M    "P 1"
_symmetry_int_tables_number       1

loop_
  _symmetry_equiv_pos_as_xyz
  'x, y, z'

loop_
  _atom_site_label
  _atom_site_occupancy
  _atom_site_fract_x
  _atom_site_fract_y
  _atom_site_fract_z
  _atom_site_thermal_displace_type
  _atom_site_B_iso_or_equiv
  _atom_site_type_symbol
  Cu1      1.0000 0.00000  0.00000  0.50000  Biso   1.000  Cu
  Na1      1.0000 0.31270  0.63694  0.49329  Biso   1.000  Na
  Na2      1.0000 0.68730  0.36306  0.50671  Biso   1.000  Na
  O1       1.0000 0.49000  0.25840  0.99350  Biso   1.000  O
  O2       1.0000 0.51000  0.74160  0.00650  Biso   1.000  O
  O3       1.0000 0.14530  0.87590  0.61880  Biso   1.000  O
  O4       1.0000 0.85470  0.12410  0.38120  Biso   1.000  O
  O5       1.0000 0.33960  0.20600  0.61820  Biso   1.000  O
  O6       1.0000 0.66040  0.79400  0.38180  Biso   1.000  O
  O7       1.0000 0.13860  0.47440  0.68000  Biso   1.000  O
  O8       1.0000 0.86140  0.52560  0.32000  Biso   1.000  O
  O9       1.0000 0.28060  0.33060  0.32570  Biso   1.000  O
  O10      1.0000 0.71940  0.66940  0.67430  Biso   1.000  O
  C1       1.0000 0.26880  0.09100  0.89690  Biso   1.000  C
  C2       1.0000 0.73120  0.90900  0.10310  Biso   1.000  C
  C3       1.0000 0.36250  0.00350  0.75280  Biso   1.000  C
  C4       1.0000 0.63750  0.99650  0.24720  Biso   1.000  C
  C5       1.0000 0.52310  0.16780  0.72150  Biso   1.000  C
  C6       1.0000 0.47690  0.83220  0.27850  Biso   1.000  C
  C7       1.0000 0.64450  0.31430  0.88920  Biso   1.000  C
  C8       1.0000 0.35550  0.68570  0.11080  Biso   1.000  C
  H1       1.0000 0.21100  0.54200  0.76200  Biso   1.000  H
  H2       1.0000 0.78900  0.45800  0.23800  Biso   1.000  H
  H3       1.0000 0.23500  0.38200  0.67500  Biso   1.000  H
  H4       1.0000 0.76500  0.61800  0.32500  Biso   1.000  H
  H5       1.0000 0.12700  0.26100  0.33600  Biso   1.000  H
  H6       1.0000 0.87300  0.73900  0.66400  Biso   1.000  H
  H7       1.0000 0.28900  0.31100  0.24100  Biso   1.000  H
  H8       1.0000 0.71100  0.68900  0.75900  Biso   1.000  H
  H9       1.0000 0.50100  0.94700  0.78700  Biso   1.000  H
  H10      1.0000 0.49900  0.05300  0.21300  Biso   1.000  H
  H11      1.0000 0.67000  0.14300  0.66900  Biso   1.000  H
  H12      1.0000 0.33000  0.85700  0.33100  Biso   1.000  H
  H13      1.0000 0.22400  0.02200  0.96500  Biso   1.000  H
  H14      1.0000 0.77600  0.97800  0.03500  Biso   1.000  H
  H15      1.0000 0.10900  0.11700  0.87200  Biso   1.000  H
  H16      1.0000 0.89100  0.88300  0.12800  Biso   1.000  H
  H17      1.0000 0.63600  0.42800  0.89700  Biso   1.000  H
  H18      1.0000 0.36400  0.57200  0.10300  Biso   1.000  H
  H19      1.0000 0.83500  0.33100  0.93700  Biso   1.000  H
  H20      1.0000 0.16500  0.66900  0.06300  Biso   1.000  H
