data_image0
_cell_length_a       8.2221
_cell_length_b       12.112
_cell_length_c       22.855
_cell_angle_alpha    90
_cell_angle_beta     90
_cell_angle_gamma    90

_symmetry_space_group_name_H-M    "P 1"
_symmetry_int_tables_number       1

loop_
  _symmetry_equiv_pos_as_xyz
  'x, y, z'

loop_
  _atom_site_label
  _atom_site_occupancy
  _atom_site_fract_x
  _atom_site_fract_y
  _atom_site_fract_z
  _atom_site_thermal_displace_type
  _atom_site_B_iso_or_equiv
  _atom_site_type_symbol
  Cu1      1.0000 0.49526  0.61156  0.25157  Biso   1.000  Cu
  Cu2      1.0000 0.99526  0.88844  0.74843  Biso   1.000  Cu
  Cu3      1.0000 0.50474  0.11156  0.24843  Biso   1.000  Cu
  Cu4      1.0000 0.00474  0.38844  0.75157  Biso   1.000  Cu
  O1       1.0000 0.74290  0.86380  0.26569  Biso   1.000  O
  O2       1.0000 0.24290  0.63620  0.73431  Biso   1.000  O
  O3       1.0000 0.25710  0.36380  0.23431  Biso   1.000  O
  O4       1.0000 0.75710  0.13620  0.76569  Biso   1.000  O
  O5       1.0000 0.64520  0.36336  0.17449  Biso   1.000  O
  O6       1.0000 0.14520  0.13664  0.82551  Biso   1.000  O
  O7       1.0000 0.35480  0.86336  0.32551  Biso   1.000  O
  O8       1.0000 0.85480  0.63664  0.67449  Biso   1.000  O
  O9       1.0000 0.95720  0.40220  0.14498  Biso   1.000  O
  O10      1.0000 0.45720  0.09780  0.85502  Biso   1.000  O
  O11      1.0000 0.04280  0.90220  0.35502  Biso   1.000  O
  O12      1.0000 0.54280  0.59780  0.64498  Biso   1.000  O
  O13      1.0000 0.23340  0.59213  0.04941  Biso   1.000  O
  O14      1.0000 0.73340  0.90787  0.95059  Biso   1.000  O
  O15      1.0000 0.76660  0.09213  0.45059  Biso   1.000  O
  O16      1.0000 0.26660  0.40787  0.54941  Biso   1.000  O
  O17      1.0000 0.42140  0.52413  0.18653  Biso   1.000  O
  O18      1.0000 0.92140  0.97587  0.81347  Biso   1.000  O
  O19      1.0000 0.57860  0.02413  0.31347  Biso   1.000  O
  O20      1.0000 0.07860  0.47587  0.68653  Biso   1.000  O
  O21      1.0000 0.43870  0.74026  0.20591  Biso   1.000  O
  O22      1.0000 0.93870  0.75974  0.79409  Biso   1.000  O
  O23      1.0000 0.56130  0.24026  0.29409  Biso   1.000  O
  O24      1.0000 0.06130  0.25974  0.70591  Biso   1.000  O
  O25      1.0000 0.65820  0.80939  0.12087  Biso   1.000  O
  O26      1.0000 0.15820  0.69061  0.87913  Biso   1.000  O
  O27      1.0000 0.34180  0.30939  0.37913  Biso   1.000  O
  O28      1.0000 0.84180  0.19061  0.62087  Biso   1.000  O
  O29      1.0000 0.50880  0.54624  0.05885  Biso   1.000  O
  O30      1.0000 0.00880  0.95376  0.94115  Biso   1.000  O
  O31      1.0000 0.49120  0.04624  0.44115  Biso   1.000  O
  O32      1.0000 0.99120  0.45376  0.55885  Biso   1.000  O
  O33      1.0000 0.72240  0.61191  0.96652  Biso   1.000  O
  O34      1.0000 0.22240  0.88809  0.03348  Biso   1.000  O
  O35      1.0000 0.27760  0.11191  0.53348  Biso   1.000  O
  O36      1.0000 0.77760  0.38809  0.46652  Biso   1.000  O
  O37      1.0000 0.75880  0.62341  0.45379  Biso   1.000  O
  O38      1.0000 0.25880  0.87659  0.54621  Biso   1.000  O
  O39      1.0000 0.24120  0.12341  0.04621  Biso   1.000  O
  O40      1.0000 0.74120  0.37659  0.95379  Biso   1.000  O
  O41      1.0000 0.56420  0.69850  0.31780  Biso   1.000  O
  O42      1.0000 0.06420  0.80150  0.68220  Biso   1.000  O
  O43      1.0000 0.43580  0.19850  0.18220  Biso   1.000  O
  O44      1.0000 0.93580  0.30150  0.81780  Biso   1.000  O
  O45      1.0000 0.55850  0.48246  0.29540  Biso   1.000  O
  O46      1.0000 0.05850  0.01754  0.70460  Biso   1.000  O
  O47      1.0000 0.44150  0.98246  0.20460  Biso   1.000  O
  O48      1.0000 0.94150  0.51754  0.79540  Biso   1.000  O
  O49      1.0000 0.89850  0.42946  0.29149  Biso   1.000  O
  O50      1.0000 0.39850  0.07054  0.70851  Biso   1.000  O
  O51      1.0000 0.10150  0.92946  0.20851  Biso   1.000  O
  O52      1.0000 0.60150  0.57054  0.79149  Biso   1.000  O
  O53      1.0000 0.88750  0.69616  0.37127  Biso   1.000  O
  O54      1.0000 0.38750  0.80384  0.62873  Biso   1.000  O
  O55      1.0000 0.11250  0.19616  0.12873  Biso   1.000  O
  O56      1.0000 0.61250  0.30384  0.87127  Biso   1.000  O
  O57      1.0000 0.08070  0.70883  0.27065  Biso   1.000  O
  O58      1.0000 0.58070  0.79117  0.72935  Biso   1.000  O
  O59      1.0000 0.91930  0.20883  0.22935  Biso   1.000  O
  O60      1.0000 0.41930  0.29117  0.77065  Biso   1.000  O
  C1       1.0000 0.35160  0.54130  0.08414  Biso   1.000  C
  C2       1.0000 0.85160  0.95870  0.91586  Biso   1.000  C
  C3       1.0000 0.64840  0.04130  0.41586  Biso   1.000  C
  C4       1.0000 0.14840  0.45870  0.58414  Biso   1.000  C
  C5       1.0000 0.34390  0.59180  0.14517  Biso   1.000  C
  C6       1.0000 0.84390  0.90820  0.85483  Biso   1.000  C
  C7       1.0000 0.65610  0.09180  0.35483  Biso   1.000  C
  C8       1.0000 0.15610  0.40820  0.64517  Biso   1.000  C
  C9       1.0000 0.42420  0.70518  0.14679  Biso   1.000  C
  C10      1.0000 0.92420  0.79482  0.85321  Biso   1.000  C
  C11      1.0000 0.57580  0.20518  0.35321  Biso   1.000  C
  C12      1.0000 0.07580  0.29482  0.64679  Biso   1.000  C
  C13      1.0000 0.59100  0.69940  0.11863  Biso   1.000  C
  C14      1.0000 0.09100  0.80060  0.88137  Biso   1.000  C
  C15      1.0000 0.40900  0.19940  0.38137  Biso   1.000  C
  C16      1.0000 0.90900  0.30060  0.61863  Biso   1.000  C
  C17      1.0000 0.57620  0.65540  0.05634  Biso   1.000  C
  C18      1.0000 0.07620  0.84460  0.94366  Biso   1.000  C
  C19      1.0000 0.42380  0.15540  0.44366  Biso   1.000  C
  C20      1.0000 0.92380  0.34460  0.55634  Biso   1.000  C
  C21      1.0000 0.73890  0.64420  0.02623  Biso   1.000  C
  C22      1.0000 0.23890  0.85580  0.97377  Biso   1.000  C
  C23      1.0000 0.26110  0.14420  0.47377  Biso   1.000  C
  C24      1.0000 0.76110  0.35580  0.52623  Biso   1.000  C
  C25      1.0000 0.19420  0.53170  0.99785  Biso   1.000  C
  C26      1.0000 0.69420  0.96830  0.00215  Biso   1.000  C
  C27      1.0000 0.80580  0.03170  0.50215  Biso   1.000  C
  C28      1.0000 0.30580  0.46830  0.49785  Biso   1.000  C
  C29      1.0000 0.73860  0.68320  0.40128  Biso   1.000  C
  C30      1.0000 0.23860  0.81680  0.59872  Biso   1.000  C
  C31      1.0000 0.26140  0.18320  0.09872  Biso   1.000  C
  C32      1.0000 0.76140  0.31680  0.90128  Biso   1.000  C
  C33      1.0000 0.61040  0.62740  0.36412  Biso   1.000  C
  C34      1.0000 0.11040  0.87260  0.63588  Biso   1.000  C
  C35      1.0000 0.38960  0.12740  0.13588  Biso   1.000  C
  C36      1.0000 0.88960  0.37260  0.86412  Biso   1.000  C
  C37      1.0000 0.67070  0.51906  0.33784  Biso   1.000  C
  C38      1.0000 0.17070  0.98094  0.66216  Biso   1.000  C
  C39      1.0000 0.32930  0.01906  0.16216  Biso   1.000  C
  C40      1.0000 0.82930  0.48094  0.83784  Biso   1.000  C
  C41      1.0000 0.83790  0.53350  0.30916  Biso   1.000  C
  C42      1.0000 0.33790  0.96650  0.69084  Biso   1.000  C
  C43      1.0000 0.16210  0.03350  0.19084  Biso   1.000  C
  C44      1.0000 0.66210  0.46650  0.80916  Biso   1.000  C
  C45      1.0000 0.95760  0.59480  0.34829  Biso   1.000  C
  C46      1.0000 0.45760  0.90520  0.65171  Biso   1.000  C
  C47      1.0000 0.04240  0.09480  0.15171  Biso   1.000  C
  C48      1.0000 0.54240  0.40520  0.84829  Biso   1.000  C
  C49      1.0000 0.11060  0.63150  0.31647  Biso   1.000  C
  C50      1.0000 0.61060  0.86850  0.68353  Biso   1.000  C
  C51      1.0000 0.88940  0.13150  0.18353  Biso   1.000  C
  C52      1.0000 0.38940  0.36850  0.81647  Biso   1.000  C
  C53      1.0000 0.84760  0.68170  0.49767  Biso   1.000  C
  C54      1.0000 0.34760  0.81830  0.50233  Biso   1.000  C
  C55      1.0000 0.15240  0.18170  0.00233  Biso   1.000  C
  C56      1.0000 0.65240  0.31830  0.99767  Biso   1.000  C
  Li1      1.0000 0.58930  0.86550  0.19726  Biso   1.000  Li
  Li2      1.0000 0.08930  0.63450  0.80274  Biso   1.000  Li
  Li3      1.0000 0.41070  0.36550  0.30274  Biso   1.000  Li
  Li4      1.0000 0.91070  0.13450  0.69726  Biso   1.000  Li
  Li5      1.0000 0.70820  0.34840  0.26070  Biso   1.000  Li
  Li6      1.0000 0.20820  0.15160  0.73930  Biso   1.000  Li
  Li7      1.0000 0.29180  0.84840  0.23930  Biso   1.000  Li
  Li8      1.0000 0.79180  0.65160  0.76070  Biso   1.000  Li
  Li9      1.0000 0.02510  0.36630  0.23120  Biso   1.000  Li
  Li10     1.0000 0.52510  0.13370  0.76880  Biso   1.000  Li
  Li11     1.0000 0.97490  0.86630  0.26880  Biso   1.000  Li
  Li12     1.0000 0.47490  0.63370  0.73120  Biso   1.000  Li
  O61      1.0000 0.99280  0.81590  0.11838  Biso   1.000  O
  O62      1.0000 0.49280  0.68410  0.88162  Biso   1.000  O
  O63      1.0000 0.00720  0.31590  0.38162  Biso   1.000  O
  O64      1.0000 0.50720  0.18410  0.61838  Biso   1.000  O
  O65      1.0000 0.94270  0.62180  0.17354  Biso   1.000  O
  O66      1.0000 0.44270  0.87820  0.82646  Biso   1.000  O
  O67      1.0000 0.05730  0.12180  0.32646  Biso   1.000  O
  O68      1.0000 0.55730  0.37820  0.67354  Biso   1.000  O
