data_image0
_cell_length_a       5.176
_cell_length_b       9.451
_cell_length_c       9.372
_cell_angle_alpha    110.53
_cell_angle_beta     103.85
_cell_angle_gamma    104.4

_symmetry_space_group_name_H-M    "P 1"
_symmetry_int_tables_number       1

loop_
  _symmetry_equiv_pos_as_xyz
  'x, y, z'

loop_
  _atom_site_label
  _atom_site_occupancy
  _atom_site_fract_x
  _atom_site_fract_y
  _atom_site_fract_z
  _atom_site_thermal_displace_type
  _atom_site_B_iso_or_equiv
  _atom_site_type_symbol
  Cu1      1.0000 0.00000  0.00000  0.50000  Biso   1.000  Cu
  K1       1.0000 0.33717  0.65500  0.52408  Biso   1.000  K
  K2       1.0000 0.66283  0.34500  0.47592  Biso   1.000  K
  O1       1.0000 0.62280  0.29530  0.99380  Biso   1.000  O
  O2       1.0000 0.37720  0.70470  0.00620  Biso   1.000  O
  O3       1.0000 0.17850  0.91890  0.64260  Biso   1.000  O
  O4       1.0000 0.82150  0.08110  0.35740  Biso   1.000  O
  O5       1.0000 0.34030  0.19170  0.61090  Biso   1.000  O
  O6       1.0000 0.65970  0.80830  0.38910  Biso   1.000  O
  O7       1.0000 0.21790  0.45780  0.68200  Biso   1.000  O
  O8       1.0000 0.78210  0.54220  0.31800  Biso   1.000  O
  O9       1.0000 0.87320  0.70730  0.71570  Biso   1.000  O
  O10      1.0000 0.12680  0.29270  0.28430  Biso   1.000  O
  C1       1.0000 0.38320  0.14630  0.91760  Biso   1.000  C
  C2       1.0000 0.61680  0.85370  0.08240  Biso   1.000  C
  C3       1.0000 0.42580  0.04260  0.76700  Biso   1.000  C
  C4       1.0000 0.57420  0.95740  0.23300  Biso   1.000  C
  C5       1.0000 0.55580  0.17010  0.71380  Biso   1.000  C
  C6       1.0000 0.44420  0.82990  0.28620  Biso   1.000  C
  C7       1.0000 0.72820  0.31910  0.87440  Biso   1.000  C
  C8       1.0000 0.27180  0.68090  0.12560  Biso   1.000  C
  H1       1.0000 0.27700  0.51600  0.77200  Biso   1.000  H
  H2       1.0000 0.72300  0.48400  0.22800  Biso   1.000  H
  H3       1.0000 0.26600  0.36700  0.66500  Biso   1.000  H
  H4       1.0000 0.73400  0.63300  0.33500  Biso   1.000  H
  H5       1.0000 0.02800  0.81400  0.69600  Biso   1.000  H
  H6       1.0000 0.97200  0.18600  0.30400  Biso   1.000  H
  H7       1.0000 0.95200  0.72500  0.79400  Biso   1.000  H
  H8       1.0000 0.04800  0.27500  0.20600  Biso   1.000  H
  H9       1.0000 0.56100  0.99300  0.80400  Biso   1.000  H
  H10      1.0000 0.43900  0.00700  0.19600  Biso   1.000  H
  H11      1.0000 0.66400  0.14500  0.66700  Biso   1.000  H
  H12      1.0000 0.33600  0.85500  0.33300  Biso   1.000  H
  H13      1.0000 0.38100  0.09400  0.99800  Biso   1.000  H
  H14      1.0000 0.61900  0.90600  0.00200  Biso   1.000  H
  H15      1.0000 0.24100  0.16800  0.89000  Biso   1.000  H
  H16      1.0000 0.75900  0.83200  0.11000  Biso   1.000  H
  H17      1.0000 0.70100  0.41600  0.86600  Biso   1.000  H
  H18      1.0000 0.29900  0.58400  0.13400  Biso   1.000  H
  H19      1.0000 0.94600  0.34400  0.91500  Biso   1.000  H
  H20      1.0000 0.05400  0.65600  0.08500  Biso   1.000  H
