data_image0
_cell_length_a       10.455
_cell_length_b       9.661
_cell_length_c       15.788
_cell_angle_alpha    90
_cell_angle_beta     105.612
_cell_angle_gamma    90

_symmetry_space_group_name_H-M    "P 1"
_symmetry_int_tables_number       1

loop_
  _symmetry_equiv_pos_as_xyz
  'x, y, z'

loop_
  _atom_site_label
  _atom_site_occupancy
  _atom_site_fract_x
  _atom_site_fract_y
  _atom_site_fract_z
  _atom_site_thermal_displace_type
  _atom_site_B_iso_or_equiv
  _atom_site_type_symbol
  C1       1.0000 0.80530  0.01400  0.06854  Biso   1.000  C
  C2       1.0000 0.19470  0.51400  0.43146  Biso   1.000  C
  C3       1.0000 0.19470  0.98600  0.93146  Biso   1.000  C
  C4       1.0000 0.80530  0.48600  0.56854  Biso   1.000  C
  H1       1.0000 0.89730  0.99750  0.06980  Biso   1.000  H
  H2       1.0000 0.10270  0.49750  0.43020  Biso   1.000  H
  H3       1.0000 0.10270  0.00250  0.93020  Biso   1.000  H
  H4       1.0000 0.89730  0.50250  0.56980  Biso   1.000  H
  H5       1.0000 0.77490  0.09520  0.03260  Biso   1.000  H
  H6       1.0000 0.22510  0.59520  0.46740  Biso   1.000  H
  H7       1.0000 0.22510  0.90480  0.96740  Biso   1.000  H
  H8       1.0000 0.77490  0.40480  0.53260  Biso   1.000  H
  C5       1.0000 0.72450  0.89410  0.03054  Biso   1.000  C
  C6       1.0000 0.27550  0.39410  0.46946  Biso   1.000  C
  C7       1.0000 0.27550  0.10590  0.96946  Biso   1.000  C
  C8       1.0000 0.72450  0.60590  0.53054  Biso   1.000  C
  H9       1.0000 0.74100  0.87080  0.97470  Biso   1.000  H
  H10      1.0000 0.25900  0.37080  0.52530  Biso   1.000  H
  H11      1.0000 0.25900  0.12920  0.02530  Biso   1.000  H
  H12      1.0000 0.74100  0.62920  0.47470  Biso   1.000  H
  H13      1.0000 0.63120  0.91720  0.01970  Biso   1.000  H
  H14      1.0000 0.36880  0.41720  0.48030  Biso   1.000  H
  H15      1.0000 0.36880  0.08280  0.98030  Biso   1.000  H
  H16      1.0000 0.63120  0.58280  0.51970  Biso   1.000  H
  C9       1.0000 0.63490  0.69000  0.08642  Biso   1.000  C
  C10      1.0000 0.36510  0.19000  0.41358  Biso   1.000  C
  C11      1.0000 0.36510  0.31000  0.91358  Biso   1.000  C
  C12      1.0000 0.63490  0.81000  0.58642  Biso   1.000  C
  H17      1.0000 0.61270  0.63460  0.03320  Biso   1.000  H
  H18      1.0000 0.38730  0.13460  0.46680  Biso   1.000  H
  H19      1.0000 0.38730  0.36540  0.96680  Biso   1.000  H
  H20      1.0000 0.61270  0.86540  0.53320  Biso   1.000  H
  H21      1.0000 0.56090  0.75140  0.08490  Biso   1.000  H
  H22      1.0000 0.43910  0.25140  0.41510  Biso   1.000  H
  H23      1.0000 0.43910  0.24860  0.91510  Biso   1.000  H
  H24      1.0000 0.56090  0.74860  0.58490  Biso   1.000  H
  C13      1.0000 0.65860  0.59700  0.16555  Biso   1.000  C
  C14      1.0000 0.34140  0.09700  0.33445  Biso   1.000  C
  C15      1.0000 0.34140  0.40300  0.83445  Biso   1.000  C
  C16      1.0000 0.65860  0.90300  0.66555  Biso   1.000  C
  H25      1.0000 0.57580  0.55470  0.16840  Biso   1.000  H
  H26      1.0000 0.42420  0.05470  0.33160  Biso   1.000  H
  H27      1.0000 0.42420  0.44530  0.83160  Biso   1.000  H
  H28      1.0000 0.57580  0.94530  0.66840  Biso   1.000  H
  H29      1.0000 0.72020  0.52390  0.16130  Biso   1.000  H
  H30      1.0000 0.27980  0.02390  0.33870  Biso   1.000  H
  H31      1.0000 0.27980  0.47610  0.83870  Biso   1.000  H
  H32      1.0000 0.72020  0.97610  0.66130  Biso   1.000  H
  C17      1.0000 0.86730  0.68700  0.07571  Biso   1.000  C
  C18      1.0000 0.13270  0.18700  0.42429  Biso   1.000  C
  C19      1.0000 0.13270  0.31300  0.92429  Biso   1.000  C
  C20      1.0000 0.86730  0.81300  0.57571  Biso   1.000  C
  H33      1.0000 0.90250  0.63010  0.12730  Biso   1.000  H
  H34      1.0000 0.09750  0.13010  0.37270  Biso   1.000  H
  H35      1.0000 0.09750  0.36990  0.87270  Biso   1.000  H
  H36      1.0000 0.90250  0.86990  0.62730  Biso   1.000  H
  H37      1.0000 0.93760  0.74880  0.07000  Biso   1.000  H
  H38      1.0000 0.06240  0.24880  0.43000  Biso   1.000  H
  H39      1.0000 0.06240  0.25120  0.93000  Biso   1.000  H
  H40      1.0000 0.93760  0.75120  0.57000  Biso   1.000  H
  C21      1.0000 0.83020  0.59360  0.99553  Biso   1.000  C
  C22      1.0000 0.16980  0.09360  0.50447  Biso   1.000  C
  C23      1.0000 0.16980  0.40640  0.00447  Biso   1.000  C
  C24      1.0000 0.83020  0.90640  0.49553  Biso   1.000  C
  C25      1.0000 0.79010  0.45750  0.00233  Biso   1.000  C
  C26      1.0000 0.20990  0.95750  0.49767  Biso   1.000  C
  C27      1.0000 0.20990  0.54250  0.99767  Biso   1.000  C
  C28      1.0000 0.79010  0.04250  0.50233  Biso   1.000  C
  H41      1.0000 0.79110  0.42070  0.05690  Biso   1.000  H
  H42      1.0000 0.20890  0.92070  0.44310  Biso   1.000  H
  H43      1.0000 0.20890  0.57930  0.94310  Biso   1.000  H
  H44      1.0000 0.79110  0.07930  0.55690  Biso   1.000  H
  C29      1.0000 0.74890  0.37800  0.92777  Biso   1.000  C
  C30      1.0000 0.25110  0.87800  0.57223  Biso   1.000  C
  C31      1.0000 0.25110  0.62200  0.07223  Biso   1.000  C
  C32      1.0000 0.74890  0.12200  0.42777  Biso   1.000  C
  H45      1.0000 0.71930  0.28790  0.93120  Biso   1.000  H
  H46      1.0000 0.28070  0.78790  0.56880  Biso   1.000  H
  H47      1.0000 0.28070  0.71210  0.06880  Biso   1.000  H
  H48      1.0000 0.71930  0.21210  0.43120  Biso   1.000  H
  C33      1.0000 0.75200  0.43290  0.84812  Biso   1.000  C
  C34      1.0000 0.24800  0.93290  0.65188  Biso   1.000  C
  C35      1.0000 0.24800  0.56710  0.15188  Biso   1.000  C
  C36      1.0000 0.75200  0.06710  0.34812  Biso   1.000  C
  H49      1.0000 0.72340  0.37850  0.79800  Biso   1.000  H
  H50      1.0000 0.27660  0.87850  0.70200  Biso   1.000  H
  H51      1.0000 0.27660  0.62150  0.20200  Biso   1.000  H
  H52      1.0000 0.72340  0.12150  0.29800  Biso   1.000  H
  C37      1.0000 0.83350  0.63880  0.91321  Biso   1.000  C
  C38      1.0000 0.16650  0.13880  0.58679  Biso   1.000  C
  C39      1.0000 0.16650  0.36120  0.08679  Biso   1.000  C
  C40      1.0000 0.83350  0.86120  0.41321  Biso   1.000  C
  H53      1.0000 0.86470  0.72780  0.90820  Biso   1.000  H
  H54      1.0000 0.13530  0.22780  0.59180  Biso   1.000  H
  H55      1.0000 0.13530  0.27220  0.09180  Biso   1.000  H
  H56      1.0000 0.86470  0.77220  0.40820  Biso   1.000  H
  N1       1.0000 0.79490  0.03830  0.15759  Biso   1.000  N
  N2       1.0000 0.20510  0.53830  0.34241  Biso   1.000  N
  N3       1.0000 0.20510  0.96170  0.84241  Biso   1.000  N
  N4       1.0000 0.79490  0.46170  0.65759  Biso   1.000  N
  H57      1.0000 0.71880  0.08340  0.15560  Biso   1.000  H
  H58      1.0000 0.28120  0.58340  0.34440  Biso   1.000  H
  H59      1.0000 0.28120  0.91660  0.84440  Biso   1.000  H
  H60      1.0000 0.71880  0.41660  0.65560  Biso   1.000  H
  H61      1.0000 0.86320  0.09100  0.18730  Biso   1.000  H
  H62      1.0000 0.13680  0.59100  0.31270  Biso   1.000  H
  H63      1.0000 0.13680  0.90900  0.81270  Biso   1.000  H
  H64      1.0000 0.86320  0.40900  0.68730  Biso   1.000  H
  N5       1.0000 0.75580  0.77250  0.09054  Biso   1.000  N
  N6       1.0000 0.24420  0.27250  0.40946  Biso   1.000  N
  N7       1.0000 0.24420  0.22750  0.90946  Biso   1.000  N
  N8       1.0000 0.75580  0.72750  0.59054  Biso   1.000  N
  N9       1.0000 0.71440  0.68070  0.24564  Biso   1.000  N
  N10      1.0000 0.28560  0.18070  0.25436  Biso   1.000  N
  N11      1.0000 0.28560  0.31930  0.75436  Biso   1.000  N
  N12      1.0000 0.71440  0.81930  0.74564  Biso   1.000  N
  H65      1.0000 0.77580  0.63040  0.28430  Biso   1.000  H
  H66      1.0000 0.22420  0.13040  0.21570  Biso   1.000  H
  H67      1.0000 0.22420  0.36960  0.71570  Biso   1.000  H
  H68      1.0000 0.77580  0.86960  0.78430  Biso   1.000  H
  H69      1.0000 0.64920  0.70150  0.27090  Biso   1.000  H
  H70      1.0000 0.35080  0.20150  0.22910  Biso   1.000  H
  H71      1.0000 0.35080  0.29850  0.72910  Biso   1.000  H
  H72      1.0000 0.64920  0.79850  0.77090  Biso   1.000  H
  N13      1.0000 0.79450  0.56180  0.83970  Biso   1.000  N
  N14      1.0000 0.20550  0.06180  0.66030  Biso   1.000  N
  N15      1.0000 0.20550  0.43820  0.16030  Biso   1.000  N
  N16      1.0000 0.79450  0.93820  0.33970  Biso   1.000  N
  Cl1      1.0000 0.04062  0.82007  0.27288  Biso   1.000  Cl
  Cl2      1.0000 0.95938  0.32007  0.22712  Biso   1.000  Cl
  Cl3      1.0000 0.95938  0.17993  0.72712  Biso   1.000  Cl
  Cl4      1.0000 0.04062  0.67993  0.77288  Biso   1.000  Cl
  Cu1      1.0000 0.79760  0.85611  0.21880  Biso   1.000  Cu
  Cu2      1.0000 0.20240  0.35611  0.28119  Biso   1.000  Cu
  Cu3      1.0000 0.20240  0.14389  0.78119  Biso   1.000  Cu
  Cu4      1.0000 0.79760  0.64389  0.71880  Biso   1.000  Cu
  O1       1.0000 0.84860  0.46110  0.37177  Biso   1.000  O
  O2       1.0000 0.15140  0.96110  0.12823  Biso   1.000  O
  O3       1.0000 0.15140  0.53890  0.62823  Biso   1.000  O
  O4       1.0000 0.84860  0.03890  0.87177  Biso   1.000  O
  H73      1.0000 0.87100  0.41900  0.33900  Biso   1.000  H
  H74      1.0000 0.12900  0.91900  0.16100  Biso   1.000  H
  H75      1.0000 0.12900  0.58100  0.66100  Biso   1.000  H
  H76      1.0000 0.87100  0.08100  0.83900  Biso   1.000  H
  H77      1.0000 0.76700  0.43400  0.36000  Biso   1.000  H
  H78      1.0000 0.23300  0.93400  0.14000  Biso   1.000  H
  H79      1.0000 0.23300  0.56600  0.64000  Biso   1.000  H
  H80      1.0000 0.76700  0.06600  0.86000  Biso   1.000  H
  O5       1.0000 0.43360  0.91490  0.16250  Biso   1.000  O
  O6       1.0000 0.56640  0.41490  0.33750  Biso   1.000  O
  O7       1.0000 0.56640  0.08510  0.83750  Biso   1.000  O
  O8       1.0000 0.43360  0.58510  0.66250  Biso   1.000  O
  H81      1.0000 0.47200  0.98900  0.17100  Biso   1.000  H
  H82      1.0000 0.52800  0.48900  0.32900  Biso   1.000  H
  H83      1.0000 0.52800  0.01100  0.82900  Biso   1.000  H
  H84      1.0000 0.47200  0.51100  0.67100  Biso   1.000  H
  H85      1.0000 0.45000  0.88500  0.20900  Biso   1.000  H
  H86      1.0000 0.55000  0.38500  0.29100  Biso   1.000  H
  H87      1.0000 0.55000  0.11500  0.79100  Biso   1.000  H
  H88      1.0000 0.45000  0.61500  0.70900  Biso   1.000  H
  Cl5      1.0000 0.47219  0.73394  0.33867  Biso   1.000  Cl
  Cl6      1.0000 0.52781  0.23394  0.16133  Biso   1.000  Cl
  Cl7      1.0000 0.52781  0.26606  0.66133  Biso   1.000  Cl
  Cl8      1.0000 0.47219  0.76606  0.83867  Biso   1.000  Cl
