data_image0
_cell_length_a       9.671
_cell_length_b       16.721
_cell_length_c       9.76
_cell_angle_alpha    90
_cell_angle_beta     94.855
_cell_angle_gamma    90

_symmetry_space_group_name_H-M    "P 1"
_symmetry_int_tables_number       1

loop_
  _symmetry_equiv_pos_as_xyz
  'x, y, z'

loop_
  _atom_site_label
  _atom_site_occupancy
  _atom_site_fract_x
  _atom_site_fract_y
  _atom_site_fract_z
  _atom_site_thermal_displace_type
  _atom_site_B_iso_or_equiv
  _atom_site_type_symbol
  Cu1      1.0000 0.26026  0.12372  0.96733  Biso   1.000  Cu
  Cu2      1.0000 0.23974  0.62372  0.53267  Biso   1.000  Cu
  Cu3      1.0000 0.73974  0.87628  0.03267  Biso   1.000  Cu
  Cu4      1.0000 0.76026  0.37628  0.46733  Biso   1.000  Cu
  S1       1.0000 0.75882  0.17769  0.46960  Biso   1.000  S
  S2       1.0000 0.74118  0.67769  0.03040  Biso   1.000  S
  S3       1.0000 0.24118  0.82231  0.53040  Biso   1.000  S
  S4       1.0000 0.25882  0.32231  0.96960  Biso   1.000  S
  O1       1.0000 0.08940  0.16263  0.04140  Biso   1.000  O
  O2       1.0000 0.41060  0.66263  0.45860  Biso   1.000  O
  O3       1.0000 0.91060  0.83737  0.95860  Biso   1.000  O
  O4       1.0000 0.58940  0.33737  0.54140  Biso   1.000  O
  O5       1.0000 0.10760  0.03640  0.10790  Biso   1.000  O
  O6       1.0000 0.39240  0.53640  0.39210  Biso   1.000  O
  O7       1.0000 0.89240  0.96360  0.89210  Biso   1.000  O
  O8       1.0000 0.60760  0.46360  0.60790  Biso   1.000  O
  O9       1.0000 0.42130  0.07317  0.89740  Biso   1.000  O
  O10      1.0000 0.07870  0.57317  0.60260  Biso   1.000  O
  O11      1.0000 0.57870  0.92683  0.10260  Biso   1.000  O
  O12      1.0000 0.92130  0.42683  0.39740  Biso   1.000  O
  O13      1.0000 0.48550  0.19751  0.85140  Biso   1.000  O
  O14      1.0000 0.01450  0.69751  0.64860  Biso   1.000  O
  O15      1.0000 0.51450  0.80249  0.14860  Biso   1.000  O
  O16      1.0000 0.98550  0.30249  0.35140  Biso   1.000  O
  N1       1.0000 0.15940  0.12970  0.78030  Biso   1.000  N
  N2       1.0000 0.34060  0.62970  0.71970  Biso   1.000  N
  N3       1.0000 0.84060  0.87030  0.21970  Biso   1.000  N
  N4       1.0000 0.65940  0.37030  0.28030  Biso   1.000  N
  N5       1.0000 0.99200  0.12610  0.61670  Biso   1.000  N
  N6       1.0000 0.50800  0.62610  0.88330  Biso   1.000  N
  N7       1.0000 0.00800  0.87390  0.38330  Biso   1.000  N
  N8       1.0000 0.49200  0.37390  0.11670  Biso   1.000  N
  N9       1.0000 0.52300  0.13110  0.32400  Biso   1.000  N
  N10      1.0000 0.97700  0.63110  0.17600  Biso   1.000  N
  N11      1.0000 0.47700  0.86890  0.67600  Biso   1.000  N
  N12      1.0000 0.02300  0.36890  0.82400  Biso   1.000  N
  N13      1.0000 0.36550  0.14100  0.14770  Biso   1.000  N
  N14      1.0000 0.13450  0.64100  0.35230  Biso   1.000  N
  N15      1.0000 0.63450  0.85900  0.85230  Biso   1.000  N
  N16      1.0000 0.86550  0.35900  0.64770  Biso   1.000  N
  C1       1.0000 0.03680  0.09880  0.74200  Biso   1.000  C
  C2       1.0000 0.46320  0.59880  0.75800  Biso   1.000  C
  C3       1.0000 0.96320  0.90120  0.25800  Biso   1.000  C
  C4       1.0000 0.53680  0.40120  0.24200  Biso   1.000  C
  H1       1.0000 0.98760  0.06260  0.79510  Biso   1.000  H
  H2       1.0000 0.51240  0.56260  0.70490  Biso   1.000  H
  H3       1.0000 0.01240  0.93740  0.20490  Biso   1.000  H
  H4       1.0000 0.48760  0.43740  0.29510  Biso   1.000  H
  C5       1.0000 0.19360  0.17910  0.67530  Biso   1.000  C
  C6       1.0000 0.30640  0.67910  0.82470  Biso   1.000  C
  C7       1.0000 0.80640  0.82090  0.32470  Biso   1.000  C
  C8       1.0000 0.69360  0.32090  0.17530  Biso   1.000  C
  H5       1.0000 0.27660  0.20960  0.67560  Biso   1.000  H
  H6       1.0000 0.22340  0.70960  0.82440  Biso   1.000  H
  H7       1.0000 0.72340  0.79040  0.32440  Biso   1.000  H
  H8       1.0000 0.77660  0.29040  0.17560  Biso   1.000  H
  C9       1.0000 0.09310  0.17780  0.57330  Biso   1.000  C
  C10      1.0000 0.40690  0.67780  0.92670  Biso   1.000  C
  C11      1.0000 0.90690  0.82220  0.42670  Biso   1.000  C
  C12      1.0000 0.59310  0.32220  0.07330  Biso   1.000  C
  H9       1.0000 0.09070  0.20600  0.48870  Biso   1.000  H
  H10      1.0000 0.40930  0.70600  0.01130  Biso   1.000  H
  H11      1.0000 0.90930  0.79400  0.51130  Biso   1.000  H
  H12      1.0000 0.59070  0.29400  0.98870  Biso   1.000  H
  C13      1.0000 0.86720  0.10330  0.53920  Biso   1.000  C
  C14      1.0000 0.63280  0.60330  0.96080  Biso   1.000  C
  C15      1.0000 0.13280  0.89670  0.46080  Biso   1.000  C
  C16      1.0000 0.36720  0.39670  0.03920  Biso   1.000  C
  C17      1.0000 0.81580  0.02820  0.51420  Biso   1.000  C
  C18      1.0000 0.68420  0.52820  0.98580  Biso   1.000  C
  C19      1.0000 0.18420  0.97180  0.48580  Biso   1.000  C
  C20      1.0000 0.31580  0.47180  0.01420  Biso   1.000  C
  H13      1.0000 0.86210  0.98070  0.54560  Biso   1.000  H
  H14      1.0000 0.63790  0.48070  0.95440  Biso   1.000  H
  H15      1.0000 0.13790  0.01930  0.45440  Biso   1.000  H
  H16      1.0000 0.36210  0.51930  0.04560  Biso   1.000  H
  C21      1.0000 0.68550  0.02920  0.43600  Biso   1.000  C
  C22      1.0000 0.81450  0.52920  0.06400  Biso   1.000  C
  C23      1.0000 0.31450  0.97080  0.56400  Biso   1.000  C
  C24      1.0000 0.18550  0.47080  0.93600  Biso   1.000  C
  H17      1.0000 0.63400  0.98270  0.40810  Biso   1.000  H
  H18      1.0000 0.86600  0.48270  0.09190  Biso   1.000  H
  H19      1.0000 0.36600  0.01730  0.59190  Biso   1.000  H
  H20      1.0000 0.13400  0.51730  0.90810  Biso   1.000  H
  C25      1.0000 0.64360  0.10590  0.40610  Biso   1.000  C
  C26      1.0000 0.85640  0.60590  0.09390  Biso   1.000  C
  C27      1.0000 0.35640  0.89410  0.59390  Biso   1.000  C
  C28      1.0000 0.14360  0.39410  0.90610  Biso   1.000  C
  C29      1.0000 0.48090  0.10500  0.19510  Biso   1.000  C
  C30      1.0000 0.01910  0.60500  0.30490  Biso   1.000  C
  C31      1.0000 0.51910  0.89500  0.80490  Biso   1.000  C
  C32      1.0000 0.98090  0.39500  0.69510  Biso   1.000  C
  H21      1.0000 0.52840  0.06600  0.14590  Biso   1.000  H
  H22      1.0000 0.97160  0.56600  0.35410  Biso   1.000  H
  H23      1.0000 0.47160  0.93400  0.85410  Biso   1.000  H
  H24      1.0000 0.02840  0.43400  0.64590  Biso   1.000  H
  C33      1.0000 0.42900  0.18950  0.35920  Biso   1.000  C
  C34      1.0000 0.07100  0.68950  0.14080  Biso   1.000  C
  C35      1.0000 0.57100  0.81050  0.64080  Biso   1.000  C
  C36      1.0000 0.92900  0.31050  0.85920  Biso   1.000  C
  H25      1.0000 0.43230  0.22000  0.44160  Biso   1.000  H
  H26      1.0000 0.06770  0.72000  0.05840  Biso   1.000  H
  H27      1.0000 0.56770  0.78000  0.55840  Biso   1.000  H
  H28      1.0000 0.93230  0.28000  0.94160  Biso   1.000  H
  C37      1.0000 0.33260  0.19360  0.25130  Biso   1.000  C
  C38      1.0000 0.16740  0.69360  0.24870  Biso   1.000  C
  C39      1.0000 0.66740  0.80640  0.74870  Biso   1.000  C
  C40      1.0000 0.83260  0.30640  0.75130  Biso   1.000  C
  H29      1.0000 0.25350  0.22740  0.24630  Biso   1.000  H
  H30      1.0000 0.24650  0.72740  0.25370  Biso   1.000  H
  H31      1.0000 0.74650  0.77260  0.75370  Biso   1.000  H
  H32      1.0000 0.75350  0.27260  0.74630  Biso   1.000  H
  C41      1.0000 0.04320  0.10120  0.10130  Biso   1.000  C
  C42      1.0000 0.45680  0.60120  0.39870  Biso   1.000  C
  C43      1.0000 0.95680  0.89880  0.89870  Biso   1.000  C
  C44      1.0000 0.54320  0.39880  0.60130  Biso   1.000  C
  C45      1.0000 0.90680  0.11110  0.16080  Biso   1.000  C
  C46      1.0000 0.59320  0.61110  0.33920  Biso   1.000  C
  C47      1.0000 0.09320  0.88890  0.83920  Biso   1.000  C
  C48      1.0000 0.40680  0.38890  0.66080  Biso   1.000  C
  H33      1.0000 0.88790  0.06380  0.21530  Biso   1.000  H
  H34      1.0000 0.61210  0.56380  0.28470  Biso   1.000  H
  H35      1.0000 0.11210  0.93620  0.78470  Biso   1.000  H
  H36      1.0000 0.38790  0.43620  0.71530  Biso   1.000  H
  H37      1.0000 0.83320  0.11750  0.08620  Biso   1.000  H
  H38      1.0000 0.66680  0.61750  0.41380  Biso   1.000  H
  H39      1.0000 0.16680  0.88250  0.91380  Biso   1.000  H
  H40      1.0000 0.33320  0.38250  0.58620  Biso   1.000  H
  H41      1.0000 0.91000  0.15860  0.21980  Biso   1.000  H
  H42      1.0000 0.59000  0.65860  0.28020  Biso   1.000  H
  H43      1.0000 0.09000  0.84140  0.78020  Biso   1.000  H
  H44      1.0000 0.41000  0.34140  0.71980  Biso   1.000  H
  C49      1.0000 0.50830  0.12410  0.85610  Biso   1.000  C
  C50      1.0000 0.99170  0.62410  0.64390  Biso   1.000  C
  C51      1.0000 0.49170  0.87590  0.14390  Biso   1.000  C
  C52      1.0000 0.00830  0.37590  0.35610  Biso   1.000  C
  C53      1.0000 0.64290  0.09130  0.81330  Biso   1.000  C
  C54      1.0000 0.85710  0.59130  0.68670  Biso   1.000  C
  C55      1.0000 0.35710  0.90870  0.18670  Biso   1.000  C
  C56      1.0000 0.14290  0.40870  0.31330  Biso   1.000  C
  H45      1.0000 0.62940  0.07210  0.71830  Biso   1.000  H
  H46      1.0000 0.87060  0.57210  0.78170  Biso   1.000  H
  H47      1.0000 0.37060  0.92790  0.28170  Biso   1.000  H
  H48      1.0000 0.12940  0.42790  0.21830  Biso   1.000  H
  H49      1.0000 0.67350  0.04690  0.87410  Biso   1.000  H
  H50      1.0000 0.82650  0.54690  0.62590  Biso   1.000  H
  H51      1.0000 0.32650  0.95310  0.12590  Biso   1.000  H
  H52      1.0000 0.17350  0.45310  0.37410  Biso   1.000  H
  H53      1.0000 0.71340  0.13350  0.81980  Biso   1.000  H
  H54      1.0000 0.78660  0.63350  0.68020  Biso   1.000  H
  H55      1.0000 0.28660  0.86650  0.18020  Biso   1.000  H
  H56      1.0000 0.21340  0.36650  0.31980  Biso   1.000  H
