data_image0
_cell_length_a       14.66
_cell_length_b       9.965
_cell_length_c       14.652
_cell_angle_alpha    90
_cell_angle_beta     93.9
_cell_angle_gamma    90

_symmetry_space_group_name_H-M    "P 1"
_symmetry_int_tables_number       1

loop_
  _symmetry_equiv_pos_as_xyz
  'x, y, z'

loop_
  _atom_site_label
  _atom_site_occupancy
  _atom_site_fract_x
  _atom_site_fract_y
  _atom_site_fract_z
  _atom_site_thermal_displace_type
  _atom_site_B_iso_or_equiv
  _atom_site_type_symbol
  Cu1      1.0000 0.50000  0.64183  0.75000  Biso   1.000  Cu
  Cu2      1.0000 0.50000  0.35817  0.25000  Biso   1.000  Cu
  O1       1.0000 0.42850  0.63620  0.59210  Biso   1.000  O
  O2       1.0000 0.57150  0.63620  0.90790  Biso   1.000  O
  O3       1.0000 0.57150  0.36380  0.40790  Biso   1.000  O
  O4       1.0000 0.42850  0.36380  0.09210  Biso   1.000  O
  H1       1.0000 0.45620  0.68390  0.63330  Biso   1.000  H
  H2       1.0000 0.54380  0.68390  0.86670  Biso   1.000  H
  H3       1.0000 0.54380  0.31610  0.36670  Biso   1.000  H
  H4       1.0000 0.45620  0.31610  0.13330  Biso   1.000  H
  H5       1.0000 0.44520  0.66850  0.54220  Biso   1.000  H
  H6       1.0000 0.55480  0.66850  0.95780  Biso   1.000  H
  H7       1.0000 0.55480  0.33150  0.45780  Biso   1.000  H
  H8       1.0000 0.44520  0.33150  0.04220  Biso   1.000  H
  N1       1.0000 0.58810  0.49720  0.71630  Biso   1.000  N
  N2       1.0000 0.41190  0.49720  0.78370  Biso   1.000  N
  N3       1.0000 0.41190  0.50280  0.28370  Biso   1.000  N
  N4       1.0000 0.58810  0.50280  0.21630  Biso   1.000  N
  N5       1.0000 0.59310  0.78250  0.71910  Biso   1.000  N
  N6       1.0000 0.40690  0.78250  0.78090  Biso   1.000  N
  N7       1.0000 0.40690  0.21750  0.28090  Biso   1.000  N
  N8       1.0000 0.59310  0.21750  0.21910  Biso   1.000  N
  N9       1.0000 0.19660  0.14050  0.54960  Biso   1.000  N
  N10      1.0000 0.80340  0.14050  0.95040  Biso   1.000  N
  N11      1.0000 0.80340  0.85950  0.45040  Biso   1.000  N
  N12      1.0000 0.19660  0.85950  0.04960  Biso   1.000  N
  H9       1.0000 0.25170  0.14030  0.53300  Biso   1.000  H
  H10      1.0000 0.74830  0.14030  0.96700  Biso   1.000  H
  H11      1.0000 0.74830  0.85970  0.46700  Biso   1.000  H
  H12      1.0000 0.25170  0.85970  0.03300  Biso   1.000  H
  N13      1.0000 0.87640  0.25040  0.63780  Biso   1.000  N
  N14      1.0000 0.12360  0.25040  0.86220  Biso   1.000  N
  N15      1.0000 0.12360  0.74960  0.36220  Biso   1.000  N
  N16      1.0000 0.87640  0.74960  0.13780  Biso   1.000  N
  H13      1.0000 0.89320  0.33200  0.62960  Biso   1.000  H
  H14      1.0000 0.10680  0.33200  0.87040  Biso   1.000  H
  H15      1.0000 0.10680  0.66800  0.37040  Biso   1.000  H
  H16      1.0000 0.89320  0.66800  0.12960  Biso   1.000  H
  N17      1.0000 0.88370  0.02900  0.64760  Biso   1.000  N
  N18      1.0000 0.11630  0.02900  0.85240  Biso   1.000  N
  N19      1.0000 0.11630  0.97100  0.35240  Biso   1.000  N
  N20      1.0000 0.88370  0.97100  0.14760  Biso   1.000  N
  C1       1.0000 0.63280  0.50200  0.63910  Biso   1.000  C
  C2       1.0000 0.36720  0.50200  0.86090  Biso   1.000  C
  C3       1.0000 0.36720  0.49800  0.36090  Biso   1.000  C
  C4       1.0000 0.63280  0.49800  0.13910  Biso   1.000  C
  H17      1.0000 0.61770  0.57020  0.59740  Biso   1.000  H
  H18      1.0000 0.38230  0.57020  0.90260  Biso   1.000  H
  H19      1.0000 0.38230  0.42980  0.40260  Biso   1.000  H
  H20      1.0000 0.61770  0.42980  0.09740  Biso   1.000  H
  C5       1.0000 0.69900  0.41300  0.61830  Biso   1.000  C
  C6       1.0000 0.30100  0.41300  0.88170  Biso   1.000  C
  C7       1.0000 0.30100  0.58700  0.38170  Biso   1.000  C
  C8       1.0000 0.69900  0.58700  0.11830  Biso   1.000  C
  H21      1.0000 0.72960  0.42370  0.56520  Biso   1.000  H
  H22      1.0000 0.27040  0.42370  0.93480  Biso   1.000  H
  H23      1.0000 0.27040  0.57630  0.43480  Biso   1.000  H
  H24      1.0000 0.72960  0.57630  0.06520  Biso   1.000  H
  C9       1.0000 0.72060  0.30530  0.67720  Biso   1.000  C
  C10      1.0000 0.27940  0.30530  0.82280  Biso   1.000  C
  C11      1.0000 0.27940  0.69470  0.32280  Biso   1.000  C
  C12      1.0000 0.72060  0.69470  0.17720  Biso   1.000  C
  C13      1.0000 0.67180  0.29570  0.75550  Biso   1.000  C
  C14      1.0000 0.32820  0.29570  0.74450  Biso   1.000  C
  C15      1.0000 0.32820  0.70430  0.24450  Biso   1.000  C
  C16      1.0000 0.67180  0.70430  0.25550  Biso   1.000  C
  H25      1.0000 0.68240  0.22440  0.79570  Biso   1.000  H
  H26      1.0000 0.31760  0.22440  0.70430  Biso   1.000  H
  H27      1.0000 0.31760  0.77560  0.20430  Biso   1.000  H
  H28      1.0000 0.68240  0.77560  0.29570  Biso   1.000  H
  C17      1.0000 0.60810  0.39140  0.77310  Biso   1.000  C
  C18      1.0000 0.39190  0.39140  0.72690  Biso   1.000  C
  C19      1.0000 0.39190  0.60860  0.22690  Biso   1.000  C
  C20      1.0000 0.60810  0.60860  0.27310  Biso   1.000  C
  H29      1.0000 0.57710  0.38370  0.82620  Biso   1.000  H
  H30      1.0000 0.42290  0.38370  0.67380  Biso   1.000  H
  H31      1.0000 0.42290  0.61630  0.17380  Biso   1.000  H
  H32      1.0000 0.57710  0.61630  0.32620  Biso   1.000  H
  C21      1.0000 0.79240  0.21010  0.66020  Biso   1.000  C
  C22      1.0000 0.20760  0.21010  0.83980  Biso   1.000  C
  C23      1.0000 0.20760  0.78990  0.33980  Biso   1.000  C
  C24      1.0000 0.79240  0.78990  0.16020  Biso   1.000  C
  C25      1.0000 0.79750  0.07130  0.66490  Biso   1.000  C
  C26      1.0000 0.20250  0.07130  0.83510  Biso   1.000  C
  C27      1.0000 0.20250  0.92870  0.33510  Biso   1.000  C
  C28      1.0000 0.79750  0.92870  0.16490  Biso   1.000  C
  C29      1.0000 0.72670  0.97530  0.68350  Biso   1.000  C
  C30      1.0000 0.27330  0.97530  0.81650  Biso   1.000  C
  C31      1.0000 0.27330  0.02470  0.31650  Biso   1.000  C
  C32      1.0000 0.72670  0.02470  0.18350  Biso   1.000  C
  C33      1.0000 0.63400  0.99320  0.65530  Biso   1.000  C
  C34      1.0000 0.36600  0.99320  0.84470  Biso   1.000  C
  C35      1.0000 0.36600  0.00680  0.34470  Biso   1.000  C
  C36      1.0000 0.63400  0.00680  0.15530  Biso   1.000  C
  H33      1.0000 0.61540  0.07050  0.62360  Biso   1.000  H
  H34      1.0000 0.38460  0.07050  0.87640  Biso   1.000  H
  H35      1.0000 0.38460  0.92950  0.37640  Biso   1.000  H
  H36      1.0000 0.61540  0.92950  0.12360  Biso   1.000  H
  C37      1.0000 0.57050  0.89740  0.67420  Biso   1.000  C
  C38      1.0000 0.42950  0.89740  0.82580  Biso   1.000  C
  C39      1.0000 0.42950  0.10260  0.32580  Biso   1.000  C
  C40      1.0000 0.57050  0.10260  0.17420  Biso   1.000  C
  H37      1.0000 0.50950  0.91230  0.65520  Biso   1.000  H
  H38      1.0000 0.49050  0.91230  0.84480  Biso   1.000  H
  H39      1.0000 0.49050  0.08770  0.34480  Biso   1.000  H
  H40      1.0000 0.50950  0.08770  0.15520  Biso   1.000  H
  C41      1.0000 0.68260  0.76440  0.74460  Biso   1.000  C
  C42      1.0000 0.31740  0.76440  0.75540  Biso   1.000  C
  C43      1.0000 0.31740  0.23560  0.25540  Biso   1.000  C
  C44      1.0000 0.68260  0.23560  0.24460  Biso   1.000  C
  H41      1.0000 0.69950  0.68600  0.77570  Biso   1.000  H
  H42      1.0000 0.30050  0.68600  0.72430  Biso   1.000  H
  H43      1.0000 0.30050  0.31400  0.22430  Biso   1.000  H
  H44      1.0000 0.69950  0.31400  0.27570  Biso   1.000  H
  C45      1.0000 0.74930  0.85360  0.72760  Biso   1.000  C
  C46      1.0000 0.25070  0.85360  0.77240  Biso   1.000  C
  C47      1.0000 0.25070  0.14640  0.27240  Biso   1.000  C
  C48      1.0000 0.74930  0.14640  0.22760  Biso   1.000  C
  H45      1.0000 0.81010  0.83400  0.74510  Biso   1.000  H
  H46      1.0000 0.18990  0.83400  0.75490  Biso   1.000  H
  H47      1.0000 0.18990  0.16600  0.25490  Biso   1.000  H
  H48      1.0000 0.81010  0.16600  0.24510  Biso   1.000  H
  C49      1.0000 0.92940  0.13950  0.63060  Biso   1.000  C
  C50      1.0000 0.07060  0.13950  0.86940  Biso   1.000  C
  C51      1.0000 0.07060  0.86050  0.36940  Biso   1.000  C
  C52      1.0000 0.92940  0.86050  0.13060  Biso   1.000  C
  C53      1.0000 0.02340  0.14140  0.60370  Biso   1.000  C
  C54      1.0000 0.97660  0.14140  0.89630  Biso   1.000  C
  C55      1.0000 0.97660  0.85860  0.39630  Biso   1.000  C
  C56      1.0000 0.02340  0.85860  0.10370  Biso   1.000  C
  C57      1.0000 0.06450  0.26010  0.57870  Biso   1.000  C
  C58      1.0000 0.93550  0.26010  0.92130  Biso   1.000  C
  C59      1.0000 0.93550  0.73990  0.42130  Biso   1.000  C
  C60      1.0000 0.06450  0.73990  0.07870  Biso   1.000  C
  H49      1.0000 0.03350  0.34130  0.58120  Biso   1.000  H
  H50      1.0000 0.96650  0.34130  0.91880  Biso   1.000  H
  H51      1.0000 0.96650  0.65870  0.41880  Biso   1.000  H
  H52      1.0000 0.03350  0.65870  0.08120  Biso   1.000  H
  C61      1.0000 0.15190  0.25540  0.55030  Biso   1.000  C
  C62      1.0000 0.84810  0.25540  0.94970  Biso   1.000  C
  C63      1.0000 0.84810  0.74460  0.44970  Biso   1.000  C
  C64      1.0000 0.15190  0.74460  0.05030  Biso   1.000  C
  H53      1.0000 0.17970  0.33360  0.53140  Biso   1.000  H
  H54      1.0000 0.82030  0.33360  0.96860  Biso   1.000  H
  H55      1.0000 0.82030  0.66640  0.46860  Biso   1.000  H
  H56      1.0000 0.17970  0.66640  0.03140  Biso   1.000  H
  C65      1.0000 0.15960  0.02550  0.57360  Biso   1.000  C
  C66      1.0000 0.84040  0.02550  0.92640  Biso   1.000  C
  C67      1.0000 0.84040  0.97450  0.42640  Biso   1.000  C
  C68      1.0000 0.15960  0.97450  0.07360  Biso   1.000  C
  H57      1.0000 0.19310  0.94640  0.57170  Biso   1.000  H
  H58      1.0000 0.80690  0.94640  0.92830  Biso   1.000  H
  H59      1.0000 0.80690  0.05360  0.42830  Biso   1.000  H
  H60      1.0000 0.19310  0.05360  0.07170  Biso   1.000  H
  C69      1.0000 0.07250  0.02250  0.60120  Biso   1.000  C
  C70      1.0000 0.92750  0.02250  0.89880  Biso   1.000  C
  C71      1.0000 0.92750  0.97750  0.39880  Biso   1.000  C
  C72      1.0000 0.07250  0.97750  0.10120  Biso   1.000  C
  H61      1.0000 0.04640  0.94190  0.61800  Biso   1.000  H
  H62      1.0000 0.95360  0.94190  0.88200  Biso   1.000  H
  H63      1.0000 0.95360  0.05810  0.38200  Biso   1.000  H
  H64      1.0000 0.04640  0.05810  0.11800  Biso   1.000  H
  O5       1.0000 0.50130  0.21090  0.54850  Biso   1.000  O
  O6       1.0000 0.49870  0.21090  0.95150  Biso   1.000  O
  O7       1.0000 0.49870  0.78910  0.45150  Biso   1.000  O
  O8       1.0000 0.50130  0.78910  0.04850  Biso   1.000  O
  O9       1.0000 0.39370  0.07410  0.58110  Biso   1.000  O
  O10      1.0000 0.60630  0.07410  0.91890  Biso   1.000  O
  O11      1.0000 0.60630  0.92590  0.41890  Biso   1.000  O
  O12      1.0000 0.39370  0.92590  0.08110  Biso   1.000  O
  O13      1.0000 0.36160  0.25180  0.50620  Biso   1.000  O
  O14      1.0000 0.63840  0.25180  0.99380  Biso   1.000  O
  O15      1.0000 0.63840  0.74820  0.49380  Biso   1.000  O
  O16      1.0000 0.36160  0.74820  0.00620  Biso   1.000  O
  N21      1.0000 0.41970  0.17700  0.54490  Biso   1.000  N
  N22      1.0000 0.58030  0.17700  0.95510  Biso   1.000  N
  N23      1.0000 0.58030  0.82300  0.45510  Biso   1.000  N
  N24      1.0000 0.41970  0.82300  0.04490  Biso   1.000  N
  O17      1.0000 0.91690  0.47470  0.14870  Biso   1.000  O
  O18      1.0000 0.08310  0.47470  0.35130  Biso   1.000  O
  O19      1.0000 0.08310  0.52530  0.85130  Biso   1.000  O
  O20      1.0000 0.91690  0.52530  0.64870  Biso   1.000  O
  H65      1.0000 0.93400  0.50060  0.20240  Biso   1.000  H
  H66      1.0000 0.06600  0.50060  0.29760  Biso   1.000  H
  H67      1.0000 0.06600  0.49940  0.79760  Biso   1.000  H
  H68      1.0000 0.93400  0.49940  0.70240  Biso   1.000  H
  H69      1.0000 0.96900  0.43890  0.14440  Biso   1.000  H
  H70      1.0000 0.03100  0.43890  0.35560  Biso   1.000  H
  H71      1.0000 0.03100  0.56110  0.85560  Biso   1.000  H
  H72      1.0000 0.96900  0.56110  0.64440  Biso   1.000  H
  O21      1.0000 0.78720  0.33420  0.42880  Biso   1.000  O
  O22      1.0000 0.21280  0.33420  0.07120  Biso   1.000  O
  O23      1.0000 0.21280  0.66580  0.57120  Biso   1.000  O
  O24      1.0000 0.78720  0.66580  0.92880  Biso   1.000  O
  O25      1.0000 0.83840  0.45520  0.32760  Biso   1.000  O
  O26      1.0000 0.16160  0.45520  0.17240  Biso   1.000  O
  O27      1.0000 0.16160  0.54480  0.67240  Biso   1.000  O
  O28      1.0000 0.83840  0.54480  0.82760  Biso   1.000  O
  O29      1.0000 0.92430  0.32680  0.39710  Biso   1.000  O
  O30      1.0000 0.07570  0.32680  0.10290  Biso   1.000  O
  O31      1.0000 0.07570  0.67320  0.60290  Biso   1.000  O
  O32      1.0000 0.92430  0.67320  0.89710  Biso   1.000  O
  N25      1.0000 0.85050  0.37300  0.39240  Biso   1.000  N
  N26      1.0000 0.14950  0.37300  0.10760  Biso   1.000  N
  N27      1.0000 0.14950  0.62700  0.60760  Biso   1.000  N
  N28      1.0000 0.85050  0.62700  0.89240  Biso   1.000  N
