data_image0
_cell_length_a       8.0039
_cell_length_b       6.8403
_cell_length_c       14.0443
_cell_angle_alpha    90
_cell_angle_beta     103.686
_cell_angle_gamma    90

_symmetry_space_group_name_H-M    "P 1"
_symmetry_int_tables_number       1

loop_
  _symmetry_equiv_pos_as_xyz
  'x, y, z'

loop_
  _atom_site_label
  _atom_site_occupancy
  _atom_site_fract_x
  _atom_site_fract_y
  _atom_site_fract_z
  _atom_site_thermal_displace_type
  _atom_site_B_iso_or_equiv
  _atom_site_type_symbol
  Cu1      1.0000 0.57718  0.75955  0.84761  Biso   1.000  Cu
  Cu2      1.0000 0.42282  0.25955  0.15239  Biso   1.000  Cu
  N1       1.0000 0.72100  0.92420  0.94850  Biso   1.000  N
  N2       1.0000 0.27900  0.42420  0.05150  Biso   1.000  N
  N3       1.0000 0.46500  0.60070  0.73650  Biso   1.000  N
  N4       1.0000 0.53500  0.10070  0.26350  Biso   1.000  N
  C1       1.0000 0.31120  0.62710  0.68430  Biso   1.000  C
  C2       1.0000 0.68880  0.12710  0.31570  Biso   1.000  C
  H1       1.0000 0.26630  0.53020  0.63900  Biso   1.000  H
  H2       1.0000 0.73370  0.03020  0.36100  Biso   1.000  H
  O1       1.0000 0.42130  0.96970  0.80280  Biso   1.000  O
  O2       1.0000 0.57870  0.46970  0.19720  Biso   1.000  O
  N5       1.0000 0.75210  0.53830  0.87790  Biso   1.000  N
  N6       1.0000 0.24790  0.03830  0.12210  Biso   1.000  N
  N7       1.0000 0.66290  0.01390  0.00470  Biso   1.000  N
  N8       1.0000 0.33710  0.51390  0.99530  Biso   1.000  N
  C3       1.0000 0.20360  0.79000  0.68930  Biso   1.000  C
  C4       1.0000 0.79640  0.29000  0.31070  Biso   1.000  C
  C5       1.0000 0.02520  0.78940  0.63310  Biso   1.000  C
  C6       1.0000 0.97480  0.28940  0.36690  Biso   1.000  C
  C7       1.0000 0.91880  0.94980  0.64000  Biso   1.000  C
  C8       1.0000 0.08120  0.44980  0.36000  Biso   1.000  C
  C9       1.0000 0.99020  0.11310  0.69770  Biso   1.000  C
  C10      1.0000 0.00980  0.61310  0.30230  Biso   1.000  C
  H3       1.0000 0.92080  0.22100  0.70050  Biso   1.000  H
  H4       1.0000 0.07920  0.72100  0.29950  Biso   1.000  H
  C11      1.0000 0.15410  0.11640  0.74810  Biso   1.000  C
  C12      1.0000 0.84590  0.61640  0.25190  Biso   1.000  C
  H5       1.0000 0.19600  0.22730  0.78420  Biso   1.000  H
  H6       1.0000 0.80400  0.72730  0.21580  Biso   1.000  H
  C13      1.0000 0.26760  0.95340  0.74810  Biso   1.000  C
  C14      1.0000 0.73240  0.45340  0.25190  Biso   1.000  C
  C15      1.0000 0.74310  0.94530  0.59180  Biso   1.000  C
  C16      1.0000 0.25690  0.44530  0.40820  Biso   1.000  C
  H7       1.0000 0.67330  0.05080  0.59820  Biso   1.000  H
  H8       1.0000 0.32670  0.55080  0.40180  Biso   1.000  H
  C17      1.0000 0.67360  0.78930  0.53590  Biso   1.000  C
  C18      1.0000 0.32640  0.28930  0.46410  Biso   1.000  C
  H9       1.0000 0.55710  0.78680  0.50540  Biso   1.000  H
  H10      1.0000 0.44290  0.28680  0.49460  Biso   1.000  H
  C19      1.0000 0.77940  0.63450  0.52530  Biso   1.000  C
  C20      1.0000 0.22060  0.13450  0.47470  Biso   1.000  C
  H11      1.0000 0.73380  0.53010  0.48500  Biso   1.000  H
  H12      1.0000 0.26620  0.03010  0.51500  Biso   1.000  H
  C21      1.0000 0.94870  0.63220  0.57260  Biso   1.000  C
  C22      1.0000 0.05130  0.13220  0.42740  Biso   1.000  C
  H13      1.0000 0.01570  0.52480  0.56510  Biso   1.000  H
  H14      1.0000 0.98430  0.02480  0.43490  Biso   1.000  H
  C23      1.0000 0.55810  0.42090  0.72560  Biso   1.000  C
  C24      1.0000 0.44190  0.92090  0.27440  Biso   1.000  C
  H15      1.0000 0.63520  0.44260  0.68280  Biso   1.000  H
  H16      1.0000 0.36480  0.94260  0.31720  Biso   1.000  H
  H17      1.0000 0.47820  0.31760  0.69800  Biso   1.000  H
  H18      1.0000 0.52180  0.81760  0.30200  Biso   1.000  H
  C25      1.0000 0.65950  0.36530  0.82830  Biso   1.000  C
  C26      1.0000 0.34050  0.86530  0.17170  Biso   1.000  C
  H19      1.0000 0.58160  0.31580  0.86610  Biso   1.000  H
  H20      1.0000 0.41840  0.81580  0.13390  Biso   1.000  H
  H21      1.0000 0.74120  0.26290  0.82400  Biso   1.000  H
  H22      1.0000 0.25880  0.76290  0.17600  Biso   1.000  H
  C27      1.0000 0.81550  0.49600  0.98340  Biso   1.000  C
  C28      1.0000 0.18450  0.99600  0.01660  Biso   1.000  C
  H23      1.0000 0.87480  0.60840  0.01590  Biso   1.000  H
  H24      1.0000 0.12520  0.10840  0.98410  Biso   1.000  H
  H25      1.0000 0.89290  0.38670  0.99180  Biso   1.000  H
  H26      1.0000 0.10710  0.88670  0.00820  Biso   1.000  H
  H27      1.0000 0.72010  0.46540  0.01120  Biso   1.000  H
  H28      1.0000 0.27990  0.96540  0.98880  Biso   1.000  H
  C29      1.0000 0.90030  0.58930  0.83660  Biso   1.000  C
  C30      1.0000 0.09970  0.08930  0.16340  Biso   1.000  C
  H29      1.0000 0.95710  0.70260  0.86950  Biso   1.000  H
  H30      1.0000 0.04290  0.20260  0.13050  Biso   1.000  H
  H31      1.0000 0.86040  0.61680  0.76790  Biso   1.000  H
  H32      1.0000 0.13960  0.11680  0.23210  Biso   1.000  H
  H33      1.0000 0.97940  0.48170  0.84550  Biso   1.000  H
  H34      1.0000 0.02060  0.98170  0.15450  Biso   1.000  H
  N9       1.0000 0.61640  0.10680  0.06090  Biso   1.000  N
  N10      1.0000 0.38360  0.60680  0.93910  Biso   1.000  N
