data_image0
_cell_length_a       8.003
_cell_length_b       6.8474
_cell_length_c       14.046
_cell_angle_alpha    90
_cell_angle_beta     103.701
_cell_angle_gamma    90

_symmetry_space_group_name_H-M    "P 1"
_symmetry_int_tables_number       1

loop_
  _symmetry_equiv_pos_as_xyz
  'x, y, z'

loop_
  _atom_site_label
  _atom_site_occupancy
  _atom_site_fract_x
  _atom_site_fract_y
  _atom_site_fract_z
  _atom_site_thermal_displace_type
  _atom_site_B_iso_or_equiv
  _atom_site_type_symbol
  Cu1      1.0000 0.42280  0.24336  0.15237  Biso   1.000  Cu
  Cu2      1.0000 0.57720  0.74336  0.84763  Biso   1.000  Cu
  O1       1.0000 0.57840  0.45470  0.19711  Biso   1.000  O
  O2       1.0000 0.42160  0.95470  0.80289  Biso   1.000  O
  N1       1.0000 0.38390  0.58970  0.93910  Biso   1.000  N
  N2       1.0000 0.61610  0.08970  0.06090  Biso   1.000  N
  N3       1.0000 0.27850  0.40860  0.05120  Biso   1.000  N
  N4       1.0000 0.72150  0.90860  0.94880  Biso   1.000  N
  N5       1.0000 0.33660  0.49750  0.99530  Biso   1.000  N
  N6       1.0000 0.66340  0.99750  0.00470  Biso   1.000  N
  N7       1.0000 0.53440  0.08450  0.26357  Biso   1.000  N
  N8       1.0000 0.46560  0.58450  0.73643  Biso   1.000  N
  N9       1.0000 0.24770  0.02260  0.12225  Biso   1.000  N
  N10      1.0000 0.75230  0.52260  0.87775  Biso   1.000  N
  C1       1.0000 0.69010  0.11050  0.31610  Biso   1.000  C
  C2       1.0000 0.30990  0.61050  0.68390  Biso   1.000  C
  H1       1.0000 0.73580  0.01330  0.36100  Biso   1.000  H
  H2       1.0000 0.26420  0.51330  0.63900  Biso   1.000  H
  C3       1.0000 0.79630  0.27470  0.31090  Biso   1.000  C
  C4       1.0000 0.20370  0.77470  0.68910  Biso   1.000  C
  C5       1.0000 0.73350  0.43630  0.25240  Biso   1.000  C
  C6       1.0000 0.26650  0.93630  0.74760  Biso   1.000  C
  C7       1.0000 0.84460  0.60100  0.25100  Biso   1.000  C
  C8       1.0000 0.15540  0.10100  0.74900  Biso   1.000  C
  H3       1.0000 0.80200  0.71080  0.21420  Biso   1.000  H
  H4       1.0000 0.19800  0.21080  0.78580  Biso   1.000  H
  C9       1.0000 0.01010  0.59790  0.30270  Biso   1.000  C
  C10      1.0000 0.98990  0.09790  0.69730  Biso   1.000  C
  H5       1.0000 0.07960  0.70600  0.30070  Biso   1.000  H
  H6       1.0000 0.92040  0.20600  0.69930  Biso   1.000  H
  C11      1.0000 0.08020  0.43420  0.35990  Biso   1.000  C
  C12      1.0000 0.91980  0.93420  0.64010  Biso   1.000  C
  C13      1.0000 0.25760  0.43000  0.40850  Biso   1.000  C
  C14      1.0000 0.74240  0.93000  0.59150  Biso   1.000  C
  H7       1.0000 0.32770  0.53540  0.40270  Biso   1.000  H
  H8       1.0000 0.67230  0.03540  0.59730  Biso   1.000  H
  C15      1.0000 0.32590  0.27220  0.46390  Biso   1.000  C
  C16      1.0000 0.67410  0.77220  0.53610  Biso   1.000  C
  H9       1.0000 0.44250  0.26930  0.49420  Biso   1.000  H
  H10      1.0000 0.55750  0.76930  0.50580  Biso   1.000  H
  C17      1.0000 0.22200  0.11770  0.47480  Biso   1.000  C
  C18      1.0000 0.77800  0.61770  0.52520  Biso   1.000  C
  H11      1.0000 0.26870  0.01320  0.51460  Biso   1.000  H
  H12      1.0000 0.73130  0.51320  0.48540  Biso   1.000  H
  C19      1.0000 0.04970  0.11500  0.42760  Biso   1.000  C
  C20      1.0000 0.95030  0.61500  0.57240  Biso   1.000  C
  H13      1.0000 0.98200  0.00870  0.43560  Biso   1.000  H
  H14      1.0000 0.01800  0.50870  0.56440  Biso   1.000  H
  C21      1.0000 0.97540  0.27260  0.36720  Biso   1.000  C
  C22      1.0000 0.02460  0.77260  0.63280  Biso   1.000  C
  C23      1.0000 0.44200  0.90570  0.27440  Biso   1.000  C
  C24      1.0000 0.55800  0.40570  0.72560  Biso   1.000  C
  H15      1.0000 0.36530  0.92750  0.31750  Biso   1.000  H
  H16      1.0000 0.63470  0.42750  0.68250  Biso   1.000  H
  H17      1.0000 0.52230  0.80280  0.30210  Biso   1.000  H
  H18      1.0000 0.47770  0.30280  0.69790  Biso   1.000  H
  C25      1.0000 0.33950  0.84870  0.17210  Biso   1.000  C
  C26      1.0000 0.66050  0.34870  0.82790  Biso   1.000  C
  H19      1.0000 0.41660  0.79780  0.13430  Biso   1.000  H
  H20      1.0000 0.58340  0.29780  0.86570  Biso   1.000  H
  H21      1.0000 0.25720  0.74750  0.17700  Biso   1.000  H
  H22      1.0000 0.74280  0.24750  0.82300  Biso   1.000  H
  C27      1.0000 0.18490  0.98000  0.01620  Biso   1.000  C
  C28      1.0000 0.81510  0.48000  0.98380  Biso   1.000  C
  H23      1.0000 0.12660  0.09260  0.98350  Biso   1.000  H
  H24      1.0000 0.87340  0.59260  0.01650  Biso   1.000  H
  H25      1.0000 0.10670  0.87150  0.00770  Biso   1.000  H
  H26      1.0000 0.89330  0.37150  0.99230  Biso   1.000  H
  H27      1.0000 0.28060  0.94820  0.98890  Biso   1.000  H
  H28      1.0000 0.71940  0.44820  0.01110  Biso   1.000  H
  C29      1.0000 0.09960  0.07250  0.16350  Biso   1.000  C
  C30      1.0000 0.90040  0.57250  0.83650  Biso   1.000  C
  H29      1.0000 0.04270  0.18590  0.13090  Biso   1.000  H
  H30      1.0000 0.95730  0.68590  0.86910  Biso   1.000  H
  H31      1.0000 0.13940  0.09920  0.23230  Biso   1.000  H
  H32      1.0000 0.86060  0.59920  0.76770  Biso   1.000  H
  H33      1.0000 0.02050  0.96490  0.15430  Biso   1.000  H
  H34      1.0000 0.97950  0.46490  0.84570  Biso   1.000  H
