data_image0
_cell_length_a       8.0019
_cell_length_b       6.8447
_cell_length_c       14.0472
_cell_angle_alpha    90
_cell_angle_beta     103.718
_cell_angle_gamma    90

_symmetry_space_group_name_H-M    "P 1"
_symmetry_int_tables_number       1

loop_
  _symmetry_equiv_pos_as_xyz
  'x, y, z'

loop_
  _atom_site_label
  _atom_site_occupancy
  _atom_site_fract_x
  _atom_site_fract_y
  _atom_site_fract_z
  _atom_site_thermal_displace_type
  _atom_site_B_iso_or_equiv
  _atom_site_type_symbol
  Cu1      1.0000 0.57712  0.74730  0.84764  Biso   1.000  Cu
  Cu2      1.0000 0.42288  0.24730  0.15236  Biso   1.000  Cu
  O1       1.0000 0.42120  0.95810  0.80277  Biso   1.000  O
  O2       1.0000 0.57880  0.45810  0.19723  Biso   1.000  O
  N1       1.0000 0.75230  0.52570  0.87806  Biso   1.000  N
  N2       1.0000 0.24770  0.02570  0.12194  Biso   1.000  N
  N3       1.0000 0.46540  0.58830  0.73642  Biso   1.000  N
  N4       1.0000 0.53460  0.08830  0.26358  Biso   1.000  N
  C1       1.0000 0.67420  0.77640  0.53630  Biso   1.000  C
  C2       1.0000 0.32580  0.27640  0.46370  Biso   1.000  C
  H1       1.0000 0.55750  0.77330  0.50610  Biso   1.000  H
  H2       1.0000 0.44250  0.27330  0.49390  Biso   1.000  H
  N5       1.0000 0.66360  0.00130  0.00500  Biso   1.000  N
  N6       1.0000 0.33640  0.50130  0.99500  Biso   1.000  N
  C3       1.0000 0.66030  0.35210  0.82810  Biso   1.000  C
  C4       1.0000 0.33970  0.85210  0.17190  Biso   1.000  C
  H3       1.0000 0.58300  0.30140  0.86580  Biso   1.000  H
  H4       1.0000 0.41700  0.80140  0.13420  Biso   1.000  H
  H5       1.0000 0.74260  0.25060  0.82340  Biso   1.000  H
  H6       1.0000 0.25740  0.75060  0.17660  Biso   1.000  H
  C5       1.0000 0.55830  0.40840  0.72579  Biso   1.000  C
  C6       1.0000 0.44170  0.90840  0.27421  Biso   1.000  C
  H7       1.0000 0.63510  0.42980  0.68280  Biso   1.000  H
  H8       1.0000 0.36490  0.92980  0.31720  Biso   1.000  H
  H9       1.0000 0.47800  0.30540  0.69820  Biso   1.000  H
  H10      1.0000 0.52200  0.80540  0.30180  Biso   1.000  H
  C7       1.0000 0.31050  0.61380  0.68411  Biso   1.000  C
  C8       1.0000 0.68950  0.11380  0.31589  Biso   1.000  C
  H11      1.0000 0.26460  0.51630  0.63940  Biso   1.000  H
  H12      1.0000 0.73540  0.01630  0.36060  Biso   1.000  H
  C9       1.0000 0.20440  0.77870  0.68928  Biso   1.000  C
  C10      1.0000 0.79560  0.27870  0.31072  Biso   1.000  C
  C11      1.0000 0.26670  0.94130  0.74802  Biso   1.000  C
  C12      1.0000 0.73330  0.44130  0.25198  Biso   1.000  C
  C13      1.0000 0.15490  0.10410  0.74860  Biso   1.000  C
  C14      1.0000 0.84510  0.60410  0.25140  Biso   1.000  C
  H13      1.0000 0.19730  0.21410  0.78530  Biso   1.000  H
  H14      1.0000 0.80270  0.71410  0.21470  Biso   1.000  H
  C15      1.0000 0.99030  0.10200  0.69750  Biso   1.000  C
  C16      1.0000 0.00970  0.60200  0.30250  Biso   1.000  C
  H15      1.0000 0.92130  0.21050  0.69950  Biso   1.000  H
  H16      1.0000 0.07870  0.71050  0.30050  Biso   1.000  H
  C17      1.0000 0.91920  0.93710  0.64003  Biso   1.000  C
  C18      1.0000 0.08080  0.43710  0.35997  Biso   1.000  C
  C19      1.0000 0.74210  0.93360  0.59120  Biso   1.000  C
  C20      1.0000 0.25790  0.43360  0.40880  Biso   1.000  C
  H17      1.0000 0.67210  0.03940  0.59690  Biso   1.000  H
  H18      1.0000 0.32790  0.53940  0.40310  Biso   1.000  H
  C21      1.0000 0.95000  0.61860  0.57209  Biso   1.000  C
  C22      1.0000 0.05000  0.11860  0.42791  Biso   1.000  C
  H19      1.0000 0.01760  0.51230  0.56380  Biso   1.000  H
  H20      1.0000 0.98240  0.01230  0.43620  Biso   1.000  H
  C23      1.0000 0.02480  0.77660  0.63293  Biso   1.000  C
  C24      1.0000 0.97520  0.27660  0.36707  Biso   1.000  C
  C25      1.0000 0.90060  0.57690  0.83700  Biso   1.000  C
  C26      1.0000 0.09940  0.07690  0.16300  Biso   1.000  C
  H21      1.0000 0.86070  0.60530  0.76840  Biso   1.000  H
  H22      1.0000 0.13930  0.10530  0.23160  Biso   1.000  H
  H23      1.0000 0.97940  0.46900  0.84550  Biso   1.000  H
  H24      1.0000 0.02060  0.96900  0.15450  Biso   1.000  H
  H25      1.0000 0.95780  0.68950  0.87040  Biso   1.000  H
  H26      1.0000 0.04220  0.18950  0.12960  Biso   1.000  H
  N7       1.0000 0.72090  0.91270  0.94880  Biso   1.000  N
  N8       1.0000 0.27910  0.41270  0.05120  Biso   1.000  N
  N9       1.0000 0.61630  0.09400  0.06060  Biso   1.000  N
  N10      1.0000 0.38370  0.59400  0.93940  Biso   1.000  N
  C27      1.0000 0.77840  0.62150  0.52530  Biso   1.000  C
  C28      1.0000 0.22160  0.12150  0.47470  Biso   1.000  C
  H27      1.0000 0.73160  0.51700  0.48550  Biso   1.000  H
  H28      1.0000 0.26840  0.01700  0.51450  Biso   1.000  H
  C29      1.0000 0.81490  0.48300  0.98380  Biso   1.000  C
  C30      1.0000 0.18510  0.98300  0.01620  Biso   1.000  C
  H29      1.0000 0.71910  0.45070  0.01100  Biso   1.000  H
  H30      1.0000 0.28090  0.95070  0.98900  Biso   1.000  H
  H31      1.0000 0.87270  0.59580  0.01660  Biso   1.000  H
  H32      1.0000 0.12730  0.09580  0.98340  Biso   1.000  H
  H33      1.0000 0.89340  0.37490  0.99230  Biso   1.000  H
  H34      1.0000 0.10660  0.87490  0.00770  Biso   1.000  H
