data_image0
_cell_length_a       7.9979
_cell_length_b       6.8447
_cell_length_c       14.0483
_cell_angle_alpha    90
_cell_angle_beta     103.673
_cell_angle_gamma    90

_symmetry_space_group_name_H-M    "P 1"
_symmetry_int_tables_number       1

loop_
  _symmetry_equiv_pos_as_xyz
  'x, y, z'

loop_
  _atom_site_label
  _atom_site_occupancy
  _atom_site_fract_x
  _atom_site_fract_y
  _atom_site_fract_z
  _atom_site_thermal_displace_type
  _atom_site_B_iso_or_equiv
  _atom_site_type_symbol
  Cu1      1.0000 0.42281  0.24941  0.15246  Biso   1.000  Cu
  Cu2      1.0000 0.57719  0.74941  0.84754  Biso   1.000  Cu
  N1       1.0000 0.53460  0.08980  0.26370  Biso   1.000  N
  N2       1.0000 0.46540  0.58980  0.73630  Biso   1.000  N
  N3       1.0000 0.24840  0.02850  0.12200  Biso   1.000  N
  N4       1.0000 0.75160  0.52850  0.87800  Biso   1.000  N
  O1       1.0000 0.57910  0.46000  0.19730  Biso   1.000  O
  O2       1.0000 0.42090  0.96000  0.80270  Biso   1.000  O
  N5       1.0000 0.27890  0.41300  0.05140  Biso   1.000  N
  N6       1.0000 0.72110  0.91300  0.94860  Biso   1.000  N
  N7       1.0000 0.33640  0.50250  0.99510  Biso   1.000  N
  N8       1.0000 0.66360  0.00250  0.00490  Biso   1.000  N
  N9       1.0000 0.38330  0.59450  0.93920  Biso   1.000  N
  N10      1.0000 0.61670  0.09450  0.06080  Biso   1.000  N
  C1       1.0000 0.34190  0.85440  0.17200  Biso   1.000  C
  C2       1.0000 0.65810  0.35440  0.82800  Biso   1.000  C
  H1       1.0000 0.42040  0.80560  0.13440  Biso   1.000  H
  H2       1.0000 0.57960  0.30560  0.86560  Biso   1.000  H
  H3       1.0000 0.26040  0.75170  0.17600  Biso   1.000  H
  H4       1.0000 0.73960  0.25170  0.82400  Biso   1.000  H
  C3       1.0000 0.44210  0.90990  0.27450  Biso   1.000  C
  C4       1.0000 0.55790  0.40990  0.72550  Biso   1.000  C
  H5       1.0000 0.36440  0.93120  0.31710  Biso   1.000  H
  H6       1.0000 0.63560  0.43120  0.68290  Biso   1.000  H
  H7       1.0000 0.52240  0.80710  0.30230  Biso   1.000  H
  H8       1.0000 0.47760  0.30710  0.69770  Biso   1.000  H
  C5       1.0000 0.69030  0.11620  0.31610  Biso   1.000  C
  C6       1.0000 0.30970  0.61620  0.68390  Biso   1.000  C
  H9       1.0000 0.73670  0.01930  0.36100  Biso   1.000  H
  H10      1.0000 0.26330  0.51930  0.63900  Biso   1.000  H
  C7       1.0000 0.79540  0.28100  0.31040  Biso   1.000  C
  C8       1.0000 0.20460  0.78100  0.68960  Biso   1.000  C
  C9       1.0000 0.97600  0.27880  0.36710  Biso   1.000  C
  C10      1.0000 0.02400  0.77880  0.63290  Biso   1.000  C
  C11      1.0000 0.04870  0.12050  0.42750  Biso   1.000  C
  C12      1.0000 0.95130  0.62050  0.57250  Biso   1.000  C
  H11      1.0000 0.98040  0.01450  0.43530  Biso   1.000  H
  H12      1.0000 0.01960  0.51450  0.56470  Biso   1.000  H
  C13      1.0000 0.22190  0.12280  0.47520  Biso   1.000  C
  C14      1.0000 0.77810  0.62280  0.52480  Biso   1.000  C
  H13      1.0000 0.26870  0.01870  0.51520  Biso   1.000  H
  H14      1.0000 0.73130  0.51870  0.48480  Biso   1.000  H
  C15      1.0000 0.32540  0.27890  0.46360  Biso   1.000  C
  C16      1.0000 0.67460  0.77890  0.53640  Biso   1.000  C
  H15      1.0000 0.44210  0.27640  0.49390  Biso   1.000  H
  H16      1.0000 0.55790  0.77640  0.50610  Biso   1.000  H
  C17      1.0000 0.25820  0.43550  0.40830  Biso   1.000  C
  C18      1.0000 0.74180  0.93550  0.59170  Biso   1.000  C
  H17      1.0000 0.32850  0.54060  0.40220  Biso   1.000  H
  H18      1.0000 0.67150  0.04060  0.59780  Biso   1.000  H
  C19      1.0000 0.08100  0.43960  0.35980  Biso   1.000  C
  C20      1.0000 0.91900  0.93960  0.64020  Biso   1.000  C
  C21      1.0000 0.01050  0.60410  0.30250  Biso   1.000  C
  C22      1.0000 0.98950  0.10410  0.69750  Biso   1.000  C
  H19      1.0000 0.07950  0.71260  0.30040  Biso   1.000  H
  H20      1.0000 0.92050  0.21260  0.69960  Biso   1.000  H
  C23      1.0000 0.84560  0.60520  0.25150  Biso   1.000  C
  C24      1.0000 0.15440  0.10520  0.74850  Biso   1.000  C
  H21      1.0000 0.80300  0.71480  0.21450  Biso   1.000  H
  H22      1.0000 0.19700  0.21480  0.78550  Biso   1.000  H
  C25      1.0000 0.73450  0.44350  0.25240  Biso   1.000  C
  C26      1.0000 0.26550  0.94350  0.74760  Biso   1.000  C
  C27      1.0000 0.18630  0.98560  0.01690  Biso   1.000  C
  C28      1.0000 0.81370  0.48560  0.98310  Biso   1.000  C
  H23      1.0000 0.28220  0.95280  0.98980  Biso   1.000  H
  H24      1.0000 0.71780  0.45280  0.01020  Biso   1.000  H
  H25      1.0000 0.12880  0.09840  0.98400  Biso   1.000  H
  H26      1.0000 0.87120  0.59840  0.01600  Biso   1.000  H
  H27      1.0000 0.10750  0.87770  0.00850  Biso   1.000  H
  H28      1.0000 0.89250  0.37770  0.99150  Biso   1.000  H
  C29      1.0000 0.09940  0.07860  0.16340  Biso   1.000  C
  C30      1.0000 0.90060  0.57860  0.83660  Biso   1.000  C
  H29      1.0000 0.13920  0.10680  0.23200  Biso   1.000  H
  H30      1.0000 0.86080  0.60680  0.76800  Biso   1.000  H
  H31      1.0000 0.02090  0.97040  0.15480  Biso   1.000  H
  H32      1.0000 0.97910  0.47040  0.84520  Biso   1.000  H
  H33      1.0000 0.04170  0.19120  0.13030  Biso   1.000  H
  H34      1.0000 0.95830  0.69120  0.86970  Biso   1.000  H
