data_image0
_cell_length_a       8.0022
_cell_length_b       6.845
_cell_length_c       14.0354
_cell_angle_alpha    90
_cell_angle_beta     103.724
_cell_angle_gamma    90

_symmetry_space_group_name_H-M    "P 1"
_symmetry_int_tables_number       1

loop_
  _symmetry_equiv_pos_as_xyz
  'x, y, z'

loop_
  _atom_site_label
  _atom_site_occupancy
  _atom_site_fract_x
  _atom_site_fract_y
  _atom_site_fract_z
  _atom_site_thermal_displace_type
  _atom_site_B_iso_or_equiv
  _atom_site_type_symbol
  Cu1      1.0000 0.42274  0.24079  0.15241  Biso   1.000  Cu
  Cu2      1.0000 0.57726  0.74079  0.84759  Biso   1.000  Cu
  N1       1.0000 0.27830  0.40480  0.05180  Biso   1.000  N
  N2       1.0000 0.72170  0.90480  0.94820  Biso   1.000  N
  N3       1.0000 0.24800  0.01970  0.12260  Biso   1.000  N
  N4       1.0000 0.75200  0.51970  0.87740  Biso   1.000  N
  O1       1.0000 0.57830  0.45140  0.19719  Biso   1.000  O
  O2       1.0000 0.42170  0.95140  0.80281  Biso   1.000  O
  N5       1.0000 0.33650  0.49390  0.99550  Biso   1.000  N
  N6       1.0000 0.66350  0.99390  0.00450  Biso   1.000  N
  N7       1.0000 0.38330  0.58660  0.93930  Biso   1.000  N
  N8       1.0000 0.61670  0.08660  0.06070  Biso   1.000  N
  C1       1.0000 0.09950  0.06940  0.16290  Biso   1.000  C
  C2       1.0000 0.90050  0.56940  0.83710  Biso   1.000  C
  H1       1.0000 0.04310  0.18300  0.13000  Biso   1.000  H
  H2       1.0000 0.95690  0.68300  0.87000  Biso   1.000  H
  H3       1.0000 0.13830  0.09600  0.23170  Biso   1.000  H
  H4       1.0000 0.86170  0.59600  0.76830  Biso   1.000  H
  H5       1.0000 0.02040  0.96180  0.15310  Biso   1.000  H
  H6       1.0000 0.97960  0.46180  0.84690  Biso   1.000  H
  C3       1.0000 0.18590  0.97780  0.01640  Biso   1.000  C
  C4       1.0000 0.81410  0.47780  0.98360  Biso   1.000  C
  H7       1.0000 0.12740  0.09040  0.98380  Biso   1.000  H
  H8       1.0000 0.87260  0.59040  0.01620  Biso   1.000  H
  H9       1.0000 0.10810  0.86890  0.00750  Biso   1.000  H
  H10      1.0000 0.89190  0.36890  0.99250  Biso   1.000  H
  H11      1.0000 0.28200  0.94690  0.98920  Biso   1.000  H
  H12      1.0000 0.71800  0.44690  0.01080  Biso   1.000  H
  C5       1.0000 0.33990  0.84560  0.17210  Biso   1.000  C
  C6       1.0000 0.66010  0.34560  0.82790  Biso   1.000  C
  H13      1.0000 0.41720  0.79520  0.13430  Biso   1.000  H
  H14      1.0000 0.58280  0.29520  0.86570  Biso   1.000  H
  H15      1.0000 0.25770  0.74400  0.17680  Biso   1.000  H
  H16      1.0000 0.74230  0.24400  0.82320  Biso   1.000  H
  C7       1.0000 0.44180  0.90240  0.27450  Biso   1.000  C
  C8       1.0000 0.55820  0.40240  0.72550  Biso   1.000  C
  H17      1.0000 0.36490  0.92410  0.31750  Biso   1.000  H
  H18      1.0000 0.63510  0.42410  0.68250  Biso   1.000  H
  H19      1.0000 0.52210  0.79960  0.30230  Biso   1.000  H
  H20      1.0000 0.47790  0.29960  0.69770  Biso   1.000  H
  N9       1.0000 0.53430  0.08180  0.26369  Biso   1.000  N
  N10      1.0000 0.46570  0.58180  0.73631  Biso   1.000  N
  C9       1.0000 0.68990  0.10780  0.31570  Biso   1.000  C
  C10      1.0000 0.31010  0.60780  0.68430  Biso   1.000  C
  H21      1.0000 0.73620  0.00980  0.36000  Biso   1.000  H
  H22      1.0000 0.26380  0.50980  0.64000  Biso   1.000  H
  C11      1.0000 0.79600  0.27210  0.31100  Biso   1.000  C
  C12      1.0000 0.20400  0.77210  0.68900  Biso   1.000  C
  C13      1.0000 0.73310  0.43510  0.25190  Biso   1.000  C
  C14      1.0000 0.26690  0.93510  0.74810  Biso   1.000  C
  C15      1.0000 0.84480  0.59750  0.25110  Biso   1.000  C
  C16      1.0000 0.15520  0.09750  0.74890  Biso   1.000  C
  H23      1.0000 0.80250  0.70760  0.21440  Biso   1.000  H
  H24      1.0000 0.19750  0.20760  0.78560  Biso   1.000  H
  C17      1.0000 0.08100  0.43020  0.36030  Biso   1.000  C
  C18      1.0000 0.91900  0.93020  0.63970  Biso   1.000  C
  C19      1.0000 0.25800  0.42580  0.40860  Biso   1.000  C
  C20      1.0000 0.74200  0.92580  0.59140  Biso   1.000  C
  H25      1.0000 0.32840  0.53060  0.40210  Biso   1.000  H
  H26      1.0000 0.67160  0.03060  0.59790  Biso   1.000  H
  C21      1.0000 0.32540  0.27020  0.46420  Biso   1.000  C
  C22      1.0000 0.67460  0.77020  0.53580  Biso   1.000  C
  H27      1.0000 0.44170  0.26840  0.49530  Biso   1.000  H
  H28      1.0000 0.55830  0.76840  0.50470  Biso   1.000  H
  C23      1.0000 0.22210  0.11460  0.47460  Biso   1.000  C
  C24      1.0000 0.77790  0.61460  0.52540  Biso   1.000  C
  H29      1.0000 0.26890  0.00940  0.51390  Biso   1.000  H
  H30      1.0000 0.73110  0.50940  0.48610  Biso   1.000  H
  C25      1.0000 0.04990  0.11320  0.42740  Biso   1.000  C
  C26      1.0000 0.95010  0.61320  0.57260  Biso   1.000  C
  H31      1.0000 0.98200  0.00700  0.43530  Biso   1.000  H
  H32      1.0000 0.01800  0.50700  0.56470  Biso   1.000  H
  C27      1.0000 0.97560  0.27060  0.36730  Biso   1.000  C
  C28      1.0000 0.02440  0.77060  0.63270  Biso   1.000  C
  C29      1.0000 0.01060  0.59470  0.30250  Biso   1.000  C
  C30      1.0000 0.98940  0.09470  0.69750  Biso   1.000  C
  H33      1.0000 0.08010  0.70260  0.30010  Biso   1.000  H
  H34      1.0000 0.91990  0.20260  0.69990  Biso   1.000  H
