data_image0
_cell_length_a       8.0045
_cell_length_b       6.8435
_cell_length_c       14.0451
_cell_angle_alpha    90
_cell_angle_beta     103.689
_cell_angle_gamma    90

_symmetry_space_group_name_H-M    "P 1"
_symmetry_int_tables_number       1

loop_
  _symmetry_equiv_pos_as_xyz
  'x, y, z'

loop_
  _atom_site_label
  _atom_site_occupancy
  _atom_site_fract_x
  _atom_site_fract_y
  _atom_site_fract_z
  _atom_site_thermal_displace_type
  _atom_site_B_iso_or_equiv
  _atom_site_type_symbol
  Cu1      1.0000 0.57718  0.74495  0.84762  Biso   1.000  Cu
  Cu2      1.0000 0.42282  0.24495  0.15238  Biso   1.000  Cu
  O1       1.0000 0.42120  0.53370  0.80277  Biso   1.000  O
  O2       1.0000 0.57880  0.03370  0.19723  Biso   1.000  O
  N1       1.0000 0.46530  0.90310  0.73650  Biso   1.000  N
  N2       1.0000 0.53470  0.40310  0.26350  Biso   1.000  N
  C1       1.0000 0.90000  0.91490  0.83670  Biso   1.000  C
  C2       1.0000 0.10000  0.41490  0.16330  Biso   1.000  C
  H1       1.0000 0.95650  0.80170  0.86980  Biso   1.000  H
  H2       1.0000 0.04350  0.30170  0.13020  Biso   1.000  H
  H3       1.0000 0.97940  0.02220  0.84550  Biso   1.000  H
  H4       1.0000 0.02060  0.52220  0.15450  Biso   1.000  H
  H5       1.0000 0.86030  0.88710  0.76800  Biso   1.000  H
  H6       1.0000 0.13970  0.38710  0.23200  Biso   1.000  H
  N3       1.0000 0.61530  0.39830  0.06020  Biso   1.000  N
  N4       1.0000 0.38470  0.89830  0.93980  Biso   1.000  N
  N5       1.0000 0.72120  0.57910  0.94820  Biso   1.000  N
  N6       1.0000 0.27880  0.07910  0.05180  Biso   1.000  N
  N7       1.0000 0.66360  0.49080  0.00496  Biso   1.000  N
  N8       1.0000 0.33640  0.99080  0.99504  Biso   1.000  N
  C3       1.0000 0.55810  0.08380  0.72570  Biso   1.000  C
  C4       1.0000 0.44190  0.58380  0.27430  Biso   1.000  C
  H7       1.0000 0.47770  0.18660  0.69820  Biso   1.000  H
  H8       1.0000 0.52230  0.68660  0.30180  Biso   1.000  H
  H9       1.0000 0.63470  0.06250  0.68250  Biso   1.000  H
  H10      1.0000 0.36530  0.56250  0.31750  Biso   1.000  H
  C5       1.0000 0.66030  0.14050  0.82780  Biso   1.000  C
  C6       1.0000 0.33970  0.64050  0.17220  Biso   1.000  C
  H11      1.0000 0.74260  0.24190  0.82290  Biso   1.000  H
  H12      1.0000 0.25740  0.74190  0.17710  Biso   1.000  H
  H13      1.0000 0.58320  0.19140  0.86570  Biso   1.000  H
  H14      1.0000 0.41680  0.69140  0.13430  Biso   1.000  H
  N9       1.0000 0.75240  0.96640  0.87766  Biso   1.000  N
  N10      1.0000 0.24760  0.46640  0.12234  Biso   1.000  N
  C7       1.0000 0.81470  0.00850  0.98340  Biso   1.000  C
  C8       1.0000 0.18530  0.50850  0.01660  Biso   1.000  C
  H15      1.0000 0.87320  0.89590  0.01610  Biso   1.000  H
  H16      1.0000 0.12680  0.39590  0.98390  Biso   1.000  H
  H17      1.0000 0.71890  0.03970  0.01080  Biso   1.000  H
  H18      1.0000 0.28110  0.53970  0.98920  Biso   1.000  H
  H19      1.0000 0.89260  0.11730  0.99210  Biso   1.000  H
  H20      1.0000 0.10740  0.61730  0.00790  Biso   1.000  H
  C9       1.0000 0.31020  0.87840  0.68397  Biso   1.000  C
  C10      1.0000 0.68980  0.37840  0.31603  Biso   1.000  C
  H21      1.0000 0.26460  0.97600  0.63930  Biso   1.000  H
  H22      1.0000 0.73540  0.47600  0.36070  Biso   1.000  H
  C11      1.0000 0.20420  0.71390  0.68933  Biso   1.000  C
  C12      1.0000 0.79580  0.21390  0.31067  Biso   1.000  C
  C13      1.0000 0.02470  0.71510  0.63294  Biso   1.000  C
  C14      1.0000 0.97530  0.21510  0.36706  Biso   1.000  C
  C15      1.0000 0.91880  0.55470  0.63980  Biso   1.000  C
  C16      1.0000 0.08120  0.05470  0.36020  Biso   1.000  C
  C17      1.0000 0.74270  0.55850  0.59130  Biso   1.000  C
  C18      1.0000 0.25730  0.05850  0.40870  Biso   1.000  C
  H23      1.0000 0.67310  0.45240  0.59690  Biso   1.000  H
  H24      1.0000 0.32690  0.95240  0.40310  Biso   1.000  H
  C19      1.0000 0.67340  0.71660  0.53600  Biso   1.000  C
  C20      1.0000 0.32660  0.21660  0.46400  Biso   1.000  C
  H25      1.0000 0.55660  0.72010  0.50620  Biso   1.000  H
  H26      1.0000 0.44340  0.22010  0.49380  Biso   1.000  H
  C21      1.0000 0.77820  0.87010  0.52500  Biso   1.000  C
  C22      1.0000 0.22180  0.37010  0.47500  Biso   1.000  C
  H27      1.0000 0.73200  0.97420  0.48480  Biso   1.000  H
  H28      1.0000 0.26800  0.47420  0.51520  Biso   1.000  H
  C23      1.0000 0.95010  0.87340  0.57230  Biso   1.000  C
  C24      1.0000 0.04990  0.37340  0.42770  Biso   1.000  C
  H29      1.0000 0.01760  0.98000  0.56450  Biso   1.000  H
  H30      1.0000 0.98240  0.48000  0.43550  Biso   1.000  H
  C25      1.0000 0.99000  0.38960  0.69750  Biso   1.000  C
  C26      1.0000 0.01000  0.88960  0.30250  Biso   1.000  C
  H31      1.0000 0.92120  0.28100  0.69960  Biso   1.000  H
  H32      1.0000 0.07880  0.78100  0.30040  Biso   1.000  H
  C27      1.0000 0.15480  0.38830  0.74870  Biso   1.000  C
  C28      1.0000 0.84520  0.88830  0.25130  Biso   1.000  C
  H33      1.0000 0.19700  0.27850  0.78570  Biso   1.000  H
  H34      1.0000 0.80300  0.77850  0.21430  Biso   1.000  H
  C29      1.0000 0.26660  0.55010  0.74800  Biso   1.000  C
  C30      1.0000 0.73340  0.05010  0.25200  Biso   1.000  C
