data_image0
_cell_length_a       8.0008
_cell_length_b       6.8493
_cell_length_c       14.0439
_cell_angle_alpha    90
_cell_angle_beta     103.685
_cell_angle_gamma    90

_symmetry_space_group_name_H-M    "P 1"
_symmetry_int_tables_number       1

loop_
  _symmetry_equiv_pos_as_xyz
  'x, y, z'

loop_
  _atom_site_label
  _atom_site_occupancy
  _atom_site_fract_x
  _atom_site_fract_y
  _atom_site_fract_z
  _atom_site_thermal_displace_type
  _atom_site_B_iso_or_equiv
  _atom_site_type_symbol
  Cu1      1.0000 0.42291  0.24553  0.15233  Biso   1.000  Cu
  Cu2      1.0000 0.57709  0.74553  0.84767  Biso   1.000  Cu
  O1       1.0000 0.57870  0.03360  0.19720  Biso   1.000  O
  O2       1.0000 0.42130  0.53360  0.80280  Biso   1.000  O
  N1       1.0000 0.53460  0.40320  0.26370  Biso   1.000  N
  N2       1.0000 0.46540  0.90320  0.73630  Biso   1.000  N
  N3       1.0000 0.24770  0.46710  0.12240  Biso   1.000  N
  N4       1.0000 0.75230  0.96710  0.87760  Biso   1.000  N
  C1       1.0000 0.10040  0.41510  0.16360  Biso   1.000  C
  C2       1.0000 0.89960  0.91510  0.83640  Biso   1.000  C
  H1       1.0000 0.04430  0.30160  0.13060  Biso   1.000  H
  H2       1.0000 0.95570  0.80160  0.86940  Biso   1.000  H
  H3       1.0000 0.02060  0.52200  0.15460  Biso   1.000  H
  H4       1.0000 0.97940  0.02200  0.84540  Biso   1.000  H
  H5       1.0000 0.14050  0.38790  0.23220  Biso   1.000  H
  H6       1.0000 0.85950  0.88790  0.76780  Biso   1.000  H
  C3       1.0000 0.84540  0.89000  0.25100  Biso   1.000  C
  C4       1.0000 0.15460  0.39000  0.74900  Biso   1.000  C
  H7       1.0000 0.80350  0.78020  0.21410  Biso   1.000  H
  H8       1.0000 0.19650  0.28020  0.78590  Biso   1.000  H
  N5       1.0000 0.33700  0.99220  0.99500  Biso   1.000  N
  N6       1.0000 0.66300  0.49220  0.00500  Biso   1.000  N
  C5       1.0000 0.44260  0.58500  0.27450  Biso   1.000  C
  C6       1.0000 0.55740  0.08500  0.72550  Biso   1.000  C
  H9       1.0000 0.52360  0.68770  0.30130  Biso   1.000  H
  H10      1.0000 0.47640  0.18770  0.69870  Biso   1.000  H
  H11      1.0000 0.36650  0.56490  0.31810  Biso   1.000  H
  H12      1.0000 0.63350  0.06490  0.68190  Biso   1.000  H
  C7       1.0000 0.33920  0.64040  0.17210  Biso   1.000  C
  C8       1.0000 0.66080  0.14040  0.82790  Biso   1.000  C
  H13      1.0000 0.25660  0.74140  0.17700  Biso   1.000  H
  H14      1.0000 0.74340  0.24140  0.82300  Biso   1.000  H
  H15      1.0000 0.41590  0.69160  0.13410  Biso   1.000  H
  H16      1.0000 0.58410  0.19160  0.86590  Biso   1.000  H
  C9       1.0000 0.18560  0.50820  0.01630  Biso   1.000  C
  C10      1.0000 0.81440  0.00820  0.98370  Biso   1.000  C
  H17      1.0000 0.12750  0.39520  0.98390  Biso   1.000  H
  H18      1.0000 0.87250  0.89520  0.01610  Biso   1.000  H
  H19      1.0000 0.28160  0.53930  0.98910  Biso   1.000  H
  H20      1.0000 0.71840  0.03930  0.01090  Biso   1.000  H
  H21      1.0000 0.10740  0.61660  0.00730  Biso   1.000  H
  H22      1.0000 0.89260  0.11660  0.99270  Biso   1.000  H
  C11      1.0000 0.68990  0.37790  0.31560  Biso   1.000  C
  C12      1.0000 0.31010  0.87790  0.68440  Biso   1.000  C
  H23      1.0000 0.73600  0.47580  0.36000  Biso   1.000  H
  H24      1.0000 0.26400  0.97580  0.64000  Biso   1.000  H
  C13      1.0000 0.79600  0.21400  0.31070  Biso   1.000  C
  C14      1.0000 0.20400  0.71400  0.68930  Biso   1.000  C
  C15      1.0000 0.73380  0.05130  0.25210  Biso   1.000  C
  C16      1.0000 0.26620  0.55130  0.74790  Biso   1.000  C
  C17      1.0000 0.01050  0.89290  0.30240  Biso   1.000  C
  C18      1.0000 0.98950  0.39290  0.69760  Biso   1.000  C
  H25      1.0000 0.08010  0.78530  0.29950  Biso   1.000  H
  H26      1.0000 0.91990  0.28530  0.70050  Biso   1.000  H
  C19      1.0000 0.08070  0.05410  0.36030  Biso   1.000  C
  C20      1.0000 0.91930  0.55410  0.63970  Biso   1.000  C
  C21      1.0000 0.25720  0.05940  0.40920  Biso   1.000  C
  C22      1.0000 0.74280  0.55940  0.59080  Biso   1.000  C
  H27      1.0000 0.32710  0.95340  0.40390  Biso   1.000  H
  H28      1.0000 0.67290  0.45340  0.59610  Biso   1.000  H
  C23      1.0000 0.32670  0.21720  0.46390  Biso   1.000  C
  C24      1.0000 0.67330  0.71720  0.53610  Biso   1.000  C
  H29      1.0000 0.44370  0.22130  0.49320  Biso   1.000  H
  H30      1.0000 0.55630  0.72130  0.50680  Biso   1.000  H
  C25      1.0000 0.22190  0.36920  0.47500  Biso   1.000  C
  C26      1.0000 0.77810  0.86920  0.52500  Biso   1.000  C
  H31      1.0000 0.26800  0.47240  0.51590  Biso   1.000  H
  H32      1.0000 0.73200  0.97240  0.48410  Biso   1.000  H
  C27      1.0000 0.04990  0.37400  0.42740  Biso   1.000  C
  C28      1.0000 0.95010  0.87400  0.57260  Biso   1.000  C
  H33      1.0000 0.98280  0.48130  0.43470  Biso   1.000  H
  H34      1.0000 0.01720  0.98130  0.56530  Biso   1.000  H
  C29      1.0000 0.97550  0.21520  0.36730  Biso   1.000  C
  C30      1.0000 0.02450  0.71520  0.63270  Biso   1.000  C
  N7       1.0000 0.38490  0.90100  0.93960  Biso   1.000  N
  N8       1.0000 0.61510  0.40100  0.06040  Biso   1.000  N
  N9       1.0000 0.27880  0.07950  0.05160  Biso   1.000  N
  N10      1.0000 0.72120  0.57950  0.94840  Biso   1.000  N
