data_image0
_cell_length_a       8.0004
_cell_length_b       6.8446
_cell_length_c       14.049
_cell_angle_alpha    90
_cell_angle_beta     103.671
_cell_angle_gamma    90

_symmetry_space_group_name_H-M    "P 1"
_symmetry_int_tables_number       1

loop_
  _symmetry_equiv_pos_as_xyz
  'x, y, z'

loop_
  _atom_site_label
  _atom_site_occupancy
  _atom_site_fract_x
  _atom_site_fract_y
  _atom_site_fract_z
  _atom_site_thermal_displace_type
  _atom_site_B_iso_or_equiv
  _atom_site_type_symbol
  Cu1      1.0000 0.42284  0.23969  0.15237  Biso   1.000  Cu
  Cu2      1.0000 0.57716  0.73969  0.84763  Biso   1.000  Cu
  O1       1.0000 0.57840  0.02920  0.19738  Biso   1.000  O
  O2       1.0000 0.42160  0.52920  0.80262  Biso   1.000  O
  N1       1.0000 0.53430  0.39840  0.26367  Biso   1.000  N
  N2       1.0000 0.46570  0.89840  0.73633  Biso   1.000  N
  C1       1.0000 0.68920  0.37350  0.31620  Biso   1.000  C
  C2       1.0000 0.31080  0.87350  0.68380  Biso   1.000  C
  H1       1.0000 0.73450  0.47080  0.36110  Biso   1.000  H
  H2       1.0000 0.26550  0.97080  0.63890  Biso   1.000  H
  C3       1.0000 0.08130  0.04990  0.36020  Biso   1.000  C
  C4       1.0000 0.91870  0.54990  0.63980  Biso   1.000  C
  N3       1.0000 0.27830  0.07530  0.05140  Biso   1.000  N
  N4       1.0000 0.72170  0.57530  0.94860  Biso   1.000  N
  N5       1.0000 0.33680  0.98580  0.99520  Biso   1.000  N
  N6       1.0000 0.66320  0.48580  0.00480  Biso   1.000  N
  C5       1.0000 0.79600  0.20910  0.31082  Biso   1.000  C
  C6       1.0000 0.20400  0.70910  0.68918  Biso   1.000  C
  C7       1.0000 0.73270  0.04570  0.25190  Biso   1.000  C
  C8       1.0000 0.26730  0.54570  0.74810  Biso   1.000  C
  C9       1.0000 0.84450  0.88250  0.25120  Biso   1.000  C
  C10      1.0000 0.15550  0.38250  0.74880  Biso   1.000  C
  H3       1.0000 0.80220  0.77230  0.21470  Biso   1.000  H
  H4       1.0000 0.19780  0.27230  0.78530  Biso   1.000  H
  C11      1.0000 0.01010  0.88560  0.30260  Biso   1.000  C
  C12      1.0000 0.98990  0.38560  0.69740  Biso   1.000  C
  H5       1.0000 0.07950  0.77750  0.30020  Biso   1.000  H
  H6       1.0000 0.92050  0.27750  0.69980  Biso   1.000  H
  C13      1.0000 0.97550  0.20930  0.36729  Biso   1.000  C
  C14      1.0000 0.02450  0.70930  0.63271  Biso   1.000  C
  C15      1.0000 0.05030  0.36770  0.42790  Biso   1.000  C
  C16      1.0000 0.94970  0.86770  0.57210  Biso   1.000  C
  H7       1.0000 0.98260  0.47400  0.43590  Biso   1.000  H
  H8       1.0000 0.01740  0.97400  0.56410  Biso   1.000  H
  C17      1.0000 0.22150  0.36550  0.47490  Biso   1.000  C
  C18      1.0000 0.77850  0.86550  0.52510  Biso   1.000  C
  H9       1.0000 0.26800  0.47030  0.51450  Biso   1.000  H
  H10      1.0000 0.73200  0.97030  0.48550  Biso   1.000  H
  C19      1.0000 0.32620  0.20990  0.46420  Biso   1.000  C
  C20      1.0000 0.67380  0.70990  0.53580  Biso   1.000  C
  H11      1.0000 0.44270  0.21220  0.49490  Biso   1.000  H
  H12      1.0000 0.55730  0.71220  0.50510  Biso   1.000  H
  C21      1.0000 0.25760  0.05310  0.40840  Biso   1.000  C
  C22      1.0000 0.74240  0.55310  0.59160  Biso   1.000  C
  H13      1.0000 0.32740  0.94750  0.40210  Biso   1.000  H
  H14      1.0000 0.67260  0.44750  0.59790  Biso   1.000  H
  C23      1.0000 0.44220  0.57840  0.27440  Biso   1.000  C
  C24      1.0000 0.55780  0.07840  0.72560  Biso   1.000  C
  H15      1.0000 0.52280  0.68100  0.30190  Biso   1.000  H
  H16      1.0000 0.47720  0.18100  0.69810  Biso   1.000  H
  H17      1.0000 0.36540  0.55730  0.31740  Biso   1.000  H
  H18      1.0000 0.63460  0.05730  0.68260  Biso   1.000  H
  C25      1.0000 0.34010  0.63530  0.17210  Biso   1.000  C
  C26      1.0000 0.65990  0.13530  0.82790  Biso   1.000  C
  H19      1.0000 0.25800  0.73690  0.17690  Biso   1.000  H
  H20      1.0000 0.74200  0.23690  0.82310  Biso   1.000  H
  H21      1.0000 0.41740  0.68580  0.13420  Biso   1.000  H
  H22      1.0000 0.58260  0.18580  0.86580  Biso   1.000  H
  N7       1.0000 0.24770  0.46120  0.12228  Biso   1.000  N
  N8       1.0000 0.75230  0.96120  0.87772  Biso   1.000  N
  C27      1.0000 0.10040  0.41010  0.16310  Biso   1.000  C
  C28      1.0000 0.89960  0.91010  0.83690  Biso   1.000  C
  H23      1.0000 0.14000  0.38320  0.23180  Biso   1.000  H
  H24      1.0000 0.86000  0.88320  0.76820  Biso   1.000  H
  H25      1.0000 0.04410  0.29650  0.13030  Biso   1.000  H
  H26      1.0000 0.95590  0.79650  0.86970  Biso   1.000  H
  H27      1.0000 0.02070  0.51730  0.15380  Biso   1.000  H
  H28      1.0000 0.97930  0.01730  0.84620  Biso   1.000  H
  C29      1.0000 0.18500  0.50340  0.01620  Biso   1.000  C
  C30      1.0000 0.81500  0.00340  0.98380  Biso   1.000  C
  H29      1.0000 0.28090  0.53460  0.98880  Biso   1.000  H
  H30      1.0000 0.71910  0.03460  0.01120  Biso   1.000  H
  H31      1.0000 0.10710  0.61220  0.00750  Biso   1.000  H
  H32      1.0000 0.89290  0.11220  0.99250  Biso   1.000  H
  H33      1.0000 0.12640  0.39080  0.98360  Biso   1.000  H
  H34      1.0000 0.87360  0.89080  0.01640  Biso   1.000  H
  N9       1.0000 0.38390  0.89300  0.93940  Biso   1.000  N
  N10      1.0000 0.61610  0.39300  0.06060  Biso   1.000  N
