data_image0
_cell_length_a       8.0058
_cell_length_b       6.8434
_cell_length_c       14.0474
_cell_angle_alpha    90
_cell_angle_beta     103.658
_cell_angle_gamma    90

_symmetry_space_group_name_H-M    "P 1"
_symmetry_int_tables_number       1

loop_
  _symmetry_equiv_pos_as_xyz
  'x, y, z'

loop_
  _atom_site_label
  _atom_site_occupancy
  _atom_site_fract_x
  _atom_site_fract_y
  _atom_site_fract_z
  _atom_site_thermal_displace_type
  _atom_site_B_iso_or_equiv
  _atom_site_type_symbol
  Cu1      1.0000 0.57708  0.74228  0.84759  Biso   1.000  Cu
  Cu2      1.0000 0.42292  0.24228  0.15241  Biso   1.000  Cu
  O1       1.0000 0.42080  0.53180  0.80274  Biso   1.000  O
  O2       1.0000 0.57920  0.03180  0.19726  Biso   1.000  O
  N1       1.0000 0.75250  0.96380  0.87789  Biso   1.000  N
  N2       1.0000 0.24750  0.46380  0.12211  Biso   1.000  N
  N3       1.0000 0.46540  0.90110  0.73641  Biso   1.000  N
  N4       1.0000 0.53460  0.40110  0.26359  Biso   1.000  N
  C1       1.0000 0.91820  0.55230  0.63970  Biso   1.000  C
  C2       1.0000 0.08180  0.05230  0.36030  Biso   1.000  C
  N5       1.0000 0.66320  0.48830  0.00460  Biso   1.000  N
  N6       1.0000 0.33680  0.98830  0.99540  Biso   1.000  N
  N7       1.0000 0.61650  0.39570  0.06070  Biso   1.000  N
  N8       1.0000 0.38350  0.89570  0.93930  Biso   1.000  N
  C3       1.0000 0.89980  0.91320  0.83710  Biso   1.000  C
  C4       1.0000 0.10020  0.41320  0.16290  Biso   1.000  C
  H1       1.0000 0.95660  0.80010  0.87010  Biso   1.000  H
  H2       1.0000 0.04340  0.30010  0.12990  Biso   1.000  H
  H3       1.0000 0.97880  0.02090  0.84600  Biso   1.000  H
  H4       1.0000 0.02120  0.52090  0.15400  Biso   1.000  H
  H5       1.0000 0.86020  0.88560  0.76840  Biso   1.000  H
  H6       1.0000 0.13980  0.38560  0.23160  Biso   1.000  H
  C5       1.0000 0.81500  0.00570  0.98400  Biso   1.000  C
  C6       1.0000 0.18500  0.50570  0.01600  Biso   1.000  C
  H7       1.0000 0.71920  0.03840  0.01120  Biso   1.000  H
  H8       1.0000 0.28080  0.53840  0.98880  Biso   1.000  H
  H9       1.0000 0.89390  0.11340  0.99280  Biso   1.000  H
  H10      1.0000 0.10610  0.61340  0.00720  Biso   1.000  H
  H11      1.0000 0.87220  0.89240  0.01660  Biso   1.000  H
  H12      1.0000 0.12780  0.39240  0.98340  Biso   1.000  H
  C7       1.0000 0.65950  0.13710  0.82820  Biso   1.000  C
  C8       1.0000 0.34050  0.63710  0.17180  Biso   1.000  C
  H13      1.0000 0.74090  0.23960  0.82380  Biso   1.000  H
  H14      1.0000 0.25910  0.73960  0.17620  Biso   1.000  H
  H15      1.0000 0.58140  0.18640  0.86590  Biso   1.000  H
  H16      1.0000 0.41860  0.68640  0.13410  Biso   1.000  H
  C9       1.0000 0.55870  0.08070  0.72590  Biso   1.000  C
  C10      1.0000 0.44130  0.58070  0.27410  Biso   1.000  C
  H17      1.0000 0.47890  0.18380  0.69810  Biso   1.000  H
  H18      1.0000 0.52110  0.68380  0.30190  Biso   1.000  H
  H19      1.0000 0.63620  0.05880  0.68330  Biso   1.000  H
  H20      1.0000 0.36380  0.55880  0.31670  Biso   1.000  H
  C11      1.0000 0.31080  0.87570  0.68410  Biso   1.000  C
  C12      1.0000 0.68920  0.37570  0.31590  Biso   1.000  C
  H21      1.0000 0.26560  0.97300  0.63920  Biso   1.000  H
  H22      1.0000 0.73440  0.47300  0.36080  Biso   1.000  H
  C13      1.0000 0.20370  0.71130  0.68924  Biso   1.000  C
  C14      1.0000 0.79630  0.21130  0.31076  Biso   1.000  C
  C15      1.0000 0.26720  0.54830  0.74800  Biso   1.000  C
  C16      1.0000 0.73280  0.04830  0.25200  Biso   1.000  C
  C17      1.0000 0.15450  0.38500  0.74850  Biso   1.000  C
  C18      1.0000 0.84550  0.88500  0.25150  Biso   1.000  C
  H23      1.0000 0.19650  0.27450  0.78480  Biso   1.000  H
  H24      1.0000 0.80350  0.77450  0.21520  Biso   1.000  H
  C19      1.0000 0.99040  0.38850  0.69780  Biso   1.000  C
  C20      1.0000 0.00960  0.88850  0.30220  Biso   1.000  C
  H25      1.0000 0.92110  0.28050  0.70050  Biso   1.000  H
  H26      1.0000 0.07890  0.78050  0.29950  Biso   1.000  H
  C21      1.0000 0.74310  0.55650  0.59140  Biso   1.000  C
  C22      1.0000 0.25690  0.05650  0.40860  Biso   1.000  C
  H27      1.0000 0.67360  0.45040  0.59720  Biso   1.000  H
  H28      1.0000 0.32640  0.95040  0.40280  Biso   1.000  H
  C23      1.0000 0.67370  0.71230  0.53630  Biso   1.000  C
  C24      1.0000 0.32630  0.21230  0.46370  Biso   1.000  C
  H29      1.0000 0.55690  0.71490  0.50640  Biso   1.000  H
  H30      1.0000 0.44310  0.21490  0.49360  Biso   1.000  H
  C25      1.0000 0.77870  0.86750  0.52530  Biso   1.000  C
  C26      1.0000 0.22130  0.36750  0.47470  Biso   1.000  C
  H31      1.0000 0.73260  0.97160  0.48510  Biso   1.000  H
  H32      1.0000 0.26740  0.47160  0.51490  Biso   1.000  H
  C27      1.0000 0.94980  0.87020  0.57260  Biso   1.000  C
  C28      1.0000 0.05020  0.37020  0.42740  Biso   1.000  C
  H33      1.0000 0.01690  0.97720  0.56500  Biso   1.000  H
  H34      1.0000 0.98310  0.47720  0.43500  Biso   1.000  H
  C29      1.0000 0.02530  0.71300  0.63281  Biso   1.000  C
  C30      1.0000 0.97470  0.21300  0.36719  Biso   1.000  C
  N9       1.0000 0.72130  0.57700  0.94850  Biso   1.000  N
  N10      1.0000 0.27870  0.07700  0.05150  Biso   1.000  N
