data_image0
_cell_length_a       8.0013
_cell_length_b       6.8445
_cell_length_c       14.0404
_cell_angle_alpha    90
_cell_angle_beta     103.717
_cell_angle_gamma    90

_symmetry_space_group_name_H-M    "P 1"
_symmetry_int_tables_number       1

loop_
  _symmetry_equiv_pos_as_xyz
  'x, y, z'

loop_
  _atom_site_label
  _atom_site_occupancy
  _atom_site_fract_x
  _atom_site_fract_y
  _atom_site_fract_z
  _atom_site_thermal_displace_type
  _atom_site_B_iso_or_equiv
  _atom_site_type_symbol
  Cu1      1.0000 0.42280  0.24166  0.15238  Biso   1.000  Cu
  Cu2      1.0000 0.57720  0.74166  0.84762  Biso   1.000  Cu
  O1       1.0000 0.57860  0.03050  0.19729  Biso   1.000  O
  O2       1.0000 0.42140  0.53050  0.80271  Biso   1.000  O
  N1       1.0000 0.53490  0.40040  0.26377  Biso   1.000  N
  N2       1.0000 0.46510  0.90040  0.73623  Biso   1.000  N
  N3       1.0000 0.24770  0.46330  0.12208  Biso   1.000  N
  N4       1.0000 0.75230  0.96330  0.87792  Biso   1.000  N
  C1       1.0000 0.22150  0.36620  0.47480  Biso   1.000  C
  C2       1.0000 0.77850  0.86620  0.52520  Biso   1.000  C
  H1       1.0000 0.26790  0.47030  0.51500  Biso   1.000  H
  H2       1.0000 0.73210  0.97030  0.48500  Biso   1.000  H
  N5       1.0000 0.27810  0.07610  0.05120  Biso   1.000  N
  N6       1.0000 0.72190  0.57610  0.94880  Biso   1.000  N
  N7       1.0000 0.33670  0.98720  0.99508  Biso   1.000  N
  N8       1.0000 0.66330  0.48720  0.00492  Biso   1.000  N
  C3       1.0000 0.44190  0.58070  0.27430  Biso   1.000  C
  C4       1.0000 0.55810  0.08070  0.72570  Biso   1.000  C
  H3       1.0000 0.52220  0.68370  0.30170  Biso   1.000  H
  H4       1.0000 0.47780  0.18370  0.69830  Biso   1.000  H
  H5       1.0000 0.36520  0.55940  0.31740  Biso   1.000  H
  H6       1.0000 0.63480  0.05940  0.68260  Biso   1.000  H
  C5       1.0000 0.33950  0.63690  0.17190  Biso   1.000  C
  C6       1.0000 0.66050  0.13690  0.82810  Biso   1.000  C
  H7       1.0000 0.25720  0.73830  0.17670  Biso   1.000  H
  H8       1.0000 0.74280  0.23830  0.82330  Biso   1.000  H
  H9       1.0000 0.41670  0.68770  0.13410  Biso   1.000  H
  H10      1.0000 0.58330  0.18770  0.86590  Biso   1.000  H
  C7       1.0000 0.09980  0.41250  0.16300  Biso   1.000  C
  C8       1.0000 0.90020  0.91250  0.83700  Biso   1.000  C
  H11      1.0000 0.13940  0.38540  0.23170  Biso   1.000  H
  H12      1.0000 0.86060  0.88540  0.76830  Biso   1.000  H
  H13      1.0000 0.04320  0.29920  0.13010  Biso   1.000  H
  H14      1.0000 0.95680  0.79920  0.86990  Biso   1.000  H
  H15      1.0000 0.02040  0.52000  0.15380  Biso   1.000  H
  H16      1.0000 0.97960  0.02000  0.84620  Biso   1.000  H
  C9       1.0000 0.18440  0.50490  0.01630  Biso   1.000  C
  C10      1.0000 0.81560  0.00490  0.98370  Biso   1.000  C
  H17      1.0000 0.12600  0.39190  0.98390  Biso   1.000  H
  H18      1.0000 0.87400  0.89190  0.01610  Biso   1.000  H
  H19      1.0000 0.27990  0.53630  0.98860  Biso   1.000  H
  H20      1.0000 0.72010  0.03630  0.01140  Biso   1.000  H
  H21      1.0000 0.10610  0.61330  0.00760  Biso   1.000  H
  H22      1.0000 0.89390  0.11330  0.99240  Biso   1.000  H
  C11      1.0000 0.68980  0.37480  0.31627  Biso   1.000  C
  C12      1.0000 0.31020  0.87480  0.68373  Biso   1.000  C
  H23      1.0000 0.73540  0.47190  0.36130  Biso   1.000  H
  H24      1.0000 0.26460  0.97190  0.63870  Biso   1.000  H
  C13      1.0000 0.79590  0.21070  0.31080  Biso   1.000  C
  C14      1.0000 0.20410  0.71070  0.68920  Biso   1.000  C
  C15      1.0000 0.73330  0.04780  0.25199  Biso   1.000  C
  C16      1.0000 0.26670  0.54780  0.74801  Biso   1.000  C
  C17      1.0000 0.84520  0.88450  0.25120  Biso   1.000  C
  C18      1.0000 0.15480  0.38450  0.74880  Biso   1.000  C
  H25      1.0000 0.80280  0.77460  0.21440  Biso   1.000  H
  H26      1.0000 0.19720  0.27460  0.78560  Biso   1.000  H
  C19      1.0000 0.01030  0.88670  0.30250  Biso   1.000  C
  C20      1.0000 0.98970  0.38670  0.69750  Biso   1.000  C
  H27      1.0000 0.07960  0.77840  0.30040  Biso   1.000  H
  H28      1.0000 0.92040  0.27840  0.69960  Biso   1.000  H
  C21      1.0000 0.08110  0.05160  0.36000  Biso   1.000  C
  C22      1.0000 0.91890  0.55160  0.64000  Biso   1.000  C
  C23      1.0000 0.25770  0.05550  0.40870  Biso   1.000  C
  C24      1.0000 0.74230  0.55550  0.59130  Biso   1.000  C
  H29      1.0000 0.32760  0.94970  0.40290  Biso   1.000  H
  H30      1.0000 0.67240  0.44970  0.59710  Biso   1.000  H
  C25      1.0000 0.32620  0.21200  0.46390  Biso   1.000  C
  C26      1.0000 0.67380  0.71200  0.53610  Biso   1.000  C
  H31      1.0000 0.44300  0.21510  0.49410  Biso   1.000  H
  H32      1.0000 0.55700  0.71510  0.50590  Biso   1.000  H
  C27      1.0000 0.05010  0.36970  0.42750  Biso   1.000  C
  C28      1.0000 0.94990  0.86970  0.57250  Biso   1.000  C
  H33      1.0000 0.98270  0.47650  0.43530  Biso   1.000  H
  H34      1.0000 0.01730  0.97650  0.56470  Biso   1.000  H
  C29      1.0000 0.97520  0.21210  0.36705  Biso   1.000  C
  C30      1.0000 0.02480  0.71210  0.63295  Biso   1.000  C
  N9       1.0000 0.38390  0.89520  0.93940  Biso   1.000  N
  N10      1.0000 0.61610  0.39520  0.06060  Biso   1.000  N
