data_image0
_cell_length_a       6.676
_cell_length_b       7.946
_cell_length_c       7.668
_cell_angle_alpha    90
_cell_angle_beta     110.39
_cell_angle_gamma    90

_symmetry_space_group_name_H-M    "P 1"
_symmetry_int_tables_number       1

loop_
  _symmetry_equiv_pos_as_xyz
  'x, y, z'

loop_
  _atom_site_label
  _atom_site_occupancy
  _atom_site_fract_x
  _atom_site_fract_y
  _atom_site_fract_z
  _atom_site_thermal_displace_type
  _atom_site_B_iso_or_equiv
  _atom_site_type_symbol
  C1       1.0000 0.44950  0.00310  0.35780  Biso   1.000  C
  C2       1.0000 0.55050  0.50310  0.14220  Biso   1.000  C
  C3       1.0000 0.55050  0.99690  0.64220  Biso   1.000  C
  C4       1.0000 0.44950  0.49690  0.85780  Biso   1.000  C
  Cu1      1.0000 0.00000  0.00000  0.00000  Biso   1.000  Cu
  Cu2      1.0000 0.00000  0.50000  0.50000  Biso   1.000  Cu
  O1       1.0000 0.38620  0.00650  0.18200  Biso   1.000  O
  O2       1.0000 0.61380  0.50650  0.31800  Biso   1.000  O
  O3       1.0000 0.61380  0.99350  0.81800  Biso   1.000  O
  O4       1.0000 0.38620  0.49350  0.68200  Biso   1.000  O
  O5       1.0000 0.55350  0.28490  0.51020  Biso   1.000  O
  O6       1.0000 0.44650  0.78490  0.98980  Biso   1.000  O
  O7       1.0000 0.44650  0.71510  0.48980  Biso   1.000  O
  O8       1.0000 0.55350  0.21510  0.01020  Biso   1.000  O
  C5       1.0000 0.52400  0.12840  0.50420  Biso   1.000  C
  C6       1.0000 0.47600  0.62840  0.99580  Biso   1.000  C
  C7       1.0000 0.47600  0.87160  0.49580  Biso   1.000  C
  C8       1.0000 0.52400  0.37160  0.00420  Biso   1.000  C
  O9       1.0000 0.99400  0.24670  0.99260  Biso   1.000  O
  O10      1.0000 0.00600  0.74670  0.50740  Biso   1.000  O
  O11      1.0000 0.00600  0.75330  0.00740  Biso   1.000  O
  O12      1.0000 0.99400  0.25330  0.49260  Biso   1.000  O
  O13      1.0000 0.92280  0.00740  0.22260  Biso   1.000  O
  O14      1.0000 0.07720  0.50740  0.27740  Biso   1.000  O
  O15      1.0000 0.07720  0.99260  0.77740  Biso   1.000  O
  O16      1.0000 0.92280  0.49260  0.72260  Biso   1.000  O
