data_image0
_cell_length_a       16.076
_cell_length_b       16.079
_cell_length_c       21.256
_cell_angle_alpha    90
_cell_angle_beta     90
_cell_angle_gamma    90

_symmetry_space_group_name_H-M    "P 1"
_symmetry_int_tables_number       1

loop_
  _symmetry_equiv_pos_as_xyz
  'x, y, z'

loop_
  _atom_site_label
  _atom_site_occupancy
  _atom_site_fract_x
  _atom_site_fract_y
  _atom_site_fract_z
  _atom_site_thermal_displace_type
  _atom_site_B_iso_or_equiv
  _atom_site_type_symbol
  Sm1      1.0000 0.87630  0.14710  0.20600  Biso   1.000  Sm
  Sm2      1.0000 0.12370  0.14710  0.70600  Biso   1.000  Sm
  Sm3      1.0000 0.87630  0.85290  0.70600  Biso   1.000  Sm
  Sm4      1.0000 0.12370  0.85290  0.20600  Biso   1.000  Sm
  Sm5      1.0000 0.35290  0.62380  0.05370  Biso   1.000  Sm
  Sm6      1.0000 0.64710  0.62380  0.55370  Biso   1.000  Sm
  Sm7      1.0000 0.35290  0.37620  0.55370  Biso   1.000  Sm
  Sm8      1.0000 0.64710  0.37620  0.05370  Biso   1.000  Sm
  Cu1      1.0000 0.01070  0.10770  0.95980  Biso   1.000  Cu
  Cu2      1.0000 0.98930  0.10770  0.45980  Biso   1.000  Cu
  Cu3      1.0000 0.01070  0.89230  0.45980  Biso   1.000  Cu
  Cu4      1.0000 0.98930  0.89230  0.95980  Biso   1.000  Cu
  Cu5      1.0000 0.39190  0.51070  0.79840  Biso   1.000  Cu
  Cu6      1.0000 0.60810  0.51070  0.29840  Biso   1.000  Cu
  Cu7      1.0000 0.39190  0.48930  0.29840  Biso   1.000  Cu
  Cu8      1.0000 0.60810  0.48930  0.79840  Biso   1.000  Cu
  Cu9      1.0000 0.07710  0.42340  0.13100  Biso   1.000  Cu
  Cu10     1.0000 0.92290  0.42340  0.63100  Biso   1.000  Cu
  Cu11     1.0000 0.07710  0.57660  0.63100  Biso   1.000  Cu
  Cu12     1.0000 0.92290  0.57660  0.13100  Biso   1.000  Cu
  O1       1.0000 0.89400  0.09000  0.00800  Biso   1.000  O
  O2       1.0000 0.10600  0.09000  0.50800  Biso   1.000  O
  O3       1.0000 0.89400  0.91000  0.50800  Biso   1.000  O
  O4       1.0000 0.10600  0.91000  0.00800  Biso   1.000  O
  O5       1.0000 0.96300  0.09500  0.87500  Biso   1.000  O
  O6       1.0000 0.03700  0.09500  0.37500  Biso   1.000  O
  O7       1.0000 0.96300  0.90500  0.37500  Biso   1.000  O
  O8       1.0000 0.03700  0.90500  0.87500  Biso   1.000  O
  O9       1.0000 0.01400  0.26800  0.91000  Biso   1.000  O
  O10      1.0000 0.98600  0.26800  0.41000  Biso   1.000  O
  O11      1.0000 0.01400  0.73200  0.41000  Biso   1.000  O
  O12      1.0000 0.98600  0.73200  0.91000  Biso   1.000  O
  O13      1.0000 0.39900  0.46700  0.88400  Biso   1.000  O
  O14      1.0000 0.60100  0.46700  0.38400  Biso   1.000  O
  O15      1.0000 0.39900  0.53300  0.38400  Biso   1.000  O
  O16      1.0000 0.60100  0.53300  0.88400  Biso   1.000  O
  O17      1.0000 0.41000  0.39900  0.76000  Biso   1.000  O
  O18      1.0000 0.59000  0.39900  0.26000  Biso   1.000  O
  O19      1.0000 0.41000  0.60100  0.26000  Biso   1.000  O
  O20      1.0000 0.59000  0.60100  0.76000  Biso   1.000  O
  O21      1.0000 0.24100  0.47500  0.80500  Biso   1.000  O
  O22      1.0000 0.75900  0.47500  0.30500  Biso   1.000  O
  O23      1.0000 0.24100  0.52500  0.30500  Biso   1.000  O
  O24      1.0000 0.75900  0.52500  0.80500  Biso   1.000  O
  O25      1.0000 0.98800  0.34700  0.08900  Biso   1.000  O
  O26      1.0000 0.01200  0.34700  0.58900  Biso   1.000  O
  O27      1.0000 0.98800  0.65300  0.58900  Biso   1.000  O
  O28      1.0000 0.01200  0.65300  0.08900  Biso   1.000  O
  O29      1.0000 0.12400  0.46100  0.05100  Biso   1.000  O
  O30      1.0000 0.87600  0.46100  0.55100  Biso   1.000  O
  O31      1.0000 0.12400  0.53900  0.55100  Biso   1.000  O
  O32      1.0000 0.87600  0.53900  0.05100  Biso   1.000  O
  O33      1.0000 0.17200  0.32600  0.13700  Biso   1.000  O
  O34      1.0000 0.82800  0.32600  0.63700  Biso   1.000  O
  O35      1.0000 0.17200  0.67400  0.63700  Biso   1.000  O
  O36      1.0000 0.82800  0.67400  0.13700  Biso   1.000  O
  O37      1.0000 0.87900  0.99600  0.22100  Biso   1.000  O
  O38      1.0000 0.12100  0.99600  0.72100  Biso   1.000  O
  O39      1.0000 0.87900  0.00400  0.72100  Biso   1.000  O
  O40      1.0000 0.12100  0.00400  0.22100  Biso   1.000  O
  O41      1.0000 0.00300  0.10300  0.77600  Biso   1.000  O
  O42      1.0000 0.99700  0.10300  0.27600  Biso   1.000  O
  O43      1.0000 0.00300  0.89700  0.27600  Biso   1.000  O
  O44      1.0000 0.99700  0.89700  0.77600  Biso   1.000  O
  O45      1.0000 0.16300  0.14700  0.81500  Biso   1.000  O
  O46      1.0000 0.83700  0.14700  0.31500  Biso   1.000  O
  O47      1.0000 0.16300  0.85300  0.31500  Biso   1.000  O
  O48      1.0000 0.83700  0.85300  0.81500  Biso   1.000  O
  O49      1.0000 0.77600  0.25800  0.21800  Biso   1.000  O
  O50      1.0000 0.22400  0.25800  0.71800  Biso   1.000  O
  O51      1.0000 0.77600  0.74200  0.71800  Biso   1.000  O
  O52      1.0000 0.22400  0.74200  0.21800  Biso   1.000  O
  O53      1.0000 0.85200  0.09500  0.10000  Biso   1.000  O
  O54      1.0000 0.14800  0.09500  0.60000  Biso   1.000  O
  O55      1.0000 0.85200  0.90500  0.60000  Biso   1.000  O
  O56      1.0000 0.14800  0.90500  0.10000  Biso   1.000  O
  O57      1.0000 0.73400  0.08400  0.20500  Biso   1.000  O
  O58      1.0000 0.26600  0.08400  0.70500  Biso   1.000  O
  O59      1.0000 0.73400  0.91600  0.70500  Biso   1.000  O
  O60      1.0000 0.26600  0.91600  0.20500  Biso   1.000  O
  O61      1.0000 0.00000  0.12800  0.14500  Biso   1.000  O
  O62      1.0000 0.00000  0.12800  0.64500  Biso   1.000  O
  O63      1.0000 0.00000  0.87200  0.64500  Biso   1.000  O
  O64      1.0000 0.00000  0.87200  0.14500  Biso   1.000  O
  O65      1.0000 0.89600  0.25300  0.12800  Biso   1.000  O
  O66      1.0000 0.10400  0.25300  0.62800  Biso   1.000  O
  O67      1.0000 0.89600  0.74700  0.62800  Biso   1.000  O
  O68      1.0000 0.10400  0.74700  0.12800  Biso   1.000  O
  O69      1.0000 0.95800  0.26900  0.24400  Biso   1.000  O
  O70      1.0000 0.04200  0.26900  0.74400  Biso   1.000  O
  O71      1.0000 0.95800  0.73100  0.74400  Biso   1.000  O
  O72      1.0000 0.04200  0.73100  0.24400  Biso   1.000  O
  O73      1.0000 0.50500  0.62200  0.04400  Biso   1.000  O
  O74      1.0000 0.49500  0.62200  0.54400  Biso   1.000  O
  O75      1.0000 0.50500  0.37800  0.54400  Biso   1.000  O
  O76      1.0000 0.49500  0.37800  0.04400  Biso   1.000  O
  O77      1.0000 0.41400  0.76200  0.06300  Biso   1.000  O
  O78      1.0000 0.58600  0.76200  0.56300  Biso   1.000  O
  O79      1.0000 0.41400  0.23800  0.56300  Biso   1.000  O
  O80      1.0000 0.58600  0.23800  0.06300  Biso   1.000  O
  O81      1.0000 0.36100  0.65900  0.94500  Biso   1.000  O
  O82      1.0000 0.63900  0.65900  0.44500  Biso   1.000  O
  O83      1.0000 0.36100  0.34100  0.44500  Biso   1.000  O
  O84      1.0000 0.63900  0.34100  0.94500  Biso   1.000  O
  O85      1.0000 0.39200  0.50400  0.98300  Biso   1.000  O
  O86      1.0000 0.60800  0.50400  0.48300  Biso   1.000  O
  O87      1.0000 0.39200  0.49600  0.48300  Biso   1.000  O
  O88      1.0000 0.60800  0.49600  0.98300  Biso   1.000  O
  O89      1.0000 0.40600  0.35100  0.66400  Biso   1.000  O
  O90      1.0000 0.59400  0.35100  0.16400  Biso   1.000  O
  O91      1.0000 0.40600  0.64900  0.16400  Biso   1.000  O
  O92      1.0000 0.59400  0.64900  0.66400  Biso   1.000  O
  O93      1.0000 0.24300  0.72700  0.04600  Biso   1.000  O
  O94      1.0000 0.75700  0.72700  0.54600  Biso   1.000  O
  O95      1.0000 0.24300  0.27300  0.54600  Biso   1.000  O
  O96      1.0000 0.75700  0.27300  0.04600  Biso   1.000  O
  O97      1.0000 0.23000  0.53800  0.02000  Biso   1.000  O
  O98      1.0000 0.77000  0.53800  0.52000  Biso   1.000  O
  O99      1.0000 0.23000  0.46200  0.52000  Biso   1.000  O
  O100     1.0000 0.77000  0.46200  0.02000  Biso   1.000  O
  O101     1.0000 0.38600  0.50100  0.60900  Biso   1.000  O
  O102     1.0000 0.61400  0.50100  0.10900  Biso   1.000  O
  O103     1.0000 0.38600  0.49900  0.10900  Biso   1.000  O
  O104     1.0000 0.61400  0.49900  0.60900  Biso   1.000  O
  O105     1.0000 0.24700  0.60600  0.13900  Biso   1.000  O
  O106     1.0000 0.75300  0.60600  0.63900  Biso   1.000  O
  O107     1.0000 0.24700  0.39400  0.63900  Biso   1.000  O
  O108     1.0000 0.75300  0.39400  0.13900  Biso   1.000  O
  N1       1.0000 0.11000  0.12700  0.92100  Biso   1.000  N
  N2       1.0000 0.89000  0.12700  0.42100  Biso   1.000  N
  N3       1.0000 0.11000  0.87300  0.42100  Biso   1.000  N
  N4       1.0000 0.89000  0.87300  0.92100  Biso   1.000  N
  N5       1.0000 0.04800  0.11300  0.05000  Biso   1.000  N
  N6       1.0000 0.95200  0.11300  0.55000  Biso   1.000  N
  N7       1.0000 0.04800  0.88700  0.55000  Biso   1.000  N
  N8       1.0000 0.95200  0.88700  0.05000  Biso   1.000  N
  N9       1.0000 0.36900  0.61000  0.84500  Biso   1.000  N
  N10      1.0000 0.63100  0.61000  0.34500  Biso   1.000  N
  N11      1.0000 0.36900  0.39000  0.34500  Biso   1.000  N
  N12      1.0000 0.63100  0.39000  0.84500  Biso   1.000  N
  N13      1.0000 0.38900  0.55400  0.71500  Biso   1.000  N
  N14      1.0000 0.61100  0.55400  0.21500  Biso   1.000  N
  N15      1.0000 0.38900  0.44600  0.21500  Biso   1.000  N
  N16      1.0000 0.61100  0.44600  0.71500  Biso   1.000  N
  N17      1.0000 0.03000  0.37300  0.21200  Biso   1.000  N
  N18      1.0000 0.97000  0.37300  0.71200  Biso   1.000  N
  N19      1.0000 0.03000  0.62700  0.71200  Biso   1.000  N
  N20      1.0000 0.97000  0.62700  0.21200  Biso   1.000  N
  N21      1.0000 0.15600  0.50800  0.16200  Biso   1.000  N
  N22      1.0000 0.84400  0.50800  0.66200  Biso   1.000  N
  N23      1.0000 0.15600  0.49200  0.66200  Biso   1.000  N
  N24      1.0000 0.84400  0.49200  0.16200  Biso   1.000  N
  C1       1.0000 0.99600  0.10600  0.09900  Biso   1.000  C
  C2       1.0000 0.00400  0.10600  0.59900  Biso   1.000  C
  C3       1.0000 0.99600  0.89400  0.59900  Biso   1.000  C
  C4       1.0000 0.00400  0.89400  0.09900  Biso   1.000  C
  C5       1.0000 0.90800  0.09400  0.06500  Biso   1.000  C
  C6       1.0000 0.09200  0.09400  0.56500  Biso   1.000  C
  C7       1.0000 0.90800  0.90600  0.56500  Biso   1.000  C
  C8       1.0000 0.09200  0.90600  0.06500  Biso   1.000  C
  C9       1.0000 0.02100  0.11200  0.84100  Biso   1.000  C
  C10      1.0000 0.97900  0.11200  0.34100  Biso   1.000  C
  C11      1.0000 0.02100  0.88800  0.34100  Biso   1.000  C
  C12      1.0000 0.97900  0.88800  0.84100  Biso   1.000  C
  C13      1.0000 0.10100  0.13000  0.86500  Biso   1.000  C
  C14      1.0000 0.89900  0.13000  0.36500  Biso   1.000  C
  C15      1.0000 0.10100  0.87000  0.36500  Biso   1.000  C
  C16      1.0000 0.89900  0.87000  0.86500  Biso   1.000  C
  C17      1.0000 0.20000  0.14500  0.95200  Biso   1.000  C
  C18      1.0000 0.80000  0.14500  0.45200  Biso   1.000  C
  C19      1.0000 0.20000  0.85500  0.45200  Biso   1.000  C
  C20      1.0000 0.80000  0.85500  0.95200  Biso   1.000  C
  C21      1.0000 0.19600  0.09300  0.01100  Biso   1.000  C
  C22      1.0000 0.80400  0.09300  0.51100  Biso   1.000  C
  C23      1.0000 0.19600  0.90700  0.51100  Biso   1.000  C
  C24      1.0000 0.80400  0.90700  0.01100  Biso   1.000  C
  C25      1.0000 0.14100  0.13200  0.06900  Biso   1.000  C
  C26      1.0000 0.85900  0.13200  0.56900  Biso   1.000  C
  C27      1.0000 0.14100  0.86800  0.56900  Biso   1.000  C
  C28      1.0000 0.85900  0.86800  0.06900  Biso   1.000  C
  C29      1.0000 0.39000  0.52300  0.92500  Biso   1.000  C
  C30      1.0000 0.61000  0.52300  0.42500  Biso   1.000  C
  C31      1.0000 0.39000  0.47700  0.42500  Biso   1.000  C
  C32      1.0000 0.61000  0.47700  0.92500  Biso   1.000  C
  C33      1.0000 0.36900  0.60800  0.90800  Biso   1.000  C
  C34      1.0000 0.63100  0.60800  0.40800  Biso   1.000  C
  C35      1.0000 0.36900  0.39200  0.40800  Biso   1.000  C
  C36      1.0000 0.63100  0.39200  0.90800  Biso   1.000  C
  C37      1.0000 0.40300  0.40800  0.70200  Biso   1.000  C
  C38      1.0000 0.59700  0.40800  0.20200  Biso   1.000  C
  C39      1.0000 0.40300  0.59200  0.20200  Biso   1.000  C
  C40      1.0000 0.59700  0.59200  0.70200  Biso   1.000  C
  C41      1.0000 0.39000  0.49500  0.67600  Biso   1.000  C
  C42      1.0000 0.61000  0.49500  0.17600  Biso   1.000  C
  C43      1.0000 0.39000  0.50500  0.17600  Biso   1.000  C
  C44      1.0000 0.61000  0.50500  0.67600  Biso   1.000  C
  C45      1.0000 0.36400  0.70200  0.81600  Biso   1.000  C
  C46      1.0000 0.63600  0.70200  0.31600  Biso   1.000  C
  C47      1.0000 0.36400  0.29800  0.31600  Biso   1.000  C
  C48      1.0000 0.63600  0.29800  0.81600  Biso   1.000  C
  C49      1.0000 0.39500  0.68300  0.74300  Biso   1.000  C
  C50      1.0000 0.60500  0.68300  0.24300  Biso   1.000  C
  C51      1.0000 0.39500  0.31700  0.24300  Biso   1.000  C
  C52      1.0000 0.60500  0.31700  0.74300  Biso   1.000  C
  C53      1.0000 0.35800  0.64600  0.69800  Biso   1.000  C
  C54      1.0000 0.64200  0.64600  0.19800  Biso   1.000  C
  C55      1.0000 0.35800  0.35400  0.19800  Biso   1.000  C
  C56      1.0000 0.64200  0.35400  0.69800  Biso   1.000  C
  C57      1.0000 0.98000  0.31300  0.20600  Biso   1.000  C
  C58      1.0000 0.02000  0.31300  0.70600  Biso   1.000  C
  C59      1.0000 0.98000  0.68700  0.70600  Biso   1.000  C
  C60      1.0000 0.02000  0.68700  0.20600  Biso   1.000  C
  C61      1.0000 0.95500  0.30600  0.13600  Biso   1.000  C
  C62      1.0000 0.04500  0.30600  0.63600  Biso   1.000  C
  C63      1.0000 0.95500  0.69400  0.63600  Biso   1.000  C
  C64      1.0000 0.04500  0.69400  0.13600  Biso   1.000  C
  C65      1.0000 0.20800  0.55200  0.13300  Biso   1.000  C
  C66      1.0000 0.79200  0.55200  0.63300  Biso   1.000  C
  C67      1.0000 0.20800  0.44800  0.63300  Biso   1.000  C
  C68      1.0000 0.79200  0.44800  0.13300  Biso   1.000  C
  C69      1.0000 0.18100  0.51300  0.05600  Biso   1.000  C
  C70      1.0000 0.81900  0.51300  0.55600  Biso   1.000  C
  C71      1.0000 0.18100  0.48700  0.55600  Biso   1.000  C
  C72      1.0000 0.81900  0.48700  0.05600  Biso   1.000  C
  C73      1.0000 0.14900  0.52000  0.23400  Biso   1.000  C
  C74      1.0000 0.85100  0.52000  0.73400  Biso   1.000  C
  C75      1.0000 0.14900  0.48000  0.73400  Biso   1.000  C
  C76      1.0000 0.85100  0.48000  0.23400  Biso   1.000  C
  C77      1.0000 0.13700  0.44100  0.27100  Biso   1.000  C
  C78      1.0000 0.86300  0.44100  0.77100  Biso   1.000  C
  C79      1.0000 0.13700  0.55900  0.77100  Biso   1.000  C
  C80      1.0000 0.86300  0.55900  0.27100  Biso   1.000  C
  C81      1.0000 0.05100  0.38400  0.27100  Biso   1.000  C
  C82      1.0000 0.94900  0.38400  0.77100  Biso   1.000  C
  C83      1.0000 0.05100  0.61600  0.77100  Biso   1.000  C
  C84      1.0000 0.94900  0.61600  0.27100  Biso   1.000  C
  O109     1.0000 0.69500  0.08300  0.04200  Biso   1.000  O
  O110     1.0000 0.30500  0.08300  0.54200  Biso   1.000  O
  O111     1.0000 0.69500  0.91700  0.54200  Biso   1.000  O
  O112     1.0000 0.30500  0.91700  0.04200  Biso   1.000  O
  O113     1.0000 0.42200  0.81100  0.21500  Biso   1.000  O
  O114     1.0000 0.57800  0.81100  0.71500  Biso   1.000  O
  O115     1.0000 0.42200  0.18900  0.71500  Biso   1.000  O
  O116     1.0000 0.57800  0.18900  0.21500  Biso   1.000  O
  O117     1.0000 0.84500  0.80800  0.22400  Biso   1.000  O
  O118     1.0000 0.15500  0.80800  0.72400  Biso   1.000  O
  O119     1.0000 0.84500  0.19200  0.72400  Biso   1.000  O
  O120     1.0000 0.15500  0.19200  0.22400  Biso   1.000  O
  O121     1.0000 0.41800  0.20000  0.06100  Biso   1.000  O
  O122     1.0000 0.58200  0.20000  0.56100  Biso   1.000  O
  O123     1.0000 0.41800  0.80000  0.56100  Biso   1.000  O
  O124     1.0000 0.58200  0.80000  0.06100  Biso   1.000  O
  O125     1.0000 0.69500  0.65700  0.04100  Biso   1.000  O
  O126     1.0000 0.30500  0.65700  0.54100  Biso   1.000  O
  O127     1.0000 0.69500  0.34300  0.54100  Biso   1.000  O
  O128     1.0000 0.30500  0.34300  0.04100  Biso   1.000  O
  O129     1.0000 0.67000  0.04900  0.35100  Biso   1.000  O
  O130     1.0000 0.33000  0.04900  0.85100  Biso   1.000  O
  O131     1.0000 0.67000  0.95100  0.85100  Biso   1.000  O
  O132     1.0000 0.33000  0.95100  0.35100  Biso   1.000  O
  O133     1.0000 0.69300  0.92400  0.18300  Biso   1.000  O
  O134     1.0000 0.30700  0.92400  0.68300  Biso   1.000  O
  O135     1.0000 0.69300  0.07600  0.68300  Biso   1.000  O
  O136     1.0000 0.30700  0.07600  0.18300  Biso   1.000  O
