data_image0
_cell_length_a       5.8401
_cell_length_b       34.949
_cell_length_c       15.0437
_cell_angle_alpha    90
_cell_angle_beta     109.695
_cell_angle_gamma    90

_symmetry_space_group_name_H-M    "P 1"
_symmetry_int_tables_number       1

loop_
  _symmetry_equiv_pos_as_xyz
  'x, y, z'

loop_
  _atom_site_label
  _atom_site_occupancy
  _atom_site_fract_x
  _atom_site_fract_y
  _atom_site_fract_z
  _atom_site_thermal_displace_type
  _atom_site_B_iso_or_equiv
  _atom_site_type_symbol
  Cu1      1.0000 0.90056  0.70392  0.17757  Biso   1.000  Cu
  Cu2      1.0000 0.09944  0.20392  0.32243  Biso   1.000  Cu
  Cu3      1.0000 0.09944  0.29608  0.82243  Biso   1.000  Cu
  Cu4      1.0000 0.90056  0.79608  0.67757  Biso   1.000  Cu
  O1       1.0000 0.60400  0.67411  0.11697  Biso   1.000  O
  O2       1.0000 0.39600  0.17411  0.38303  Biso   1.000  O
  O3       1.0000 0.39600  0.32589  0.88303  Biso   1.000  O
  O4       1.0000 0.60400  0.82589  0.61697  Biso   1.000  O
  O5       1.0000 0.74970  0.65005  0.00990  Biso   1.000  O
  O6       1.0000 0.25030  0.15005  0.49010  Biso   1.000  O
  O7       1.0000 0.25030  0.34995  0.99010  Biso   1.000  O
  O8       1.0000 0.74970  0.84995  0.50990  Biso   1.000  O
  O9       1.0000 0.06880  0.65883  0.24109  Biso   1.000  O
  O10      1.0000 0.93120  0.15883  0.25891  Biso   1.000  O
  O11      1.0000 0.93120  0.34117  0.75891  Biso   1.000  O
  O12      1.0000 0.06880  0.84117  0.74109  Biso   1.000  O
  O13      1.0000 0.90380  0.67446  0.34900  Biso   1.000  O
  O14      1.0000 0.09620  0.17446  0.15100  Biso   1.000  O
  O15      1.0000 0.09620  0.32554  0.65100  Biso   1.000  O
  O16      1.0000 0.90380  0.82554  0.84900  Biso   1.000  O
  O17      1.0000 0.08920  0.70247  0.05020  Biso   1.000  O
  O18      1.0000 0.91080  0.20247  0.44980  Biso   1.000  O
  O19      1.0000 0.91080  0.29753  0.94980  Biso   1.000  O
  O20      1.0000 0.08920  0.79753  0.55020  Biso   1.000  O
  O21      1.0000 0.85670  0.62118  0.86270  Biso   1.000  O
  O22      1.0000 0.14330  0.12118  0.63730  Biso   1.000  O
  O23      1.0000 0.14330  0.37882  0.13730  Biso   1.000  O
  O24      1.0000 0.85670  0.87882  0.36270  Biso   1.000  O
  N1       1.0000 0.18820  0.73770  0.24060  Biso   1.000  N
  N2       1.0000 0.81180  0.23770  0.25940  Biso   1.000  N
  N3       1.0000 0.81180  0.26230  0.75940  Biso   1.000  N
  N4       1.0000 0.18820  0.76230  0.74060  Biso   1.000  N
  N5       1.0000 0.74460  0.75442  0.12580  Biso   1.000  N
  N6       1.0000 0.25540  0.25442  0.37420  Biso   1.000  N
  N7       1.0000 0.25540  0.24558  0.87420  Biso   1.000  N
  N8       1.0000 0.74460  0.74558  0.62580  Biso   1.000  N
  N9       1.0000 0.97230  0.89037  0.16470  Biso   1.000  N
  N10      1.0000 0.02770  0.39037  0.33530  Biso   1.000  N
  N11      1.0000 0.02770  0.10963  0.83530  Biso   1.000  N
  N12      1.0000 0.97230  0.60963  0.66470  Biso   1.000  N
  N13      1.0000 0.35540  0.87655  0.25190  Biso   1.000  N
  N14      1.0000 0.64460  0.37655  0.24810  Biso   1.000  N
  N15      1.0000 0.64460  0.12345  0.74810  Biso   1.000  N
  N16      1.0000 0.35540  0.62345  0.75190  Biso   1.000  N
  H1       1.0000 0.49200  0.87930  0.28200  Biso   1.000  H
  H2       1.0000 0.50800  0.37930  0.21800  Biso   1.000  H
  H3       1.0000 0.50800  0.12070  0.71800  Biso   1.000  H
  H4       1.0000 0.49200  0.62070  0.78200  Biso   1.000  H
  C1       1.0000 0.41090  0.72749  0.29440  Biso   1.000  C
  C2       1.0000 0.58910  0.22749  0.20560  Biso   1.000  C
  C3       1.0000 0.58910  0.27251  0.70560  Biso   1.000  C
  C4       1.0000 0.41090  0.77251  0.79440  Biso   1.000  C
  H5       1.0000 0.44470  0.70170  0.30770  Biso   1.000  H
  H6       1.0000 0.55530  0.20170  0.19230  Biso   1.000  H
  H7       1.0000 0.55530  0.29830  0.69230  Biso   1.000  H
  H8       1.0000 0.44470  0.79830  0.80770  Biso   1.000  H
  C5       1.0000 0.59470  0.75412  0.33160  Biso   1.000  C
  C6       1.0000 0.40530  0.25412  0.16840  Biso   1.000  C
  C7       1.0000 0.40530  0.24588  0.66840  Biso   1.000  C
  C8       1.0000 0.59470  0.74588  0.83160  Biso   1.000  C
  H9       1.0000 0.74820  0.74600  0.36950  Biso   1.000  H
  H10      1.0000 0.25180  0.24600  0.13050  Biso   1.000  H
  H11      1.0000 0.25180  0.25400  0.63050  Biso   1.000  H
  H12      1.0000 0.74820  0.75400  0.86950  Biso   1.000  H
  C9       1.0000 0.55130  0.79230  0.31280  Biso   1.000  C
  C10      1.0000 0.44870  0.29230  0.18720  Biso   1.000  C
  C11      1.0000 0.44870  0.20770  0.68720  Biso   1.000  C
  C12      1.0000 0.55130  0.70770  0.81280  Biso   1.000  C
  H13      1.0000 0.67400  0.81020  0.33760  Biso   1.000  H
  H14      1.0000 0.32600  0.31020  0.16240  Biso   1.000  H
  H15      1.0000 0.32600  0.18980  0.66240  Biso   1.000  H
  H16      1.0000 0.67400  0.68980  0.83760  Biso   1.000  H
  C13      1.0000 0.31760  0.80387  0.25520  Biso   1.000  C
  C14      1.0000 0.68240  0.30387  0.24480  Biso   1.000  C
  C15      1.0000 0.68240  0.19613  0.74480  Biso   1.000  C
  C16      1.0000 0.31760  0.69613  0.75520  Biso   1.000  C
  C17      1.0000 0.23820  0.84230  0.22830  Biso   1.000  C
  C18      1.0000 0.76180  0.34230  0.27170  Biso   1.000  C
  C19      1.0000 0.76180  0.15770  0.77170  Biso   1.000  C
  C20      1.0000 0.23820  0.65770  0.72830  Biso   1.000  C
  C21      1.0000 0.00330  0.85127  0.17310  Biso   1.000  C
  C22      1.0000 0.99670  0.35127  0.32690  Biso   1.000  C
  C23      1.0000 0.99670  0.14873  0.82690  Biso   1.000  C
  C24      1.0000 0.00330  0.64873  0.67310  Biso   1.000  C
  C25      1.0000 0.82370  0.82249  0.13380  Biso   1.000  C
  C26      1.0000 0.17630  0.32249  0.36620  Biso   1.000  C
  C27      1.0000 0.17630  0.17751  0.86620  Biso   1.000  C
  C28      1.0000 0.82370  0.67751  0.63380  Biso   1.000  C
  C29      1.0000 0.58510  0.82889  0.07360  Biso   1.000  C
  C30      1.0000 0.41490  0.32889  0.42640  Biso   1.000  C
  C31      1.0000 0.41490  0.17111  0.92640  Biso   1.000  C
  C32      1.0000 0.58510  0.67111  0.57360  Biso   1.000  C
  H17      1.0000 0.52930  0.85370  0.05690  Biso   1.000  H
  H18      1.0000 0.47070  0.35370  0.44310  Biso   1.000  H
  H19      1.0000 0.47070  0.14630  0.94310  Biso   1.000  H
  H20      1.0000 0.52930  0.64630  0.55690  Biso   1.000  H
  C33      1.0000 0.43530  0.79829  0.03970  Biso   1.000  C
  C34      1.0000 0.56470  0.29829  0.46030  Biso   1.000  C
  C35      1.0000 0.56470  0.20171  0.96030  Biso   1.000  C
  C36      1.0000 0.43530  0.70171  0.53970  Biso   1.000  C
  H21      1.0000 0.27750  0.80200  0.99860  Biso   1.000  H
  H22      1.0000 0.72250  0.30200  0.50140  Biso   1.000  H
  H23      1.0000 0.72250  0.19800  0.00140  Biso   1.000  H
  H24      1.0000 0.27750  0.69800  0.49860  Biso   1.000  H
  C37      1.0000 0.52180  0.76133  0.06750  Biso   1.000  C
  C38      1.0000 0.47820  0.26133  0.43250  Biso   1.000  C
  C39      1.0000 0.47820  0.23867  0.93250  Biso   1.000  C
  C40      1.0000 0.52180  0.73867  0.56750  Biso   1.000  C
  H25      1.0000 0.41840  0.74070  0.04390  Biso   1.000  H
  H26      1.0000 0.58160  0.24070  0.45610  Biso   1.000  H
  H27      1.0000 0.58160  0.25930  0.95610  Biso   1.000  H
  H28      1.0000 0.41840  0.75930  0.54390  Biso   1.000  H
  C41      1.0000 0.89700  0.78472  0.15880  Biso   1.000  C
  C42      1.0000 0.10300  0.28472  0.34120  Biso   1.000  C
  C43      1.0000 0.10300  0.21528  0.84120  Biso   1.000  C
  C44      1.0000 0.89700  0.71528  0.65880  Biso   1.000  C
  C45      1.0000 0.14010  0.77565  0.22030  Biso   1.000  C
  C46      1.0000 0.85990  0.27565  0.27970  Biso   1.000  C
  C47      1.0000 0.85990  0.22435  0.77970  Biso   1.000  C
  C48      1.0000 0.14010  0.72435  0.72030  Biso   1.000  C
  C49      1.0000 0.18890  0.90446  0.21250  Biso   1.000  C
  C50      1.0000 0.81110  0.40446  0.28750  Biso   1.000  C
  C51      1.0000 0.81110  0.09554  0.78750  Biso   1.000  C
  C52      1.0000 0.18890  0.59554  0.71250  Biso   1.000  C
  C53      1.0000 0.24550  0.94546  0.22810  Biso   1.000  C
  C54      1.0000 0.75450  0.44546  0.27190  Biso   1.000  C
  C55      1.0000 0.75450  0.05454  0.77190  Biso   1.000  C
  C56      1.0000 0.24550  0.55454  0.72810  Biso   1.000  C
  C57      1.0000 0.48180  0.95875  0.26310  Biso   1.000  C
  C58      1.0000 0.51820  0.45875  0.23690  Biso   1.000  C
  C59      1.0000 0.51820  0.04125  0.73690  Biso   1.000  C
  C60      1.0000 0.48180  0.54125  0.76310  Biso   1.000  C
  H29      1.0000 0.61090  0.94170  0.27460  Biso   1.000  H
  H30      1.0000 0.38910  0.44170  0.22540  Biso   1.000  H
  H31      1.0000 0.38910  0.05830  0.72540  Biso   1.000  H
  H32      1.0000 0.61090  0.55830  0.77460  Biso   1.000  H
  C61      1.0000 0.52670  0.99737  0.28110  Biso   1.000  C
  C62      1.0000 0.47330  0.49737  0.21890  Biso   1.000  C
  C63      1.0000 0.47330  0.00263  0.71890  Biso   1.000  C
  C64      1.0000 0.52670  0.50263  0.78110  Biso   1.000  C
  H33      1.0000 0.68600  0.00620  0.30430  Biso   1.000  H
  H34      1.0000 0.31400  0.50620  0.19570  Biso   1.000  H
  H35      1.0000 0.31400  0.99380  0.69570  Biso   1.000  H
  H36      1.0000 0.68600  0.49380  0.80430  Biso   1.000  H
  C65      1.0000 0.33620  0.02267  0.26460  Biso   1.000  C
  C66      1.0000 0.66380  0.52267  0.23540  Biso   1.000  C
  C67      1.0000 0.66380  0.97733  0.73540  Biso   1.000  C
  C68      1.0000 0.33620  0.47733  0.76460  Biso   1.000  C
  H37      1.0000 0.36710  0.04850  0.27860  Biso   1.000  H
  H38      1.0000 0.63290  0.54850  0.22140  Biso   1.000  H
  H39      1.0000 0.63290  0.95150  0.72140  Biso   1.000  H
  H40      1.0000 0.36710  0.45150  0.77860  Biso   1.000  H
  C69      1.0000 0.10120  0.00989  0.22770  Biso   1.000  C
  C70      1.0000 0.89880  0.50989  0.27230  Biso   1.000  C
  C71      1.0000 0.89880  0.99011  0.77230  Biso   1.000  C
  C72      1.0000 0.10120  0.49011  0.72770  Biso   1.000  C
  H41      1.0000 0.97280  0.02710  0.21510  Biso   1.000  H
  H42      1.0000 0.02720  0.52710  0.28490  Biso   1.000  H
  H43      1.0000 0.02720  0.97290  0.78490  Biso   1.000  H
  H44      1.0000 0.97280  0.47290  0.71510  Biso   1.000  H
  C73      1.0000 0.05490  0.97138  0.20920  Biso   1.000  C
  C74      1.0000 0.94510  0.47138  0.29080  Biso   1.000  C
  C75      1.0000 0.94510  0.02862  0.79080  Biso   1.000  C
  C76      1.0000 0.05490  0.52862  0.70920  Biso   1.000  C
  H45      1.0000 0.89530  0.96280  0.18390  Biso   1.000  H
  H46      1.0000 0.10470  0.46280  0.31610  Biso   1.000  H
  H47      1.0000 0.10470  0.03720  0.81610  Biso   1.000  H
  H48      1.0000 0.89530  0.53720  0.68390  Biso   1.000  H
  C77      1.0000 0.61470  0.64844  0.05780  Biso   1.000  C
  C78      1.0000 0.38530  0.14844  0.44220  Biso   1.000  C
  C79      1.0000 0.38530  0.35156  0.94220  Biso   1.000  C
  C80      1.0000 0.61470  0.85156  0.55780  Biso   1.000  C
  C81      1.0000 0.45100  0.61438  0.04830  Biso   1.000  C
  C82      1.0000 0.54900  0.11438  0.45170  Biso   1.000  C
  C83      1.0000 0.54900  0.38562  0.95170  Biso   1.000  C
  C84      1.0000 0.45100  0.88562  0.54830  Biso   1.000  C
  C85      1.0000 0.45520  0.58465  0.98630  Biso   1.000  C
  C86      1.0000 0.54480  0.08465  0.51370  Biso   1.000  C
  C87      1.0000 0.54480  0.41535  0.01370  Biso   1.000  C
  C88      1.0000 0.45520  0.91535  0.48630  Biso   1.000  C
  H49      1.0000 0.55940  0.58640  0.95140  Biso   1.000  H
  H50      1.0000 0.44060  0.08640  0.54860  Biso   1.000  H
  H51      1.0000 0.44060  0.41360  0.04860  Biso   1.000  H
  H52      1.0000 0.55940  0.91360  0.45140  Biso   1.000  H
  C89      1.0000 0.30840  0.55302  0.97590  Biso   1.000  C
  C90      1.0000 0.69160  0.05302  0.52410  Biso   1.000  C
  C91      1.0000 0.69160  0.44698  0.02410  Biso   1.000  C
  C92      1.0000 0.30840  0.94698  0.47590  Biso   1.000  C
  H53      1.0000 0.31510  0.53360  0.93470  Biso   1.000  H
  H54      1.0000 0.68490  0.03360  0.56530  Biso   1.000  H
  H55      1.0000 0.68490  0.46640  0.06530  Biso   1.000  H
  H56      1.0000 0.31510  0.96640  0.43470  Biso   1.000  H
  C93      1.0000 0.14800  0.55004  0.02750  Biso   1.000  C
  C94      1.0000 0.85200  0.05004  0.47250  Biso   1.000  C
  C95      1.0000 0.85200  0.44996  0.97250  Biso   1.000  C
  C96      1.0000 0.14800  0.94996  0.52750  Biso   1.000  C
  C97      1.0000 0.14390  0.57976  0.08860  Biso   1.000  C
  C98      1.0000 0.85610  0.07976  0.41140  Biso   1.000  C
  C99      1.0000 0.85610  0.42024  0.91140  Biso   1.000  C
  C100     1.0000 0.14390  0.92024  0.58860  Biso   1.000  C
  H57      1.0000 0.03780  0.57840  0.12270  Biso   1.000  H
  H58      1.0000 0.96220  0.07840  0.37730  Biso   1.000  H
  H59      1.0000 0.96220  0.42160  0.87730  Biso   1.000  H
  H60      1.0000 0.03780  0.92160  0.62270  Biso   1.000  H
  C101     1.0000 0.29400  0.61128  0.09940  Biso   1.000  C
  C102     1.0000 0.70600  0.11128  0.40060  Biso   1.000  C
  C103     1.0000 0.70600  0.38872  0.90060  Biso   1.000  C
  C104     1.0000 0.29400  0.88872  0.59940  Biso   1.000  C
  H61      1.0000 0.28950  0.63060  0.14140  Biso   1.000  H
  H62      1.0000 0.71050  0.13060  0.35860  Biso   1.000  H
  H63      1.0000 0.71050  0.36940  0.85860  Biso   1.000  H
  H64      1.0000 0.28950  0.86940  0.64140  Biso   1.000  H
  C105     1.0000 0.99120  0.51665  0.01980  Biso   1.000  C
  C106     1.0000 0.00880  0.01665  0.48020  Biso   1.000  C
  C107     1.0000 0.00880  0.48335  0.98020  Biso   1.000  C
  C108     1.0000 0.99120  0.98335  0.51980  Biso   1.000  C
  C109     1.0000 0.02930  0.65316  0.31870  Biso   1.000  C
  C110     1.0000 0.97070  0.15316  0.18130  Biso   1.000  C
  C111     1.0000 0.97070  0.34684  0.68130  Biso   1.000  C
  C112     1.0000 0.02930  0.84684  0.81870  Biso   1.000  C
  C113     1.0000 0.14380  0.61773  0.37290  Biso   1.000  C
  C114     1.0000 0.85620  0.11773  0.12710  Biso   1.000  C
  C115     1.0000 0.85620  0.38227  0.62710  Biso   1.000  C
  C116     1.0000 0.14380  0.88227  0.87290  Biso   1.000  C
  C117     1.0000 0.34290  0.60029  0.35850  Biso   1.000  C
  C118     1.0000 0.65710  0.10029  0.14150  Biso   1.000  C
  C119     1.0000 0.65710  0.39971  0.64150  Biso   1.000  C
  C120     1.0000 0.34290  0.89971  0.85850  Biso   1.000  C
  H65      1.0000 0.40970  0.61110  0.31630  Biso   1.000  H
  H66      1.0000 0.59030  0.11110  0.18370  Biso   1.000  H
  H67      1.0000 0.59030  0.38890  0.68370  Biso   1.000  H
  H68      1.0000 0.40970  0.88890  0.81630  Biso   1.000  H
  C121     1.0000 0.44230  0.56721  0.40600  Biso   1.000  C
  C122     1.0000 0.55770  0.06721  0.09400  Biso   1.000  C
  C123     1.0000 0.55770  0.43279  0.59400  Biso   1.000  C
  C124     1.0000 0.44230  0.93279  0.90600  Biso   1.000  C
  H69      1.0000 0.57890  0.55660  0.39710  Biso   1.000  H
  H70      1.0000 0.42110  0.05660  0.10290  Biso   1.000  H
  H71      1.0000 0.42110  0.44340  0.60290  Biso   1.000  H
  H72      1.0000 0.57890  0.94340  0.89710  Biso   1.000  H
  C125     1.0000 0.34190  0.54950  0.46700  Biso   1.000  C
  C126     1.0000 0.65810  0.04950  0.03300  Biso   1.000  C
  C127     1.0000 0.65810  0.45050  0.53300  Biso   1.000  C
  C128     1.0000 0.34190  0.95050  0.96700  Biso   1.000  C
  C129     1.0000 0.14670  0.56777  0.48260  Biso   1.000  C
  C130     1.0000 0.85330  0.06777  0.01740  Biso   1.000  C
  C131     1.0000 0.85330  0.43223  0.51740  Biso   1.000  C
  C132     1.0000 0.14670  0.93223  0.98260  Biso   1.000  C
  H73      1.0000 0.07830  0.55690  0.52420  Biso   1.000  H
  H74      1.0000 0.92170  0.05690  0.97580  Biso   1.000  H
  H75      1.0000 0.92170  0.44310  0.47580  Biso   1.000  H
  H76      1.0000 0.07830  0.94310  0.02420  Biso   1.000  H
  C133     1.0000 0.05280  0.60148  0.43780  Biso   1.000  C
  C134     1.0000 0.94720  0.10148  0.06220  Biso   1.000  C
  C135     1.0000 0.94720  0.39852  0.56220  Biso   1.000  C
  C136     1.0000 0.05280  0.89852  0.93780  Biso   1.000  C
  H77      1.0000 0.92640  0.61350  0.45140  Biso   1.000  H
  H78      1.0000 0.07360  0.11350  0.04860  Biso   1.000  H
  H79      1.0000 0.07360  0.38650  0.54860  Biso   1.000  H
  H80      1.0000 0.92640  0.88650  0.95140  Biso   1.000  H
  C137     1.0000 0.42380  0.51196  0.51090  Biso   1.000  C
  C138     1.0000 0.57620  0.01196  0.98910  Biso   1.000  C
  C139     1.0000 0.57620  0.48804  0.48910  Biso   1.000  C
  C140     1.0000 0.42380  0.98804  0.01090  Biso   1.000  C
  H81      1.0000 0.35900  0.50520  0.55900  Biso   1.000  H
  H82      1.0000 0.64100  0.00520  0.94100  Biso   1.000  H
  H83      1.0000 0.64100  0.49480  0.44100  Biso   1.000  H
  H84      1.0000 0.35900  0.99480  0.05900  Biso   1.000  H
  H85      1.0000 0.88100  0.52000  0.05300  Biso   1.000  H
  H86      1.0000 0.11900  0.02000  0.44700  Biso   1.000  H
  H87      1.0000 0.11900  0.48000  0.94700  Biso   1.000  H
  H88      1.0000 0.88100  0.98000  0.55300  Biso   1.000  H
  H89      1.0000 0.96800  0.61210  0.86000  Biso   1.000  H
  H90      1.0000 0.03200  0.11210  0.64000  Biso   1.000  H
  H91      1.0000 0.03200  0.38790  0.14000  Biso   1.000  H
  H92      1.0000 0.96800  0.88790  0.36000  Biso   1.000  H
  H93      1.0000 0.86600  0.62960  0.91800  Biso   1.000  H
  H94      1.0000 0.13400  0.12960  0.58200  Biso   1.000  H
  H95      1.0000 0.13400  0.37040  0.08200  Biso   1.000  H
  H96      1.0000 0.86600  0.87040  0.41800  Biso   1.000  H
