data_image0
_cell_length_a       9.6561
_cell_length_b       11.0749
_cell_length_c       11.5921
_cell_angle_alpha    116.137
_cell_angle_beta     97.971
_cell_angle_gamma    103.237

_symmetry_space_group_name_H-M    "P 1"
_symmetry_int_tables_number       1

loop_
  _symmetry_equiv_pos_as_xyz
  'x, y, z'

loop_
  _atom_site_label
  _atom_site_occupancy
  _atom_site_fract_x
  _atom_site_fract_y
  _atom_site_fract_z
  _atom_site_thermal_displace_type
  _atom_site_B_iso_or_equiv
  _atom_site_type_symbol
  Cu1      1.0000 0.01205  0.53091  0.15662  Biso   1.000  Cu
  Cu2      1.0000 0.98795  0.46909  0.84338  Biso   1.000  Cu
  O1       1.0000 0.12100  0.45440  0.02820  Biso   1.000  O
  O2       1.0000 0.87900  0.54560  0.97180  Biso   1.000  O
  O3       1.0000 0.17920  0.26600  0.01780  Biso   1.000  O
  O4       1.0000 0.82080  0.73400  0.98220  Biso   1.000  O
  O5       1.0000 0.16660  0.71960  0.24480  Biso   1.000  O
  O6       1.0000 0.83340  0.28040  0.75520  Biso   1.000  O
  O7       1.0000 0.25140  0.63690  0.37290  Biso   1.000  O
  O8       1.0000 0.74860  0.36310  0.62710  Biso   1.000  O
  N1       1.0000 0.86940  0.34910  0.12920  Biso   1.000  N
  N2       1.0000 0.13060  0.65090  0.87080  Biso   1.000  N
  N3       1.0000 0.87880  0.61650  0.26230  Biso   1.000  N
  N4       1.0000 0.12120  0.38350  0.73770  Biso   1.000  N
  N5       1.0000 0.40480  0.21280  0.24150  Biso   1.000  N
  N6       1.0000 0.59520  0.78720  0.75850  Biso   1.000  N
  N7       1.0000 0.40030  0.43620  0.33410  Biso   1.000  N
  N8       1.0000 0.59970  0.56380  0.66590  Biso   1.000  N
  C1       1.0000 0.88850  0.75220  0.32520  Biso   1.000  C
  C2       1.0000 0.11150  0.24780  0.67480  Biso   1.000  C
  H1       1.0000 0.97050  0.82000  0.33090  Biso   1.000  H
  H2       1.0000 0.02950  0.18000  0.66910  Biso   1.000  H
  C3       1.0000 0.78000  0.79640  0.38310  Biso   1.000  C
  C4       1.0000 0.22000  0.20360  0.61690  Biso   1.000  C
  H3       1.0000 0.79030  0.89260  0.42690  Biso   1.000  H
  H4       1.0000 0.20970  0.10740  0.57310  Biso   1.000  H
  C5       1.0000 0.65870  0.69950  0.37620  Biso   1.000  C
  C6       1.0000 0.34130  0.30050  0.62380  Biso   1.000  C
  H5       1.0000 0.58560  0.72900  0.41410  Biso   1.000  H
  H6       1.0000 0.41440  0.27100  0.58590  Biso   1.000  H
  C7       1.0000 0.64500  0.55470  0.31120  Biso   1.000  C
  C8       1.0000 0.35500  0.44530  0.68880  Biso   1.000  C
  C9       1.0000 0.52960  0.44010  0.29760  Biso   1.000  C
  C10      1.0000 0.47040  0.55990  0.70240  Biso   1.000  C
  C11      1.0000 0.53040  0.30090  0.24050  Biso   1.000  C
  C12      1.0000 0.46960  0.69910  0.75950  Biso   1.000  C
  C13      1.0000 0.64630  0.26250  0.18270  Biso   1.000  C
  C14      1.0000 0.35370  0.73750  0.81730  Biso   1.000  C
  C15      1.0000 0.65310  0.12430  0.11700  Biso   1.000  C
  C16      1.0000 0.34690  0.87570  0.88300  Biso   1.000  C
  H7       1.0000 0.58290  0.04880  0.11370  Biso   1.000  H
  H8       1.0000 0.41710  0.95120  0.88630  Biso   1.000  H
  C17      1.0000 0.76480  0.10200  0.05750  Biso   1.000  C
  C18      1.0000 0.23520  0.89800  0.94250  Biso   1.000  C
  H9       1.0000 0.76960  0.01050  0.01180  Biso   1.000  H
  H10      1.0000 0.23040  0.98950  0.98820  Biso   1.000  H
  C19      1.0000 0.87130  0.21620  0.06550  Biso   1.000  C
  C20      1.0000 0.12870  0.78380  0.93450  Biso   1.000  C
  H11      1.0000 0.94650  0.19890  0.02490  Biso   1.000  H
  H12      1.0000 0.05350  0.80110  0.97510  Biso   1.000  H
  C21      1.0000 0.75790  0.37280  0.18800  Biso   1.000  C
  C22      1.0000 0.24210  0.62720  0.81200  Biso   1.000  C
  C23      1.0000 0.76000  0.51790  0.25570  Biso   1.000  C
  C24      1.0000 0.24000  0.48210  0.74430  Biso   1.000  C
  C25      1.0000 0.32910  0.29740  0.29640  Biso   1.000  C
  C26      1.0000 0.67090  0.70260  0.70360  Biso   1.000  C
  C27      1.0000 0.18350  0.24860  0.31690  Biso   1.000  C
  C28      1.0000 0.81650  0.75140  0.68310  Biso   1.000  C
  C29      1.0000 0.12020  0.34430  0.39520  Biso   1.000  C
  C30      1.0000 0.87980  0.65570  0.60480  Biso   1.000  C
  H13      1.0000 0.16840  0.44160  0.43380  Biso   1.000  H
  H14      1.0000 0.83160  0.55840  0.56620  Biso   1.000  H
  C31      1.0000 0.98580  0.29600  0.41620  Biso   1.000  C
  C32      1.0000 0.01420  0.70400  0.58380  Biso   1.000  C
  H15      1.0000 0.94450  0.36040  0.47010  Biso   1.000  H
  H16      1.0000 0.05550  0.63960  0.52990  Biso   1.000  H
  C33      1.0000 0.91300  0.15110  0.35650  Biso   1.000  C
  C34      1.0000 0.08700  0.84890  0.64350  Biso   1.000  C
  H17      1.0000 0.82260  0.11830  0.37030  Biso   1.000  H
  H18      1.0000 0.17740  0.88170  0.62970  Biso   1.000  H
  C35      1.0000 0.97420  0.05510  0.27660  Biso   1.000  C
  C36      1.0000 0.02580  0.94490  0.72340  Biso   1.000  C
  H19      1.0000 0.92430  0.95790  0.23560  Biso   1.000  H
  H20      1.0000 0.07570  0.04210  0.76440  Biso   1.000  H
  C37      1.0000 0.10960  0.10380  0.25780  Biso   1.000  C
  C38      1.0000 0.89040  0.89620  0.74220  Biso   1.000  C
  H21      1.0000 0.15140  0.03910  0.20510  Biso   1.000  H
  H22      1.0000 0.84860  0.96090  0.79490  Biso   1.000  H
  C39      1.0000 0.20920  0.37990  0.01920  Biso   1.000  C
  C40      1.0000 0.79080  0.62010  0.98080  Biso   1.000  C
  C41      1.0000 0.35970  0.44290  0.00850  Biso   1.000  C
  C42      1.0000 0.64030  0.55710  0.99150  Biso   1.000  C
  C43      1.0000 0.44440  0.35620  0.95930  Biso   1.000  C
  C44      1.0000 0.55560  0.64380  0.04070  Biso   1.000  C
  C45      1.0000 0.41690  0.58710  0.04960  Biso   1.000  C
  C46      1.0000 0.58310  0.41290  0.95040  Biso   1.000  C
  C47      1.0000 0.25850  0.73230  0.34250  Biso   1.000  C
  C48      1.0000 0.74150  0.26770  0.65750  Biso   1.000  C
  C49      1.0000 0.38230  0.87280  0.42450  Biso   1.000  C
  C50      1.0000 0.61770  0.12720  0.57550  Biso   1.000  C
  C51      1.0000 0.42130  0.96500  0.37310  Biso   1.000  C
  C52      1.0000 0.57870  0.03500  0.62690  Biso   1.000  C
  C53      1.0000 0.46130  0.91050  0.55120  Biso   1.000  C
  C54      1.0000 0.53870  0.08950  0.44880  Biso   1.000  C
  H23      1.0000 0.40100  0.25700  0.92400  Biso   1.000  H
  H24      1.0000 0.59900  0.74300  0.07600  Biso   1.000  H
  H25      1.0000 0.43800  0.85300  0.58400  Biso   1.000  H
  H26      1.0000 0.56200  0.14700  0.41600  Biso   1.000  H
  H27      1.0000 0.36800  0.64500  0.07700  Biso   1.000  H
  H28      1.0000 0.63200  0.35500  0.92300  Biso   1.000  H
  H29      1.0000 0.35900  0.49400  0.35300  Biso   1.000  H
  H30      1.0000 0.64100  0.50600  0.64700  Biso   1.000  H
  H31      1.0000 0.37600  0.93500  0.28200  Biso   1.000  H
  H32      1.0000 0.62400  0.06500  0.71800  Biso   1.000  H
