data_image0
_cell_length_a       11.267
_cell_length_b       6.963
_cell_length_c       19.312
_cell_angle_alpha    90
_cell_angle_beta     102.121
_cell_angle_gamma    90

_symmetry_space_group_name_H-M    "P 1"
_symmetry_int_tables_number       1

loop_
  _symmetry_equiv_pos_as_xyz
  'x, y, z'

loop_
  _atom_site_label
  _atom_site_occupancy
  _atom_site_fract_x
  _atom_site_fract_y
  _atom_site_fract_z
  _atom_site_thermal_displace_type
  _atom_site_B_iso_or_equiv
  _atom_site_type_symbol
  Cu1      1.0000 0.98021  0.54489  0.81158  Biso   1.000  Cu
  Cu2      1.0000 0.01979  0.04489  0.68842  Biso   1.000  Cu
  Cu3      1.0000 0.01979  0.45511  0.18842  Biso   1.000  Cu
  Cu4      1.0000 0.98021  0.95511  0.31158  Biso   1.000  Cu
  Br1      1.0000 0.42372  0.53634  0.86414  Biso   1.000  Br
  Br2      1.0000 0.57628  0.03634  0.63586  Biso   1.000  Br
  Br3      1.0000 0.57628  0.46366  0.13586  Biso   1.000  Br
  Br4      1.0000 0.42372  0.96366  0.36414  Biso   1.000  Br
  Cl1      1.0000 0.41391  0.95425  0.10494  Biso   1.000  Cl
  Cl2      1.0000 0.58609  0.45425  0.39506  Biso   1.000  Cl
  Cl3      1.0000 0.58609  0.04575  0.89506  Biso   1.000  Cl
  Cl4      1.0000 0.41391  0.54575  0.60494  Biso   1.000  Cl
  N1       1.0000 0.94067  0.64090  0.89877  Biso   1.000  N
  N2       1.0000 0.05933  0.14090  0.60123  Biso   1.000  N
  N3       1.0000 0.05933  0.35910  0.10123  Biso   1.000  N
  N4       1.0000 0.94067  0.85910  0.39877  Biso   1.000  N
  N5       1.0000 0.79440  0.54380  0.77428  Biso   1.000  N
  N6       1.0000 0.20560  0.04380  0.72572  Biso   1.000  N
  N7       1.0000 0.20560  0.45620  0.22572  Biso   1.000  N
  N8       1.0000 0.79440  0.95620  0.27428  Biso   1.000  N
  N9       1.0000 0.01200  0.42270  0.72472  Biso   1.000  N
  N10      1.0000 0.98800  0.92270  0.77528  Biso   1.000  N
  N11      1.0000 0.98800  0.57730  0.27528  Biso   1.000  N
  N12      1.0000 0.01200  0.07730  0.22472  Biso   1.000  N
  N13      1.0000 0.01370  0.52730  0.67549  Biso   1.000  N
  N14      1.0000 0.98630  0.02730  0.82451  Biso   1.000  N
  N15      1.0000 0.98630  0.47270  0.32451  Biso   1.000  N
  N16      1.0000 0.01370  0.97270  0.17549  Biso   1.000  N
  N17      1.0000 0.01510  0.62320  0.62676  Biso   1.000  N
  N18      1.0000 0.98490  0.12320  0.87324  Biso   1.000  N
  N19      1.0000 0.98490  0.37680  0.37324  Biso   1.000  N
  N20      1.0000 0.01510  0.87680  0.12676  Biso   1.000  N
  O1       1.0000 0.15179  0.54960  0.85135  Biso   1.000  O
  O2       1.0000 0.84821  0.04960  0.64865  Biso   1.000  O
  O3       1.0000 0.84821  0.45040  0.14865  Biso   1.000  O
  O4       1.0000 0.15179  0.95040  0.35135  Biso   1.000  O
  C1       1.0000 0.20560  0.63580  0.90858  Biso   1.000  C
  C2       1.0000 0.79440  0.13580  0.59142  Biso   1.000  C
  C3       1.0000 0.79440  0.36420  0.09142  Biso   1.000  C
  C4       1.0000 0.20560  0.86420  0.40858  Biso   1.000  C
  C5       1.0000 0.33430  0.65130  0.92594  Biso   1.000  C
  C6       1.0000 0.66570  0.15130  0.57406  Biso   1.000  C
  C7       1.0000 0.66570  0.34870  0.07406  Biso   1.000  C
  C8       1.0000 0.33430  0.84870  0.42594  Biso   1.000  C
  C9       1.0000 0.39740  0.74510  0.98427  Biso   1.000  C
  C10      1.0000 0.60260  0.24510  0.51573  Biso   1.000  C
  C11      1.0000 0.60260  0.25490  0.01573  Biso   1.000  C
  C12      1.0000 0.39740  0.75490  0.48427  Biso   1.000  C
  H1       1.0000 0.48170  0.75080  0.99320  Biso   1.000  H
  H2       1.0000 0.51830  0.25080  0.50680  Biso   1.000  H
  H3       1.0000 0.51830  0.24920  0.00680  Biso   1.000  H
  H4       1.0000 0.48170  0.74920  0.49320  Biso   1.000  H
  C13      1.0000 0.33350  0.83230  0.03028  Biso   1.000  C
  C14      1.0000 0.66650  0.33230  0.46972  Biso   1.000  C
  C15      1.0000 0.66650  0.16770  0.96972  Biso   1.000  C
  C16      1.0000 0.33350  0.66770  0.53028  Biso   1.000  C
  C17      1.0000 0.21010  0.82070  0.01791  Biso   1.000  C
  C18      1.0000 0.78990  0.32070  0.48209  Biso   1.000  C
  C19      1.0000 0.78990  0.17930  0.98209  Biso   1.000  C
  C20      1.0000 0.21010  0.67930  0.51791  Biso   1.000  C
  H5       1.0000 0.16860  0.87840  0.04920  Biso   1.000  H
  H6       1.0000 0.83140  0.37840  0.45080  Biso   1.000  H
  H7       1.0000 0.83140  0.12160  0.95080  Biso   1.000  H
  H8       1.0000 0.16860  0.62160  0.54920  Biso   1.000  H
  C21      1.0000 0.14470  0.72250  0.95838  Biso   1.000  C
  C22      1.0000 0.85530  0.22250  0.54162  Biso   1.000  C
  C23      1.0000 0.85530  0.27750  0.04162  Biso   1.000  C
  C24      1.0000 0.14470  0.77750  0.45838  Biso   1.000  C
  C25      1.0000 0.01490  0.71580  0.95074  Biso   1.000  C
  C26      1.0000 0.98510  0.21580  0.54926  Biso   1.000  C
  C27      1.0000 0.98510  0.28420  0.04926  Biso   1.000  C
  C28      1.0000 0.01490  0.78420  0.45074  Biso   1.000  C
  H9       1.0000 0.98250  0.77060  0.98660  Biso   1.000  H
  H10      1.0000 0.01750  0.27060  0.51340  Biso   1.000  H
  H11      1.0000 0.01750  0.22940  0.01340  Biso   1.000  H
  H12      1.0000 0.98250  0.72940  0.48660  Biso   1.000  H
  C29      1.0000 0.80960  0.64900  0.89637  Biso   1.000  C
  C30      1.0000 0.19040  0.14900  0.60363  Biso   1.000  C
  C31      1.0000 0.19040  0.35100  0.10363  Biso   1.000  C
  C32      1.0000 0.80960  0.85100  0.39637  Biso   1.000  C
  H13      1.0000 0.79120  0.75310  0.92580  Biso   1.000  H
  H14      1.0000 0.20880  0.25310  0.57420  Biso   1.000  H
  H15      1.0000 0.20880  0.24690  0.07420  Biso   1.000  H
  H16      1.0000 0.79120  0.74690  0.42580  Biso   1.000  H
  H17      1.0000 0.78210  0.52950  0.91350  Biso   1.000  H
  H18      1.0000 0.21790  0.02950  0.58650  Biso   1.000  H
  H19      1.0000 0.21790  0.47050  0.08650  Biso   1.000  H
  H20      1.0000 0.78210  0.97050  0.41350  Biso   1.000  H
  C33      1.0000 0.74770  0.68180  0.82006  Biso   1.000  C
  C34      1.0000 0.25230  0.18180  0.67994  Biso   1.000  C
  C35      1.0000 0.25230  0.31820  0.17994  Biso   1.000  C
  C36      1.0000 0.74770  0.81820  0.32006  Biso   1.000  C
  H21      1.0000 0.66070  0.66550  0.81460  Biso   1.000  H
  H22      1.0000 0.33930  0.16550  0.68540  Biso   1.000  H
  H23      1.0000 0.33930  0.33450  0.18540  Biso   1.000  H
  H24      1.0000 0.66070  0.83450  0.31460  Biso   1.000  H
  H25      1.0000 0.76290  0.81200  0.80630  Biso   1.000  H
  H26      1.0000 0.23710  0.31200  0.69370  Biso   1.000  H
  H27      1.0000 0.23710  0.18800  0.19370  Biso   1.000  H
  H28      1.0000 0.76290  0.68800  0.30630  Biso   1.000  H
  C37      1.0000 0.74550  0.34800  0.78136  Biso   1.000  C
  C38      1.0000 0.25450  0.84800  0.71864  Biso   1.000  C
  C39      1.0000 0.25450  0.65200  0.21864  Biso   1.000  C
  C40      1.0000 0.74550  0.15200  0.28136  Biso   1.000  C
  H29      1.0000 0.76840  0.30710  0.82980  Biso   1.000  H
  H30      1.0000 0.23160  0.80710  0.67020  Biso   1.000  H
  H31      1.0000 0.23160  0.69290  0.17020  Biso   1.000  H
  H32      1.0000 0.76840  0.19290  0.32980  Biso   1.000  H
  H33      1.0000 0.77810  0.26030  0.75180  Biso   1.000  H
  H34      1.0000 0.22190  0.76030  0.74820  Biso   1.000  H
  H35      1.0000 0.22190  0.73970  0.24820  Biso   1.000  H
  H36      1.0000 0.77810  0.23970  0.25180  Biso   1.000  H
  H37      1.0000 0.65860  0.35030  0.76710  Biso   1.000  H
  H38      1.0000 0.34140  0.85030  0.73290  Biso   1.000  H
  H39      1.0000 0.34140  0.64970  0.23290  Biso   1.000  H
  H40      1.0000 0.65860  0.14970  0.26710  Biso   1.000  H
  C41      1.0000 0.75500  0.60540  0.69948  Biso   1.000  C
  C42      1.0000 0.24500  0.10540  0.80052  Biso   1.000  C
  C43      1.0000 0.24500  0.39460  0.30052  Biso   1.000  C
  C44      1.0000 0.75500  0.89460  0.19948  Biso   1.000  C
  H41      1.0000 0.66820  0.61770  0.68800  Biso   1.000  H
  H42      1.0000 0.33180  0.11770  0.81200  Biso   1.000  H
  H43      1.0000 0.33180  0.38230  0.31200  Biso   1.000  H
  H44      1.0000 0.66820  0.88230  0.18800  Biso   1.000  H
  H45      1.0000 0.77990  0.51140  0.66900  Biso   1.000  H
  H46      1.0000 0.22010  0.01140  0.83100  Biso   1.000  H
  H47      1.0000 0.22010  0.48860  0.33100  Biso   1.000  H
  H48      1.0000 0.77990  0.98860  0.16900  Biso   1.000  H
  H49      1.0000 0.79140  0.72690  0.69300  Biso   1.000  H
  H50      1.0000 0.20860  0.22690  0.80700  Biso   1.000  H
  H51      1.0000 0.20860  0.27310  0.30700  Biso   1.000  H
  H52      1.0000 0.79140  0.77310  0.19300  Biso   1.000  H
