data_image0
_cell_length_a       12.2255
_cell_length_b       10.6123
_cell_length_c       13.6579
_cell_angle_alpha    90
_cell_angle_beta     111.226
_cell_angle_gamma    90

_symmetry_space_group_name_H-M    "P 1"
_symmetry_int_tables_number       1

loop_
  _symmetry_equiv_pos_as_xyz
  'x, y, z'

loop_
  _atom_site_label
  _atom_site_occupancy
  _atom_site_fract_x
  _atom_site_fract_y
  _atom_site_fract_z
  _atom_site_thermal_displace_type
  _atom_site_B_iso_or_equiv
  _atom_site_type_symbol
  Cu1      1.0000 0.79230  0.86763  0.19293  Biso   1.000  Cu
  Cu2      1.0000 0.20770  0.36763  0.30707  Biso   1.000  Cu
  Cu3      1.0000 0.20770  0.13237  0.80707  Biso   1.000  Cu
  Cu4      1.0000 0.79230  0.63237  0.69293  Biso   1.000  Cu
  N1       1.0000 0.86680  0.81310  0.09180  Biso   1.000  N
  N2       1.0000 0.13320  0.31310  0.40820  Biso   1.000  N
  N3       1.0000 0.13320  0.18690  0.90820  Biso   1.000  N
  N4       1.0000 0.86680  0.68690  0.59180  Biso   1.000  N
  N5       1.0000 0.69720  0.92110  0.27550  Biso   1.000  N
  N6       1.0000 0.30280  0.42110  0.22450  Biso   1.000  N
  N7       1.0000 0.30280  0.07890  0.72450  Biso   1.000  N
  N8       1.0000 0.69720  0.57890  0.77550  Biso   1.000  N
  O1       1.0000 0.96820  0.87220  0.34820  Biso   1.000  O
  O2       1.0000 0.03180  0.37220  0.15180  Biso   1.000  O
  O3       1.0000 0.03180  0.12780  0.65180  Biso   1.000  O
  O4       1.0000 0.96820  0.62780  0.84820  Biso   1.000  O
  O5       1.0000 0.77040  0.68600  0.20567  Biso   1.000  O
  O6       1.0000 0.22960  0.18600  0.29433  Biso   1.000  O
  O7       1.0000 0.22960  0.31400  0.79433  Biso   1.000  O
  O8       1.0000 0.77040  0.81400  0.70567  Biso   1.000  O
  O9       1.0000 0.83650  0.03840  0.16600  Biso   1.000  O
  O10      1.0000 0.16350  0.53840  0.33400  Biso   1.000  O
  O11      1.0000 0.16350  0.96160  0.83400  Biso   1.000  O
  O12      1.0000 0.83650  0.46160  0.66600  Biso   1.000  O
  O13      1.0000 0.95190  0.13560  0.09610  Biso   1.000  O
  O14      1.0000 0.04810  0.63560  0.40390  Biso   1.000  O
  O15      1.0000 0.04810  0.86440  0.90390  Biso   1.000  O
  O16      1.0000 0.95190  0.36440  0.59610  Biso   1.000  O
  O17      1.0000 0.62330  0.90230  0.00900  Biso   1.000  O
  O18      1.0000 0.37670  0.40230  0.49100  Biso   1.000  O
  O19      1.0000 0.37670  0.09770  0.99100  Biso   1.000  O
  O20      1.0000 0.62330  0.59770  0.50900  Biso   1.000  O
  O21      1.0000 0.84510  0.50290  0.18050  Biso   1.000  O
  O22      1.0000 0.15490  0.00290  0.31950  Biso   1.000  O
  O23      1.0000 0.15490  0.49710  0.81950  Biso   1.000  O
  O24      1.0000 0.84510  0.99710  0.68050  Biso   1.000  O
  O25      1.0000 0.71940  0.27530  0.17070  Biso   1.000  O
  O26      1.0000 0.28060  0.77530  0.32930  Biso   1.000  O
  O27      1.0000 0.28060  0.72470  0.82930  Biso   1.000  O
  O28      1.0000 0.71940  0.22470  0.67070  Biso   1.000  O
  C1       1.0000 0.83870  0.61890  0.17550  Biso   1.000  C
  C2       1.0000 0.16130  0.11890  0.32450  Biso   1.000  C
  C3       1.0000 0.16130  0.38110  0.82450  Biso   1.000  C
  C4       1.0000 0.83870  0.88110  0.67550  Biso   1.000  C
  C5       1.0000 0.91970  0.68970  0.13240  Biso   1.000  C
  C6       1.0000 0.08030  0.18970  0.36760  Biso   1.000  C
  C7       1.0000 0.08030  0.31030  0.86760  Biso   1.000  C
  C8       1.0000 0.91970  0.81030  0.63240  Biso   1.000  C
  H1       1.0000 0.99570  0.70190  0.18750  Biso   1.000  H
  H2       1.0000 0.00430  0.20190  0.31250  Biso   1.000  H
  H3       1.0000 0.00430  0.29810  0.81250  Biso   1.000  H
  H4       1.0000 0.99570  0.79810  0.68750  Biso   1.000  H
  H5       1.0000 0.93080  0.64140  0.07640  Biso   1.000  H
  H6       1.0000 0.06920  0.14140  0.42360  Biso   1.000  H
  H7       1.0000 0.06920  0.35860  0.92360  Biso   1.000  H
  H8       1.0000 0.93080  0.85860  0.57640  Biso   1.000  H
  C9       1.0000 0.95210  0.91250  0.09490  Biso   1.000  C
  C10      1.0000 0.04790  0.41250  0.40510  Biso   1.000  C
  C11      1.0000 0.04790  0.08750  0.90510  Biso   1.000  C
  C12      1.0000 0.95210  0.58750  0.59490  Biso   1.000  C
  H9       1.0000 0.96200  0.91660  0.02770  Biso   1.000  H
  H10      1.0000 0.03800  0.41660  0.47230  Biso   1.000  H
  H11      1.0000 0.03800  0.08340  0.97230  Biso   1.000  H
  H12      1.0000 0.96200  0.58340  0.52770  Biso   1.000  H
  H13      1.0000 0.02760  0.89230  0.14830  Biso   1.000  H
  H14      1.0000 0.97240  0.39230  0.35170  Biso   1.000  H
  H15      1.0000 0.97240  0.10770  0.85170  Biso   1.000  H
  H16      1.0000 0.02760  0.60770  0.64830  Biso   1.000  H
  C13      1.0000 0.91030  0.03940  0.11930  Biso   1.000  C
  C14      1.0000 0.08970  0.53940  0.38070  Biso   1.000  C
  C15      1.0000 0.08970  0.96060  0.88070  Biso   1.000  C
  C16      1.0000 0.91030  0.46060  0.61930  Biso   1.000  C
  C17      1.0000 0.77910  0.79430  0.98440  Biso   1.000  C
  C18      1.0000 0.22090  0.29430  0.51560  Biso   1.000  C
  C19      1.0000 0.22090  0.20570  0.01560  Biso   1.000  C
  C20      1.0000 0.77910  0.70570  0.48440  Biso   1.000  C
  H17      1.0000 0.73630  0.71710  0.98330  Biso   1.000  H
  H18      1.0000 0.26370  0.21710  0.51670  Biso   1.000  H
  H19      1.0000 0.26370  0.28290  0.01670  Biso   1.000  H
  H20      1.0000 0.73630  0.78290  0.48330  Biso   1.000  H
  H21      1.0000 0.82020  0.78400  0.93600  Biso   1.000  H
  H22      1.0000 0.17980  0.28400  0.56400  Biso   1.000  H
  H23      1.0000 0.17980  0.21600  0.06400  Biso   1.000  H
  H24      1.0000 0.82020  0.71600  0.43600  Biso   1.000  H
  C21      1.0000 0.69330  0.90050  0.94690  Biso   1.000  C
  C22      1.0000 0.30670  0.40050  0.55310  Biso   1.000  C
  C23      1.0000 0.30670  0.09950  0.05310  Biso   1.000  C
  C24      1.0000 0.69330  0.59950  0.44690  Biso   1.000  C
  H25      1.0000 0.73470  0.97990  0.95340  Biso   1.000  H
  H26      1.0000 0.26530  0.47990  0.54660  Biso   1.000  H
  H27      1.0000 0.26530  0.02010  0.04660  Biso   1.000  H
  H28      1.0000 0.73470  0.52010  0.45340  Biso   1.000  H
  H29      1.0000 0.64460  0.88820  0.87360  Biso   1.000  H
  H30      1.0000 0.35540  0.38820  0.62640  Biso   1.000  H
  H31      1.0000 0.35540  0.11180  0.12640  Biso   1.000  H
  H32      1.0000 0.64460  0.61180  0.37360  Biso   1.000  H
  C25      1.0000 0.53980  0.00420  0.97560  Biso   1.000  C
  C26      1.0000 0.46020  0.50420  0.52440  Biso   1.000  C
  C27      1.0000 0.46020  0.99580  0.02440  Biso   1.000  C
  C28      1.0000 0.53980  0.49580  0.47560  Biso   1.000  C
  H33      1.0000 0.58070  0.08420  0.99260  Biso   1.000  H
  H34      1.0000 0.41930  0.58420  0.50740  Biso   1.000  H
  H35      1.0000 0.41930  0.91580  0.00740  Biso   1.000  H
  H36      1.0000 0.58070  0.41580  0.49260  Biso   1.000  H
  H37      1.0000 0.49920  0.00040  0.90010  Biso   1.000  H
  H38      1.0000 0.50080  0.50040  0.59990  Biso   1.000  H
  H39      1.0000 0.50080  0.99960  0.09990  Biso   1.000  H
  H40      1.0000 0.49920  0.49960  0.40010  Biso   1.000  H
  C29      1.0000 0.59840  0.86250  0.26720  Biso   1.000  C
  C30      1.0000 0.40160  0.36250  0.23280  Biso   1.000  C
  C31      1.0000 0.40160  0.13750  0.73280  Biso   1.000  C
  C32      1.0000 0.59840  0.63750  0.76720  Biso   1.000  C
  H41      1.0000 0.57530  0.79360  0.22240  Biso   1.000  H
  H42      1.0000 0.42470  0.29360  0.27760  Biso   1.000  H
  H43      1.0000 0.42470  0.20640  0.77760  Biso   1.000  H
  H44      1.0000 0.57530  0.70640  0.72240  Biso   1.000  H
  C33      1.0000 0.52840  0.89860  0.32170  Biso   1.000  C
  C34      1.0000 0.47160  0.39860  0.17830  Biso   1.000  C
  C35      1.0000 0.47160  0.10140  0.67830  Biso   1.000  C
  C36      1.0000 0.52840  0.60140  0.82170  Biso   1.000  C
  H45      1.0000 0.45960  0.85500  0.31320  Biso   1.000  H
  H46      1.0000 0.54040  0.35500  0.18680  Biso   1.000  H
  H47      1.0000 0.54040  0.14500  0.68680  Biso   1.000  H
  H48      1.0000 0.45960  0.64500  0.81320  Biso   1.000  H
  C37      1.0000 0.56170  0.00110  0.38940  Biso   1.000  C
  C38      1.0000 0.43830  0.50110  0.11060  Biso   1.000  C
  C39      1.0000 0.43830  0.99890  0.61060  Biso   1.000  C
  C40      1.0000 0.56170  0.49890  0.88940  Biso   1.000  C
  C41      1.0000 0.66480  0.06150  0.39840  Biso   1.000  C
  C42      1.0000 0.33520  0.56150  0.10160  Biso   1.000  C
  C43      1.0000 0.33520  0.93850  0.60160  Biso   1.000  C
  C44      1.0000 0.66480  0.43850  0.89840  Biso   1.000  C
  H49      1.0000 0.69040  0.13030  0.44310  Biso   1.000  H
  H50      1.0000 0.30960  0.63030  0.05690  Biso   1.000  H
  H51      1.0000 0.30960  0.86970  0.55690  Biso   1.000  H
  H52      1.0000 0.69040  0.36970  0.94310  Biso   1.000  H
  C45      1.0000 0.72970  0.01950  0.34060  Biso   1.000  C
  C46      1.0000 0.27030  0.51950  0.15940  Biso   1.000  C
  C47      1.0000 0.27030  0.98050  0.65940  Biso   1.000  C
  C48      1.0000 0.72970  0.48050  0.84060  Biso   1.000  C
  H53      1.0000 0.79890  0.06140  0.34730  Biso   1.000  H
  H54      1.0000 0.20110  0.56140  0.15270  Biso   1.000  H
  H55      1.0000 0.20110  0.93860  0.65270  Biso   1.000  H
  H56      1.0000 0.79890  0.43860  0.84730  Biso   1.000  H
  C49      1.0000 0.48850  0.04220  0.45250  Biso   1.000  C
  C50      1.0000 0.51150  0.54220  0.04750  Biso   1.000  C
  C51      1.0000 0.51150  0.95780  0.54750  Biso   1.000  C
  C52      1.0000 0.48850  0.45780  0.95250  Biso   1.000  C
  H57      1.0000 0.40590  0.03860  0.40860  Biso   1.000  H
  H58      1.0000 0.59410  0.53860  0.09140  Biso   1.000  H
  H59      1.0000 0.59410  0.96140  0.59140  Biso   1.000  H
  H60      1.0000 0.40590  0.46140  0.90860  Biso   1.000  H
  H61      1.0000 0.50750  0.12860  0.47540  Biso   1.000  H
  H62      1.0000 0.49250  0.62860  0.02460  Biso   1.000  H
  H63      1.0000 0.49250  0.87140  0.52460  Biso   1.000  H
  H64      1.0000 0.50750  0.37140  0.97540  Biso   1.000  H
  H65      1.0000 0.99900  0.80600  0.37500  Biso   1.000  H
  H66      1.0000 0.00100  0.30600  0.12500  Biso   1.000  H
  H67      1.0000 0.00100  0.19400  0.62500  Biso   1.000  H
  H68      1.0000 0.99900  0.69400  0.87500  Biso   1.000  H
  H69      1.0000 0.02200  0.91100  0.34000  Biso   1.000  H
  H70      1.0000 0.97800  0.41100  0.16000  Biso   1.000  H
  H71      1.0000 0.97800  0.08900  0.66000  Biso   1.000  H
  H72      1.0000 0.02200  0.58900  0.84000  Biso   1.000  H
  H73      1.0000 0.76400  0.24400  0.14500  Biso   1.000  H
  H74      1.0000 0.23600  0.74400  0.35500  Biso   1.000  H
  H75      1.0000 0.23600  0.75600  0.85500  Biso   1.000  H
  H76      1.0000 0.76400  0.25600  0.64500  Biso   1.000  H
  H77      1.0000 0.76700  0.28000  0.23070  Biso   1.000  H
  H78      1.0000 0.23300  0.78000  0.26930  Biso   1.000  H
  H79      1.0000 0.23300  0.72000  0.76930  Biso   1.000  H
  H80      1.0000 0.76700  0.22000  0.73070  Biso   1.000  H
