data_image0
_cell_length_a       17.6905
_cell_length_b       9.7523
_cell_length_c       19.9933
_cell_angle_alpha    90
_cell_angle_beta     108.796
_cell_angle_gamma    90

_symmetry_space_group_name_H-M    "P 1"
_symmetry_int_tables_number       1

loop_
  _symmetry_equiv_pos_as_xyz
  'x, y, z'

loop_
  _atom_site_label
  _atom_site_occupancy
  _atom_site_fract_x
  _atom_site_fract_y
  _atom_site_fract_z
  _atom_site_thermal_displace_type
  _atom_site_B_iso_or_equiv
  _atom_site_type_symbol
  Cu1      1.0000 0.29570  0.28492  0.15471  Biso   1.000  Cu
  Cu2      1.0000 0.70430  0.78492  0.34529  Biso   1.000  Cu
  Cu3      1.0000 0.70430  0.71508  0.84529  Biso   1.000  Cu
  Cu4      1.0000 0.29570  0.21508  0.65471  Biso   1.000  Cu
  Cu5      1.0000 0.27584  0.73120  0.47919  Biso   1.000  Cu
  Cu6      1.0000 0.72416  0.23120  0.02081  Biso   1.000  Cu
  Cu7      1.0000 0.72416  0.26880  0.52081  Biso   1.000  Cu
  Cu8      1.0000 0.27584  0.76880  0.97919  Biso   1.000  Cu
  N1       1.0000 0.40222  0.20690  0.21236  Biso   1.000  N
  N2       1.0000 0.59778  0.70690  0.28764  Biso   1.000  N
  N3       1.0000 0.59778  0.79310  0.78764  Biso   1.000  N
  N4       1.0000 0.40222  0.29310  0.71236  Biso   1.000  N
  N5       1.0000 0.37063  0.80280  0.45761  Biso   1.000  N
  N6       1.0000 0.62937  0.30280  0.04239  Biso   1.000  N
  N7       1.0000 0.62937  0.19720  0.54239  Biso   1.000  N
  N8       1.0000 0.37063  0.69720  0.95761  Biso   1.000  N
  N9       1.0000 0.19039  0.36770  0.10009  Biso   1.000  N
  N10      1.0000 0.80961  0.86770  0.39991  Biso   1.000  N
  N11      1.0000 0.80961  0.63230  0.89991  Biso   1.000  N
  N12      1.0000 0.19039  0.13230  0.60009  Biso   1.000  N
  N13      1.0000 0.17556  0.65430  0.48637  Biso   1.000  N
  N14      1.0000 0.82444  0.15430  0.01363  Biso   1.000  N
  N15      1.0000 0.82444  0.34570  0.51363  Biso   1.000  N
  N16      1.0000 0.17556  0.84570  0.98637  Biso   1.000  N
  O1       1.0000 0.25288  0.11230  0.17946  Biso   1.000  O
  O2       1.0000 0.74712  0.61230  0.32054  Biso   1.000  O
  O3       1.0000 0.74712  0.88770  0.82054  Biso   1.000  O
  O4       1.0000 0.25288  0.38770  0.67946  Biso   1.000  O
  O5       1.0000 0.29113  0.89860  0.21354  Biso   1.000  O
  O6       1.0000 0.70887  0.39860  0.28646  Biso   1.000  O
  O7       1.0000 0.70887  0.10140  0.78646  Biso   1.000  O
  O8       1.0000 0.29113  0.60140  0.71354  Biso   1.000  O
  O9       1.0000 0.36243  0.43470  0.13912  Biso   1.000  O
  O10      1.0000 0.63757  0.93470  0.36088  Biso   1.000  O
  O11      1.0000 0.63757  0.56530  0.86088  Biso   1.000  O
  O12      1.0000 0.36243  0.06530  0.63912  Biso   1.000  O
  O13      1.0000 0.48221  0.46660  0.12804  Biso   1.000  O
  O14      1.0000 0.51779  0.96660  0.37196  Biso   1.000  O
  O15      1.0000 0.51779  0.53340  0.87196  Biso   1.000  O
  O16      1.0000 0.48221  0.03340  0.62804  Biso   1.000  O
  O17      1.0000 0.30393  0.35960  0.27864  Biso   1.000  O
  O18      1.0000 0.69607  0.85960  0.22136  Biso   1.000  O
  O19      1.0000 0.69607  0.64040  0.72136  Biso   1.000  O
  O20      1.0000 0.30393  0.14040  0.77864  Biso   1.000  O
  O21      1.0000 0.26490  0.59410  0.36359  Biso   1.000  O
  O22      1.0000 0.73510  0.09410  0.13641  Biso   1.000  O
  O23      1.0000 0.73510  0.40590  0.63641  Biso   1.000  O
  O24      1.0000 0.26490  0.90590  0.86359  Biso   1.000  O
  O25      1.0000 0.34474  0.57660  0.52192  Biso   1.000  O
  O26      1.0000 0.65526  0.07660  0.97808  Biso   1.000  O
  O27      1.0000 0.65526  0.42340  0.47808  Biso   1.000  O
  O28      1.0000 0.34474  0.92340  0.02192  Biso   1.000  O
  O29      1.0000 0.47343  0.53120  0.57557  Biso   1.000  O
  O30      1.0000 0.52657  0.03120  0.92443  Biso   1.000  O
  O31      1.0000 0.52657  0.46880  0.42443  Biso   1.000  O
  O32      1.0000 0.47343  0.96880  0.07557  Biso   1.000  O
  O33      1.0000 0.22971  0.90970  0.44508  Biso   1.000  O
  O34      1.0000 0.77029  0.40970  0.05492  Biso   1.000  O
  O35      1.0000 0.77029  0.09030  0.55492  Biso   1.000  O
  O36      1.0000 0.22971  0.59030  0.94508  Biso   1.000  O
  O37      1.0000 0.26708  0.12480  0.43657  Biso   1.000  O
  O38      1.0000 0.73292  0.62480  0.06343  Biso   1.000  O
  O39      1.0000 0.73292  0.87520  0.56343  Biso   1.000  O
  O40      1.0000 0.26708  0.37520  0.93657  Biso   1.000  O
  O41      1.0000 0.30570  0.18520  0.04965  Biso   1.000  O
  O42      1.0000 0.69430  0.68520  0.45035  Biso   1.000  O
  O43      1.0000 0.69430  0.81480  0.95035  Biso   1.000  O
  O44      1.0000 0.30570  0.31480  0.54965  Biso   1.000  O
  O45      1.0000 0.32980  0.79750  0.60990  Biso   1.000  O
  O46      1.0000 0.67020  0.29750  0.89010  Biso   1.000  O
  O47      1.0000 0.67020  0.20250  0.39010  Biso   1.000  O
  O48      1.0000 0.32980  0.70250  0.10990  Biso   1.000  O
  O49      1.0000 0.08660  0.02780  0.34370  Biso   1.000  O
  O50      1.0000 0.91340  0.52780  0.15630  Biso   1.000  O
  O51      1.0000 0.91340  0.97220  0.65630  Biso   1.000  O
  O52      1.0000 0.08660  0.47220  0.84370  Biso   1.000  O
  O53      1.0000 0.16560  0.74040  0.22930  Biso   1.000  O
  O54      1.0000 0.83440  0.24040  0.27070  Biso   1.000  O
  O55      1.0000 0.83440  0.25960  0.77070  Biso   1.000  O
  O56      1.0000 0.16560  0.75960  0.72930  Biso   1.000  O
  O57      1.0000 0.04490  0.12750  0.72770  Biso   1.000  O
  O58      1.0000 0.95510  0.62750  0.77230  Biso   1.000  O
  O59      1.0000 0.95510  0.87250  0.27230  Biso   1.000  O
  O60      1.0000 0.04490  0.37250  0.22770  Biso   1.000  O
  O61      1.0000 0.99970  0.22450  0.83660  Biso   1.000  O
  O62      1.0000 0.00030  0.72450  0.66340  Biso   1.000  O
  O63      1.0000 0.00030  0.77550  0.16340  Biso   1.000  O
  O64      1.0000 0.99970  0.27550  0.33660  Biso   1.000  O
  O65      1.0000 0.10880  0.10860  0.21523  Biso   1.000  O
  O66      1.0000 0.89120  0.60860  0.28477  Biso   1.000  O
  O67      1.0000 0.89120  0.89140  0.78477  Biso   1.000  O
  O68      1.0000 0.10880  0.39140  0.71523  Biso   1.000  O
  C1       1.0000 0.30576  0.01840  0.20193  Biso   1.000  C
  C2       1.0000 0.69424  0.51840  0.29807  Biso   1.000  C
  C3       1.0000 0.69424  0.98160  0.79807  Biso   1.000  C
  C4       1.0000 0.30576  0.48160  0.70193  Biso   1.000  C
  C5       1.0000 0.39143  0.05630  0.21158  Biso   1.000  C
  C6       1.0000 0.60857  0.55630  0.28842  Biso   1.000  C
  C7       1.0000 0.60857  0.94370  0.78842  Biso   1.000  C
  C8       1.0000 0.39143  0.44370  0.71158  Biso   1.000  C
  H1       1.0000 0.42580  0.01800  0.25570  Biso   1.000  H
  H2       1.0000 0.57420  0.51800  0.24430  Biso   1.000  H
  H3       1.0000 0.57420  0.98200  0.74430  Biso   1.000  H
  H4       1.0000 0.42580  0.48200  0.75570  Biso   1.000  H
  H5       1.0000 0.40700  0.01700  0.17340  Biso   1.000  H
  H6       1.0000 0.59300  0.51700  0.32660  Biso   1.000  H
  H7       1.0000 0.59300  0.98300  0.82660  Biso   1.000  H
  H8       1.0000 0.40700  0.48300  0.67340  Biso   1.000  H
  C9       1.0000 0.43428  0.39710  0.14546  Biso   1.000  C
  C10      1.0000 0.56572  0.89710  0.35454  Biso   1.000  C
  C11      1.0000 0.56572  0.60290  0.85454  Biso   1.000  C
  C12      1.0000 0.43428  0.10290  0.64546  Biso   1.000  C
  C13      1.0000 0.45762  0.25400  0.17570  Biso   1.000  C
  C14      1.0000 0.54238  0.75400  0.32430  Biso   1.000  C
  C15      1.0000 0.54238  0.74600  0.82430  Biso   1.000  C
  C16      1.0000 0.45762  0.24600  0.67570  Biso   1.000  C
  H9       1.0000 0.45620  0.19090  0.13780  Biso   1.000  H
  H10      1.0000 0.54380  0.69090  0.36220  Biso   1.000  H
  H11      1.0000 0.54380  0.80910  0.86220  Biso   1.000  H
  H12      1.0000 0.45620  0.30910  0.63780  Biso   1.000  H
  H13      1.0000 0.51160  0.25560  0.20860  Biso   1.000  H
  H14      1.0000 0.48840  0.75560  0.29140  Biso   1.000  H
  H15      1.0000 0.48840  0.74440  0.79140  Biso   1.000  H
  H16      1.0000 0.51160  0.24440  0.70860  Biso   1.000  H
  C17      1.0000 0.42836  0.26380  0.28537  Biso   1.000  C
  C18      1.0000 0.57164  0.76380  0.21463  Biso   1.000  C
  C19      1.0000 0.57164  0.73620  0.71463  Biso   1.000  C
  C20      1.0000 0.42836  0.23620  0.78537  Biso   1.000  C
  H17      1.0000 0.44780  0.35650  0.28410  Biso   1.000  H
  H18      1.0000 0.55220  0.85650  0.21590  Biso   1.000  H
  H19      1.0000 0.55220  0.64350  0.71590  Biso   1.000  H
  H20      1.0000 0.44780  0.14350  0.78410  Biso   1.000  H
  H21      1.0000 0.47250  0.20920  0.31460  Biso   1.000  H
  H22      1.0000 0.52750  0.70920  0.18540  Biso   1.000  H
  H23      1.0000 0.52750  0.79080  0.68540  Biso   1.000  H
  H24      1.0000 0.47250  0.29080  0.81460  Biso   1.000  H
  C21      1.0000 0.36412  0.26650  0.31873  Biso   1.000  C
  C22      1.0000 0.63588  0.76650  0.18127  Biso   1.000  C
  C23      1.0000 0.63588  0.73350  0.68127  Biso   1.000  C
  C24      1.0000 0.36412  0.23350  0.81873  Biso   1.000  C
  H25      1.0000 0.34170  0.17550  0.31820  Biso   1.000  H
  H26      1.0000 0.65830  0.67550  0.18180  Biso   1.000  H
  H27      1.0000 0.65830  0.82450  0.68180  Biso   1.000  H
  H28      1.0000 0.34170  0.32450  0.81820  Biso   1.000  H
  H29      1.0000 0.38550  0.29700  0.36740  Biso   1.000  H
  H30      1.0000 0.61450  0.79700  0.13260  Biso   1.000  H
  H31      1.0000 0.61450  0.70300  0.63260  Biso   1.000  H
  H32      1.0000 0.38550  0.20300  0.86740  Biso   1.000  H
  C25      1.0000 0.23666  0.36910  0.30363  Biso   1.000  C
  C26      1.0000 0.76334  0.86910  0.19637  Biso   1.000  C
  C27      1.0000 0.76334  0.63090  0.69637  Biso   1.000  C
  C28      1.0000 0.23666  0.13090  0.80363  Biso   1.000  C
  H33      1.0000 0.21990  0.27720  0.31100  Biso   1.000  H
  H34      1.0000 0.78010  0.77720  0.18900  Biso   1.000  H
  H35      1.0000 0.78010  0.72280  0.68900  Biso   1.000  H
  H36      1.0000 0.21990  0.22280  0.81100  Biso   1.000  H
  H37      1.0000 0.19280  0.41230  0.26750  Biso   1.000  H
  H38      1.0000 0.80720  0.91230  0.23250  Biso   1.000  H
  H39      1.0000 0.80720  0.58770  0.73250  Biso   1.000  H
  H40      1.0000 0.19280  0.08770  0.76750  Biso   1.000  H
  C29      1.0000 0.25310  0.44860  0.37103  Biso   1.000  C
  C30      1.0000 0.74690  0.94860  0.12897  Biso   1.000  C
  C31      1.0000 0.74690  0.55140  0.62897  Biso   1.000  C
  C32      1.0000 0.25310  0.05140  0.87103  Biso   1.000  C
  H41      1.0000 0.20870  0.43620  0.38890  Biso   1.000  H
  H42      1.0000 0.79130  0.93620  0.11110  Biso   1.000  H
  H43      1.0000 0.79130  0.56380  0.61110  Biso   1.000  H
  H44      1.0000 0.20870  0.06380  0.88890  Biso   1.000  H
  H45      1.0000 0.30040  0.41130  0.40580  Biso   1.000  H
  H46      1.0000 0.69960  0.91130  0.09420  Biso   1.000  H
  H47      1.0000 0.69960  0.58870  0.59420  Biso   1.000  H
  H48      1.0000 0.30040  0.08870  0.90580  Biso   1.000  H
  C33      1.0000 0.34292  0.62780  0.36056  Biso   1.000  C
  C34      1.0000 0.65708  0.12780  0.13944  Biso   1.000  C
  C35      1.0000 0.65708  0.37220  0.63944  Biso   1.000  C
  C36      1.0000 0.34292  0.87220  0.86056  Biso   1.000  C
  H49      1.0000 0.34460  0.61390  0.31300  Biso   1.000  H
  H50      1.0000 0.65540  0.11390  0.18700  Biso   1.000  H
  H51      1.0000 0.65540  0.38610  0.68700  Biso   1.000  H
  H52      1.0000 0.34460  0.88610  0.81300  Biso   1.000  H
  H53      1.0000 0.38280  0.56920  0.39240  Biso   1.000  H
  H54      1.0000 0.61720  0.06920  0.10760  Biso   1.000  H
  H55      1.0000 0.61720  0.43080  0.60760  Biso   1.000  H
  H56      1.0000 0.38280  0.93080  0.89240  Biso   1.000  H
  C37      1.0000 0.35983  0.77460  0.38157  Biso   1.000  C
  C38      1.0000 0.64017  0.27460  0.11843  Biso   1.000  C
  C39      1.0000 0.64017  0.22540  0.61843  Biso   1.000  C
  C40      1.0000 0.35983  0.72540  0.88157  Biso   1.000  C
  H57      1.0000 0.31610  0.83040  0.35260  Biso   1.000  H
  H58      1.0000 0.68390  0.33040  0.14740  Biso   1.000  H
  H59      1.0000 0.68390  0.16960  0.64740  Biso   1.000  H
  H60      1.0000 0.31610  0.66960  0.85260  Biso   1.000  H
  H61      1.0000 0.40780  0.80250  0.37170  Biso   1.000  H
  H62      1.0000 0.59220  0.30250  0.12830  Biso   1.000  H
  H63      1.0000 0.59220  0.19750  0.62830  Biso   1.000  H
  H64      1.0000 0.40780  0.69750  0.87170  Biso   1.000  H
  C41      1.0000 0.28230  0.00210  0.44781  Biso   1.000  C
  C42      1.0000 0.71770  0.50210  0.05219  Biso   1.000  C
  C43      1.0000 0.71770  0.99790  0.55219  Biso   1.000  C
  C44      1.0000 0.28230  0.49790  0.94781  Biso   1.000  C
  C45      1.0000 0.36805  0.95340  0.46754  Biso   1.000  C
  C46      1.0000 0.63195  0.45340  0.03246  Biso   1.000  C
  C47      1.0000 0.63195  0.04660  0.53246  Biso   1.000  C
  C48      1.0000 0.36805  0.54660  0.96754  Biso   1.000  C
  H65      1.0000 0.39450  0.99940  0.43820  Biso   1.000  H
  H66      1.0000 0.60550  0.49940  0.06180  Biso   1.000  H
  H67      1.0000 0.60550  0.00060  0.56180  Biso   1.000  H
  H68      1.0000 0.39450  0.50060  0.93820  Biso   1.000  H
  H69      1.0000 0.39620  0.97640  0.51650  Biso   1.000  H
  H70      1.0000 0.60380  0.47640  0.98350  Biso   1.000  H
  H71      1.0000 0.60380  0.02360  0.48350  Biso   1.000  H
  H72      1.0000 0.39620  0.52360  0.01650  Biso   1.000  H
  C49      1.0000 0.41982  0.60370  0.53756  Biso   1.000  C
  C50      1.0000 0.58018  0.10370  0.96244  Biso   1.000  C
  C51      1.0000 0.58018  0.39630  0.46244  Biso   1.000  C
  C52      1.0000 0.41982  0.89630  0.03756  Biso   1.000  C
  C53      1.0000 0.44159  0.73450  0.50730  Biso   1.000  C
  C54      1.0000 0.55841  0.23450  0.99270  Biso   1.000  C
  C55      1.0000 0.55841  0.26550  0.49270  Biso   1.000  C
  C56      1.0000 0.44159  0.76550  0.00730  Biso   1.000  C
  H73      1.0000 0.46740  0.79700  0.54560  Biso   1.000  H
  H74      1.0000 0.53260  0.29700  0.95440  Biso   1.000  H
  H75      1.0000 0.53260  0.20300  0.45440  Biso   1.000  H
  H76      1.0000 0.46740  0.70300  0.04560  Biso   1.000  H
  H77      1.0000 0.47940  0.71340  0.48280  Biso   1.000  H
  H78      1.0000 0.52060  0.21340  0.01720  Biso   1.000  H
  H79      1.0000 0.52060  0.28660  0.51720  Biso   1.000  H
  H80      1.0000 0.47940  0.78660  0.98280  Biso   1.000  H
  C57      1.0000 0.16540  0.48900  0.11390  Biso   1.000  C
  C58      1.0000 0.83460  0.98900  0.38610  Biso   1.000  C
  C59      1.0000 0.83460  0.51100  0.88610  Biso   1.000  C
  C60      1.0000 0.16540  0.01100  0.61390  Biso   1.000  C
  H81      1.0000 0.19910  0.54010  0.15090  Biso   1.000  H
  H82      1.0000 0.80090  0.04010  0.34910  Biso   1.000  H
  H83      1.0000 0.80090  0.45990  0.84910  Biso   1.000  H
  H84      1.0000 0.19910  0.95990  0.65090  Biso   1.000  H
  C61      1.0000 0.09210  0.54360  0.07640  Biso   1.000  C
  C62      1.0000 0.90790  0.04360  0.42360  Biso   1.000  C
  C63      1.0000 0.90790  0.45640  0.92360  Biso   1.000  C
  C64      1.0000 0.09210  0.95640  0.57640  Biso   1.000  C
  H85      1.0000 0.07770  0.62950  0.08860  Biso   1.000  H
  H86      1.0000 0.92230  0.12950  0.41140  Biso   1.000  H
  H87      1.0000 0.92230  0.37050  0.91140  Biso   1.000  H
  H88      1.0000 0.07770  0.87050  0.58860  Biso   1.000  H
  C65      1.0000 0.04002  0.47230  0.02110  Biso   1.000  C
  C66      1.0000 0.95998  0.97230  0.47890  Biso   1.000  C
  C67      1.0000 0.95998  0.52770  0.97890  Biso   1.000  C
  C68      1.0000 0.04002  0.02770  0.52110  Biso   1.000  C
  C69      1.0000 0.06780  0.34790  0.00540  Biso   1.000  C
  C70      1.0000 0.93220  0.84790  0.49460  Biso   1.000  C
  C71      1.0000 0.93220  0.65210  0.99460  Biso   1.000  C
  C72      1.0000 0.06780  0.15210  0.50540  Biso   1.000  C
  H89      1.0000 0.03610  0.29630  0.96760  Biso   1.000  H
  H90      1.0000 0.96390  0.79630  0.53240  Biso   1.000  H
  H91      1.0000 0.96390  0.70370  0.03240  Biso   1.000  H
  H92      1.0000 0.03610  0.20370  0.46760  Biso   1.000  H
  C73      1.0000 0.14150  0.29970  0.04490  Biso   1.000  C
  C74      1.0000 0.85850  0.79970  0.45510  Biso   1.000  C
  C75      1.0000 0.85850  0.70030  0.95510  Biso   1.000  C
  C76      1.0000 0.14150  0.20030  0.54490  Biso   1.000  C
  H93      1.0000 0.15830  0.21580  0.03270  Biso   1.000  H
  H94      1.0000 0.84170  0.71580  0.46730  Biso   1.000  H
  H95      1.0000 0.84170  0.78420  0.96730  Biso   1.000  H
  H96      1.0000 0.15830  0.28420  0.53270  Biso   1.000  H
  C77      1.0000 0.11052  0.64030  0.43038  Biso   1.000  C
  C78      1.0000 0.88948  0.14030  0.06962  Biso   1.000  C
  C79      1.0000 0.88948  0.35970  0.56962  Biso   1.000  C
  C80      1.0000 0.11052  0.85970  0.93038  Biso   1.000  C
  H97      1.0000 0.11190  0.67250  0.38700  Biso   1.000  H
  H98      1.0000 0.88810  0.17250  0.11300  Biso   1.000  H
  H99      1.0000 0.88810  0.32750  0.61300  Biso   1.000  H
  H100     1.0000 0.11190  0.82750  0.88700  Biso   1.000  H
  C81      1.0000 0.04160  0.58080  0.43336  Biso   1.000  C
  C82      1.0000 0.95840  0.08080  0.06664  Biso   1.000  C
  C83      1.0000 0.95840  0.41920  0.56664  Biso   1.000  C
  C84      1.0000 0.04160  0.91920  0.93336  Biso   1.000  C
  H101     1.0000 0.99790  0.57230  0.39250  Biso   1.000  H
  H102     1.0000 0.00210  0.07230  0.10750  Biso   1.000  H
  H103     1.0000 0.00210  0.42770  0.60750  Biso   1.000  H
  H104     1.0000 0.99790  0.92770  0.89250  Biso   1.000  H
  C85      1.0000 0.03679  0.53340  0.49715  Biso   1.000  C
  C86      1.0000 0.96321  0.03340  0.00285  Biso   1.000  C
  C87      1.0000 0.96321  0.46660  0.50285  Biso   1.000  C
  C88      1.0000 0.03679  0.96660  0.99715  Biso   1.000  C
  C89      1.0000 0.10374  0.55090  0.55532  Biso   1.000  C
  C90      1.0000 0.89626  0.05090  0.94468  Biso   1.000  C
  C91      1.0000 0.89626  0.44910  0.44468  Biso   1.000  C
  C92      1.0000 0.10374  0.94910  0.05532  Biso   1.000  C
  H105     1.0000 0.10350  0.52320  0.59970  Biso   1.000  H
  H106     1.0000 0.89650  0.02320  0.90030  Biso   1.000  H
  H107     1.0000 0.89650  0.47680  0.40030  Biso   1.000  H
  H108     1.0000 0.10350  0.97680  0.09970  Biso   1.000  H
  C93      1.0000 0.17098  0.60950  0.54733  Biso   1.000  C
  C94      1.0000 0.82902  0.10950  0.95267  Biso   1.000  C
  C95      1.0000 0.82902  0.39050  0.45267  Biso   1.000  C
  C96      1.0000 0.17098  0.89050  0.04733  Biso   1.000  C
  H109     1.0000 0.21590  0.61800  0.58720  Biso   1.000  H
  H110     1.0000 0.78410  0.11800  0.91280  Biso   1.000  H
  H111     1.0000 0.78410  0.38200  0.41280  Biso   1.000  H
  H112     1.0000 0.21590  0.88200  0.08720  Biso   1.000  H
  H113     1.0000 0.31700  0.11700  0.03900  Biso   1.000  H
  H114     1.0000 0.68300  0.61700  0.46100  Biso   1.000  H
  H115     1.0000 0.68300  0.88300  0.96100  Biso   1.000  H
  H116     1.0000 0.31700  0.38300  0.53900  Biso   1.000  H
  H117     1.0000 0.29700  0.22900  0.02400  Biso   1.000  H
  H118     1.0000 0.70300  0.72900  0.47600  Biso   1.000  H
  H119     1.0000 0.70300  0.77100  0.97600  Biso   1.000  H
  H120     1.0000 0.29700  0.27100  0.52400  Biso   1.000  H
  H121     1.0000 0.35400  0.77500  0.65300  Biso   1.000  H
  H122     1.0000 0.64600  0.27500  0.84700  Biso   1.000  H
  H123     1.0000 0.64600  0.22500  0.34700  Biso   1.000  H
  H124     1.0000 0.35400  0.72500  0.15300  Biso   1.000  H
  H125     1.0000 0.33000  0.88100  0.60300  Biso   1.000  H
  H126     1.0000 0.67000  0.38100  0.89700  Biso   1.000  H
  H127     1.0000 0.67000  0.11900  0.39700  Biso   1.000  H
  H128     1.0000 0.33000  0.61900  0.10300  Biso   1.000  H
  H129     1.0000 0.10900  0.10100  0.36000  Biso   1.000  H
  H130     1.0000 0.89100  0.60100  0.14000  Biso   1.000  H
  H131     1.0000 0.89100  0.89900  0.64000  Biso   1.000  H
  H132     1.0000 0.10900  0.39900  0.86000  Biso   1.000  H
  H133     1.0000 0.11600  0.96000  0.35000  Biso   1.000  H
  H134     1.0000 0.88400  0.46000  0.15000  Biso   1.000  H
  H135     1.0000 0.88400  0.04000  0.65000  Biso   1.000  H
  H136     1.0000 0.11600  0.54000  0.85000  Biso   1.000  H
  H137     1.0000 0.13200  0.69500  0.24100  Biso   1.000  H
  H138     1.0000 0.86800  0.19500  0.25900  Biso   1.000  H
  H139     1.0000 0.86800  0.30500  0.75900  Biso   1.000  H
  H140     1.0000 0.13200  0.80500  0.74100  Biso   1.000  H
  H141     1.0000 0.16100  0.82480  0.23200  Biso   1.000  H
  H142     1.0000 0.83900  0.32480  0.26800  Biso   1.000  H
  H143     1.0000 0.83900  0.17520  0.76800  Biso   1.000  H
  H144     1.0000 0.16100  0.67520  0.73200  Biso   1.000  H
  H145     1.0000 0.04600  0.17000  0.76400  Biso   1.000  H
  H146     1.0000 0.95400  0.67000  0.73600  Biso   1.000  H
  H147     1.0000 0.95400  0.83000  0.23600  Biso   1.000  H
  H148     1.0000 0.04600  0.33000  0.26400  Biso   1.000  H
  H149     1.0000 0.00000  0.12000  0.69700  Biso   1.000  H
  H150     1.0000 0.00000  0.62000  0.80300  Biso   1.000  H
  H151     1.0000 0.00000  0.88000  0.30300  Biso   1.000  H
  H152     1.0000 0.00000  0.38000  0.19700  Biso   1.000  H
  H153     1.0000 0.96900  0.29100  0.83100  Biso   1.000  H
  H154     1.0000 0.03100  0.79100  0.66900  Biso   1.000  H
  H155     1.0000 0.03100  0.70900  0.16900  Biso   1.000  H
  H156     1.0000 0.96900  0.20900  0.33100  Biso   1.000  H
  H157     1.0000 0.09700  0.06000  0.24300  Biso   1.000  H
  H158     1.0000 0.90300  0.56000  0.25700  Biso   1.000  H
  H159     1.0000 0.90300  0.94000  0.75700  Biso   1.000  H
  H160     1.0000 0.09700  0.44000  0.74300  Biso   1.000  H
  H161     1.0000 0.15640  0.10600  0.21700  Biso   1.000  H
  H162     1.0000 0.84360  0.60600  0.28300  Biso   1.000  H
  H163     1.0000 0.84360  0.89400  0.78300  Biso   1.000  H
  H164     1.0000 0.15640  0.39400  0.71700  Biso   1.000  H
  H165     1.0000 0.02300  0.21700  0.80700  Biso   1.000  H
  H166     1.0000 0.97700  0.71700  0.69300  Biso   1.000  H
  H167     1.0000 0.97700  0.78300  0.19300  Biso   1.000  H
  H168     1.0000 0.02300  0.28300  0.30700  Biso   1.000  H
