data_image0
_cell_length_a       8.318
_cell_length_b       9.585
_cell_length_c       11.993
_cell_angle_alpha    90
_cell_angle_beta     90
_cell_angle_gamma    90

_symmetry_space_group_name_H-M    "P 1"
_symmetry_int_tables_number       1

loop_
  _symmetry_equiv_pos_as_xyz
  'x, y, z'

loop_
  _atom_site_label
  _atom_site_occupancy
  _atom_site_fract_x
  _atom_site_fract_y
  _atom_site_fract_z
  _atom_site_thermal_displace_type
  _atom_site_B_iso_or_equiv
  _atom_site_type_symbol
  Cu1      1.0000 0.10360  0.17003  0.04146  Biso   1.000  Cu
  Cu2      1.0000 0.60360  0.32997  0.95854  Biso   1.000  Cu
  Cu3      1.0000 0.89640  0.67003  0.45854  Biso   1.000  Cu
  Cu4      1.0000 0.39640  0.82997  0.54146  Biso   1.000  Cu
  O1       1.0000 0.26040  0.22400  0.15830  Biso   1.000  O
  O2       1.0000 0.76040  0.27600  0.84170  Biso   1.000  O
  O3       1.0000 0.73960  0.72400  0.34170  Biso   1.000  O
  O4       1.0000 0.23960  0.77600  0.65830  Biso   1.000  O
  O5       1.0000 0.42160  0.13240  0.28700  Biso   1.000  O
  O6       1.0000 0.92160  0.36760  0.71300  Biso   1.000  O
  O7       1.0000 0.57840  0.63240  0.21300  Biso   1.000  O
  O8       1.0000 0.07840  0.86760  0.78700  Biso   1.000  O
  O9       1.0000 0.86510  0.25510  0.10150  Biso   1.000  O
  O10      1.0000 0.36510  0.24490  0.89850  Biso   1.000  O
  O11      1.0000 0.13490  0.75510  0.39850  Biso   1.000  O
  O12      1.0000 0.63490  0.74490  0.60150  Biso   1.000  O
  O13      1.0000 0.63560  0.15990  0.04290  Biso   1.000  O
  O14      1.0000 0.13560  0.34010  0.95710  Biso   1.000  O
  O15      1.0000 0.36440  0.65990  0.45710  Biso   1.000  O
  O16      1.0000 0.86440  0.84010  0.54290  Biso   1.000  O
  O17      1.0000 0.98220  0.08540  0.91370  Biso   1.000  O
  O18      1.0000 0.48220  0.41460  0.08630  Biso   1.000  O
  O19      1.0000 0.01780  0.58540  0.58630  Biso   1.000  O
  O20      1.0000 0.51780  0.91460  0.41370  Biso   1.000  O
  N1       1.0000 0.08350  0.99380  0.13680  Biso   1.000  N
  N2       1.0000 0.58350  0.50620  0.86320  Biso   1.000  N
  N3       1.0000 0.91650  0.49380  0.36320  Biso   1.000  N
  N4       1.0000 0.41650  0.00620  0.63680  Biso   1.000  N
  C1       1.0000 0.31310  0.12250  0.21670  Biso   1.000  C
  C2       1.0000 0.81310  0.37750  0.78330  Biso   1.000  C
  C3       1.0000 0.68690  0.62250  0.28330  Biso   1.000  C
  C4       1.0000 0.18690  0.87750  0.71670  Biso   1.000  C
  C5       1.0000 0.24260  0.98040  0.19130  Biso   1.000  C
  C6       1.0000 0.74260  0.51960  0.80870  Biso   1.000  C
  C7       1.0000 0.75740  0.48040  0.30870  Biso   1.000  C
  C8       1.0000 0.25740  0.01960  0.69130  Biso   1.000  C
  C9       1.0000 0.34530  0.90240  0.10590  Biso   1.000  C
  C10      1.0000 0.84530  0.59760  0.89410  Biso   1.000  C
  C11      1.0000 0.65470  0.40240  0.39410  Biso   1.000  C
  C12      1.0000 0.15470  0.09760  0.60590  Biso   1.000  C
  C13      1.0000 0.22470  0.80840  0.04580  Biso   1.000  C
  C14      1.0000 0.72470  0.69160  0.95420  Biso   1.000  C
  C15      1.0000 0.77530  0.30840  0.45420  Biso   1.000  C
  C16      1.0000 0.27530  0.19160  0.54580  Biso   1.000  C
  C17      1.0000 0.06050  0.85810  0.07880  Biso   1.000  C
  C18      1.0000 0.56050  0.64190  0.92120  Biso   1.000  C
  C19      1.0000 0.93950  0.35810  0.42120  Biso   1.000  C
  C20      1.0000 0.43950  0.14190  0.57880  Biso   1.000  C
  C21      1.0000 0.95590  0.01740  0.22210  Biso   1.000  C
  C22      1.0000 0.45590  0.48260  0.77790  Biso   1.000  C
  C23      1.0000 0.04410  0.51740  0.27790  Biso   1.000  C
  C24      1.0000 0.54410  0.98260  0.72210  Biso   1.000  C
  C25      1.0000 0.78780  0.03060  0.17280  Biso   1.000  C
  C26      1.0000 0.28780  0.46940  0.82720  Biso   1.000  C
  C27      1.0000 0.21220  0.53060  0.32720  Biso   1.000  C
  C28      1.0000 0.71220  0.96940  0.67280  Biso   1.000  C
  C29      1.0000 0.76520  0.16090  0.10080  Biso   1.000  C
  C30      1.0000 0.26520  0.33910  0.89920  Biso   1.000  C
  C31      1.0000 0.23480  0.66090  0.39920  Biso   1.000  C
  C32      1.0000 0.73480  0.83910  0.60080  Biso   1.000  C
  H1       1.0000 0.92500  0.15100  0.89300  Biso   1.000  H
  H2       1.0000 0.42500  0.34900  0.10700  Biso   1.000  H
  H3       1.0000 0.07500  0.65100  0.60700  Biso   1.000  H
  H4       1.0000 0.57500  0.84900  0.39300  Biso   1.000  H
  H5       1.0000 0.01500  0.03100  0.86700  Biso   1.000  H
  H6       1.0000 0.51500  0.46900  0.13300  Biso   1.000  H
  H7       1.0000 0.98500  0.53100  0.63300  Biso   1.000  H
  H8       1.0000 0.48500  0.96900  0.36700  Biso   1.000  H
  H9       1.0000 0.23800  0.93400  0.24900  Biso   1.000  H
  H10      1.0000 0.73800  0.56600  0.75100  Biso   1.000  H
  H11      1.0000 0.76200  0.43400  0.25100  Biso   1.000  H
  H12      1.0000 0.26200  0.06600  0.74900  Biso   1.000  H
  H13      1.0000 0.37900  0.97000  0.04900  Biso   1.000  H
  H14      1.0000 0.87900  0.53000  0.95100  Biso   1.000  H
  H15      1.0000 0.62100  0.47000  0.45100  Biso   1.000  H
  H16      1.0000 0.12100  0.03000  0.54900  Biso   1.000  H
  H17      1.0000 0.43500  0.85300  0.13900  Biso   1.000  H
  H18      1.0000 0.93500  0.64700  0.86100  Biso   1.000  H
  H19      1.0000 0.56500  0.35300  0.36100  Biso   1.000  H
  H20      1.0000 0.06500  0.14700  0.63900  Biso   1.000  H
  H21      1.0000 0.25500  0.70500  0.06700  Biso   1.000  H
  H22      1.0000 0.75500  0.79500  0.93300  Biso   1.000  H
  H23      1.0000 0.74500  0.20500  0.43300  Biso   1.000  H
  H24      1.0000 0.24500  0.29500  0.56700  Biso   1.000  H
  H25      1.0000 0.24900  0.79800  0.98100  Biso   1.000  H
  H26      1.0000 0.74900  0.70200  0.01900  Biso   1.000  H
  H27      1.0000 0.75100  0.29800  0.51900  Biso   1.000  H
  H28      1.0000 0.25100  0.20200  0.48100  Biso   1.000  H
  H29      1.0000 0.01100  0.80300  0.13400  Biso   1.000  H
  H30      1.0000 0.51100  0.69700  0.86600  Biso   1.000  H
  H31      1.0000 0.98900  0.30300  0.36600  Biso   1.000  H
  H32      1.0000 0.48900  0.19700  0.63400  Biso   1.000  H
  H33      1.0000 0.97700  0.86800  0.01600  Biso   1.000  H
  H34      1.0000 0.47700  0.63200  0.98400  Biso   1.000  H
  H35      1.0000 0.02300  0.36800  0.48400  Biso   1.000  H
  H36      1.0000 0.52300  0.13200  0.51600  Biso   1.000  H
  H37      1.0000 0.99300  0.09000  0.25400  Biso   1.000  H
  H38      1.0000 0.49300  0.41000  0.74600  Biso   1.000  H
  H39      1.0000 0.00700  0.59000  0.24600  Biso   1.000  H
  H40      1.0000 0.50700  0.91000  0.75400  Biso   1.000  H
  H41      1.0000 0.95800  0.94400  0.27500  Biso   1.000  H
  H42      1.0000 0.45800  0.55600  0.72500  Biso   1.000  H
  H43      1.0000 0.04200  0.44400  0.22500  Biso   1.000  H
  H44      1.0000 0.54200  0.05600  0.77500  Biso   1.000  H
  H45      1.0000 0.77700  0.95300  0.14200  Biso   1.000  H
  H46      1.0000 0.27700  0.54700  0.85800  Biso   1.000  H
  H47      1.0000 0.22300  0.45300  0.35800  Biso   1.000  H
  H48      1.0000 0.72300  0.04700  0.64200  Biso   1.000  H
  H49      1.0000 0.72300  0.04800  0.24400  Biso   1.000  H
  H50      1.0000 0.22300  0.45200  0.75600  Biso   1.000  H
  H51      1.0000 0.27700  0.54800  0.25600  Biso   1.000  H
  H52      1.0000 0.77700  0.95200  0.74400  Biso   1.000  H
