data_image0
_cell_length_a       25.757
_cell_length_b       9.533
_cell_length_c       18.54
_cell_angle_alpha    90
_cell_angle_beta     97.96
_cell_angle_gamma    90

_symmetry_space_group_name_H-M    "P 1"
_symmetry_int_tables_number       1

loop_
  _symmetry_equiv_pos_as_xyz
  'x, y, z'

loop_
  _atom_site_label
  _atom_site_occupancy
  _atom_site_fract_x
  _atom_site_fract_y
  _atom_site_fract_z
  _atom_site_thermal_displace_type
  _atom_site_B_iso_or_equiv
  _atom_site_type_symbol
  Cu1      1.0000 0.17310  0.13400  0.59360  Biso   1.000  Cu
  Cu2      1.0000 0.67310  0.63400  0.09360  Biso   1.000  Cu
  Cu3      1.0000 0.67310  0.86600  0.59360  Biso   1.000  Cu
  Cu4      1.0000 0.17310  0.36600  0.09360  Biso   1.000  Cu
  Cu5      1.0000 0.17424  0.63860  0.65730  Biso   1.000  Cu
  Cu6      1.0000 0.67424  0.13860  0.15730  Biso   1.000  Cu
  Cu7      1.0000 0.67424  0.36140  0.65730  Biso   1.000  Cu
  Cu8      1.0000 0.17424  0.86140  0.15730  Biso   1.000  Cu
  O1       1.0000 0.17490  0.07570  0.69450  Biso   1.000  O
  O2       1.0000 0.67490  0.57570  0.19450  Biso   1.000  O
  O3       1.0000 0.67490  0.92430  0.69450  Biso   1.000  O
  O4       1.0000 0.17490  0.42430  0.19450  Biso   1.000  O
  O5       1.0000 0.10750  0.21220  0.69860  Biso   1.000  O
  O6       1.0000 0.60750  0.71220  0.19860  Biso   1.000  O
  O7       1.0000 0.60750  0.78780  0.69860  Biso   1.000  O
  O8       1.0000 0.10750  0.28780  0.19860  Biso   1.000  O
  O9       1.0000 0.10310  0.83530  0.68920  Biso   1.000  O
  O10      1.0000 0.60310  0.33530  0.18920  Biso   1.000  O
  O11      1.0000 0.60310  0.16470  0.68920  Biso   1.000  O
  O12      1.0000 0.10310  0.66470  0.18920  Biso   1.000  O
  O13      1.0000 0.17700  0.74590  0.74680  Biso   1.000  O
  O14      1.0000 0.67700  0.24590  0.24680  Biso   1.000  O
  O15      1.0000 0.67700  0.25410  0.74680  Biso   1.000  O
  O16      1.0000 0.17700  0.75410  0.24680  Biso   1.000  O
  O17      1.0000 0.09620  0.63930  0.83890  Biso   1.000  O
  O18      1.0000 0.59620  0.13930  0.33890  Biso   1.000  O
  O19      1.0000 0.59620  0.36070  0.83890  Biso   1.000  O
  O20      1.0000 0.09620  0.86070  0.33890  Biso   1.000  O
  O21      1.0000 0.15000  0.65190  0.94110  Biso   1.000  O
  O22      1.0000 0.65000  0.15190  0.44110  Biso   1.000  O
  O23      1.0000 0.65000  0.34810  0.94110  Biso   1.000  O
  O24      1.0000 0.15000  0.84810  0.44110  Biso   1.000  O
  O25      1.0000 0.08550  0.82660  0.02720  Biso   1.000  O
  O26      1.0000 0.58550  0.32660  0.52720  Biso   1.000  O
  O27      1.0000 0.58550  0.17340  0.02720  Biso   1.000  O
  O28      1.0000 0.08550  0.67340  0.52720  Biso   1.000  O
  O29      1.0000 0.16580  0.91520  0.05740  Biso   1.000  O
  O30      1.0000 0.66580  0.41520  0.55740  Biso   1.000  O
  O31      1.0000 0.66580  0.08480  0.05740  Biso   1.000  O
  O32      1.0000 0.16580  0.58480  0.55740  Biso   1.000  O
  O33      1.0000 0.09680  0.16870  0.03770  Biso   1.000  O
  O34      1.0000 0.59680  0.66870  0.53770  Biso   1.000  O
  O35      1.0000 0.59680  0.83130  0.03770  Biso   1.000  O
  O36      1.0000 0.09680  0.33130  0.53770  Biso   1.000  O
  O37      1.0000 0.16300  0.28460  0.99700  Biso   1.000  O
  O38      1.0000 0.66300  0.78460  0.49700  Biso   1.000  O
  O39      1.0000 0.66300  0.71540  0.99700  Biso   1.000  O
  O40      1.0000 0.16300  0.21540  0.49700  Biso   1.000  O
  O41      1.0000 0.09280  0.37870  0.85510  Biso   1.000  O
  O42      1.0000 0.59280  0.87870  0.35510  Biso   1.000  O
  O43      1.0000 0.59280  0.62130  0.85510  Biso   1.000  O
  O44      1.0000 0.09280  0.12130  0.35510  Biso   1.000  O
  O45      1.0000 0.17630  0.35970  0.83650  Biso   1.000  O
  O46      1.0000 0.67630  0.85970  0.33650  Biso   1.000  O
  O47      1.0000 0.67630  0.64030  0.83650  Biso   1.000  O
  O48      1.0000 0.17630  0.14030  0.33650  Biso   1.000  O
  O49      1.0000 0.12100  0.98300  0.56240  Biso   1.000  O
  O50      1.0000 0.62100  0.48300  0.06240  Biso   1.000  O
  O51      1.0000 0.62100  0.01700  0.56240  Biso   1.000  O
  O52      1.0000 0.12100  0.51700  0.06240  Biso   1.000  O
  O53      1.0000 0.22690  0.27750  0.61900  Biso   1.000  O
  O54      1.0000 0.72690  0.77750  0.11900  Biso   1.000  O
  O55      1.0000 0.72690  0.72250  0.61900  Biso   1.000  O
  O56      1.0000 0.22690  0.22250  0.11900  Biso   1.000  O
  O57      1.0000 0.24670  0.99660  0.57290  Biso   1.000  O
  O58      1.0000 0.74670  0.49660  0.07290  Biso   1.000  O
  O59      1.0000 0.74670  0.00340  0.57290  Biso   1.000  O
  O60      1.0000 0.24670  0.50340  0.07290  Biso   1.000  O
  O61      1.0000 0.11770  0.51270  0.67820  Biso   1.000  O
  O62      1.0000 0.61770  0.01270  0.17820  Biso   1.000  O
  O63      1.0000 0.61770  0.48730  0.67820  Biso   1.000  O
  O64      1.0000 0.11770  0.98730  0.17820  Biso   1.000  O
  O65      1.0000 0.24180  0.72760  0.63930  Biso   1.000  O
  O66      1.0000 0.74180  0.22760  0.13930  Biso   1.000  O
  O67      1.0000 0.74180  0.27240  0.63930  Biso   1.000  O
  O68      1.0000 0.24180  0.77240  0.13930  Biso   1.000  O
  O69      1.0000 0.22770  0.46490  0.72960  Biso   1.000  O
  O70      1.0000 0.72770  0.96490  0.22960  Biso   1.000  O
  O71      1.0000 0.72770  0.53510  0.72960  Biso   1.000  O
  O72      1.0000 0.22770  0.03510  0.22960  Biso   1.000  O
  C1       1.0000 0.13390  0.06400  0.79960  Biso   1.000  C
  C2       1.0000 0.63390  0.56400  0.29960  Biso   1.000  C
  C3       1.0000 0.63390  0.93600  0.79960  Biso   1.000  C
  C4       1.0000 0.13390  0.43600  0.29960  Biso   1.000  C
  C5       1.0000 0.13190  0.91770  0.81000  Biso   1.000  C
  C6       1.0000 0.63190  0.41770  0.31000  Biso   1.000  C
  C7       1.0000 0.63190  0.08230  0.81000  Biso   1.000  C
  C8       1.0000 0.13190  0.58230  0.31000  Biso   1.000  C
  C9       1.0000 0.12810  0.86180  0.87680  Biso   1.000  C
  C10      1.0000 0.62810  0.36180  0.37680  Biso   1.000  C
  C11      1.0000 0.62810  0.13820  0.87680  Biso   1.000  C
  C12      1.0000 0.12810  0.63820  0.37680  Biso   1.000  C
  C13      1.0000 0.12620  0.95320  0.93620  Biso   1.000  C
  C14      1.0000 0.62620  0.45320  0.43620  Biso   1.000  C
  C15      1.0000 0.62620  0.04680  0.93620  Biso   1.000  C
  C16      1.0000 0.12620  0.54680  0.43620  Biso   1.000  C
  C17      1.0000 0.12740  0.09510  0.92770  Biso   1.000  C
  C18      1.0000 0.62740  0.59510  0.42770  Biso   1.000  C
  C19      1.0000 0.62740  0.90490  0.92770  Biso   1.000  C
  C20      1.0000 0.12740  0.40490  0.42770  Biso   1.000  C
  C21      1.0000 0.13010  0.15350  0.85700  Biso   1.000  C
  C22      1.0000 0.63010  0.65350  0.35700  Biso   1.000  C
  C23      1.0000 0.63010  0.84650  0.85700  Biso   1.000  C
  C24      1.0000 0.13010  0.34650  0.35700  Biso   1.000  C
  C25      1.0000 0.13680  0.12200  0.72590  Biso   1.000  C
  C26      1.0000 0.63680  0.62200  0.22590  Biso   1.000  C
  C27      1.0000 0.63680  0.87800  0.72590  Biso   1.000  C
  C28      1.0000 0.13680  0.37800  0.22590  Biso   1.000  C
  C29      1.0000 0.13650  0.82610  0.74220  Biso   1.000  C
  C30      1.0000 0.63650  0.32610  0.24220  Biso   1.000  C
  C31      1.0000 0.63650  0.17390  0.74220  Biso   1.000  C
  C32      1.0000 0.13650  0.67390  0.24220  Biso   1.000  C
  C33      1.0000 0.12580  0.70680  0.88950  Biso   1.000  C
  C34      1.0000 0.62580  0.20680  0.38950  Biso   1.000  C
  C35      1.0000 0.62580  0.29320  0.88950  Biso   1.000  C
  C36      1.0000 0.12580  0.79320  0.38950  Biso   1.000  C
  C37      1.0000 0.12340  0.89140  0.01260  Biso   1.000  C
  C38      1.0000 0.62340  0.39140  0.51260  Biso   1.000  C
  C39      1.0000 0.62340  0.10860  0.01260  Biso   1.000  C
  C40      1.0000 0.12340  0.60860  0.51260  Biso   1.000  C
  C41      1.0000 0.12770  0.19040  0.99180  Biso   1.000  C
  C42      1.0000 0.62770  0.69040  0.49180  Biso   1.000  C
  C43      1.0000 0.62770  0.80960  0.99180  Biso   1.000  C
  C44      1.0000 0.12770  0.30960  0.49180  Biso   1.000  C
  C45      1.0000 0.13270  0.31050  0.84880  Biso   1.000  C
  C46      1.0000 0.63270  0.81050  0.34880  Biso   1.000  C
  C47      1.0000 0.63270  0.68950  0.84880  Biso   1.000  C
  C48      1.0000 0.13270  0.18950  0.34880  Biso   1.000  C
  Cu9      1.0000 0.82660  0.86320  0.40690  Biso   1.000  Cu
  Cu10     1.0000 0.32660  0.36320  0.90690  Biso   1.000  Cu
  Cu11     1.0000 0.32660  0.13680  0.40690  Biso   1.000  Cu
  Cu12     1.0000 0.82660  0.63680  0.90690  Biso   1.000  Cu
  Cu13     1.0000 0.82510  0.36220  0.34210  Biso   1.000  Cu
  Cu14     1.0000 0.32510  0.86220  0.84210  Biso   1.000  Cu
  Cu15     1.0000 0.32510  0.63780  0.34210  Biso   1.000  Cu
  Cu16     1.0000 0.82510  0.13780  0.84210  Biso   1.000  Cu
  O73      1.0000 0.82620  0.92050  0.30550  Biso   1.000  O
  O74      1.0000 0.32620  0.42050  0.80550  Biso   1.000  O
  O75      1.0000 0.32620  0.07950  0.30550  Biso   1.000  O
  O76      1.0000 0.82620  0.57950  0.80550  Biso   1.000  O
  O77      1.0000 0.90150  0.80160  0.30600  Biso   1.000  O
  O78      1.0000 0.40150  0.30160  0.80600  Biso   1.000  O
  O79      1.0000 0.40150  0.19840  0.30600  Biso   1.000  O
  O80      1.0000 0.90150  0.69840  0.80600  Biso   1.000  O
  O81      1.0000 0.89530  0.16510  0.31350  Biso   1.000  O
  O82      1.0000 0.39530  0.66510  0.81350  Biso   1.000  O
  O83      1.0000 0.39530  0.83490  0.31350  Biso   1.000  O
  O84      1.0000 0.89530  0.33490  0.81350  Biso   1.000  O
  O85      1.0000 0.82630  0.26080  0.24780  Biso   1.000  O
  O86      1.0000 0.32630  0.76080  0.74780  Biso   1.000  O
  O87      1.0000 0.32630  0.73920  0.24780  Biso   1.000  O
  O88      1.0000 0.82630  0.23920  0.74780  Biso   1.000  O
  O89      1.0000 0.90880  0.36400  0.15740  Biso   1.000  O
  O90      1.0000 0.40880  0.86400  0.65740  Biso   1.000  O
  O91      1.0000 0.40880  0.63600  0.15740  Biso   1.000  O
  O92      1.0000 0.90880  0.13600  0.65740  Biso   1.000  O
  O93      1.0000 0.84840  0.35100  0.05870  Biso   1.000  O
  O94      1.0000 0.34840  0.85100  0.55870  Biso   1.000  O
  O95      1.0000 0.34840  0.64900  0.05870  Biso   1.000  O
  O96      1.0000 0.84840  0.14900  0.55870  Biso   1.000  O
  O97      1.0000 0.91380  0.17230  0.97330  Biso   1.000  O
  O98      1.0000 0.41380  0.67230  0.47330  Biso   1.000  O
  O99      1.0000 0.41380  0.82770  0.97330  Biso   1.000  O
  O100     1.0000 0.91380  0.32770  0.47330  Biso   1.000  O
  O101     1.0000 0.83300  0.08670  0.94520  Biso   1.000  O
  O102     1.0000 0.33300  0.58670  0.44520  Biso   1.000  O
  O103     1.0000 0.33300  0.91330  0.94520  Biso   1.000  O
  O104     1.0000 0.83300  0.41330  0.44520  Biso   1.000  O
  O105     1.0000 0.89890  0.83410  0.96140  Biso   1.000  O
  O106     1.0000 0.39890  0.33410  0.46140  Biso   1.000  O
  O107     1.0000 0.39890  0.16590  0.96140  Biso   1.000  O
  O108     1.0000 0.89890  0.66590  0.46140  Biso   1.000  O
  O109     1.0000 0.83690  0.71190  0.00510  Biso   1.000  O
  O110     1.0000 0.33690  0.21190  0.50510  Biso   1.000  O
  O111     1.0000 0.33690  0.28810  0.00510  Biso   1.000  O
  O112     1.0000 0.83690  0.78810  0.50510  Biso   1.000  O
  O113     1.0000 0.91150  0.62640  0.13810  Biso   1.000  O
  O114     1.0000 0.41150  0.12640  0.63810  Biso   1.000  O
  O115     1.0000 0.41150  0.37360  0.13810  Biso   1.000  O
  O116     1.0000 0.91150  0.87360  0.63810  Biso   1.000  O
  O117     1.0000 0.83500  0.63780  0.17890  Biso   1.000  O
  O118     1.0000 0.33500  0.13780  0.67890  Biso   1.000  O
  O119     1.0000 0.33500  0.36220  0.17890  Biso   1.000  O
  O120     1.0000 0.83500  0.86220  0.67890  Biso   1.000  O
  O121     1.0000 0.87830  0.01410  0.43810  Biso   1.000  O
  O122     1.0000 0.37830  0.51410  0.93810  Biso   1.000  O
  O123     1.0000 0.37830  0.98590  0.43810  Biso   1.000  O
  O124     1.0000 0.87830  0.48590  0.93810  Biso   1.000  O
  O125     1.0000 0.77120  0.71840  0.37910  Biso   1.000  O
  O126     1.0000 0.27120  0.21840  0.87910  Biso   1.000  O
  O127     1.0000 0.27120  0.28160  0.37910  Biso   1.000  O
  O128     1.0000 0.77120  0.78160  0.87910  Biso   1.000  O
  O129     1.0000 0.75580  0.01150  0.42560  Biso   1.000  O
  O130     1.0000 0.25580  0.51150  0.92560  Biso   1.000  O
  O131     1.0000 0.25580  0.98850  0.42560  Biso   1.000  O
  O132     1.0000 0.75580  0.48850  0.92560  Biso   1.000  O
  O133     1.0000 0.88180  0.49240  0.32430  Biso   1.000  O
  O134     1.0000 0.38180  0.99240  0.82430  Biso   1.000  O
  O135     1.0000 0.38180  0.50760  0.32430  Biso   1.000  O
  O136     1.0000 0.88180  0.00760  0.82430  Biso   1.000  O
  O137     1.0000 0.75920  0.26800  0.35770  Biso   1.000  O
  O138     1.0000 0.25920  0.76800  0.85770  Biso   1.000  O
  O139     1.0000 0.25920  0.73200  0.35770  Biso   1.000  O
  O140     1.0000 0.75920  0.23200  0.85770  Biso   1.000  O
  O141     1.0000 0.77220  0.53300  0.27130  Biso   1.000  O
  O142     1.0000 0.27220  0.03300  0.77130  Biso   1.000  O
  O143     1.0000 0.27220  0.46700  0.27130  Biso   1.000  O
  O144     1.0000 0.77220  0.96700  0.77130  Biso   1.000  O
  C49      1.0000 0.87000  0.93920  0.20170  Biso   1.000  C
  C50      1.0000 0.37000  0.43920  0.70170  Biso   1.000  C
  C51      1.0000 0.37000  0.06080  0.20170  Biso   1.000  C
  C52      1.0000 0.87000  0.56080  0.70170  Biso   1.000  C
  C53      1.0000 0.86950  0.08230  0.19210  Biso   1.000  C
  C54      1.0000 0.36950  0.58230  0.69210  Biso   1.000  C
  C55      1.0000 0.36950  0.91770  0.19210  Biso   1.000  C
  C56      1.0000 0.86950  0.41770  0.69210  Biso   1.000  C
  C57      1.0000 0.87380  0.14100  0.12260  Biso   1.000  C
  C58      1.0000 0.37380  0.64100  0.62260  Biso   1.000  C
  C59      1.0000 0.37380  0.85900  0.12260  Biso   1.000  C
  C60      1.0000 0.87380  0.35900  0.62260  Biso   1.000  C
  C61      1.0000 0.87490  0.05060  0.06310  Biso   1.000  C
  C62      1.0000 0.37490  0.55060  0.56310  Biso   1.000  C
  C63      1.0000 0.37490  0.94940  0.06310  Biso   1.000  C
  C64      1.0000 0.87490  0.44940  0.56310  Biso   1.000  C
  C65      1.0000 0.87360  0.90500  0.07400  Biso   1.000  C
  C66      1.0000 0.37360  0.40500  0.57400  Biso   1.000  C
  C67      1.0000 0.37360  0.09500  0.07400  Biso   1.000  C
  C68      1.0000 0.87360  0.59500  0.57400  Biso   1.000  C
  C69      1.0000 0.87150  0.84910  0.14320  Biso   1.000  C
  C70      1.0000 0.37150  0.34910  0.64320  Biso   1.000  C
  C71      1.0000 0.37150  0.15090  0.14320  Biso   1.000  C
  C72      1.0000 0.87150  0.65090  0.64320  Biso   1.000  C
  C73      1.0000 0.86640  0.88240  0.27730  Biso   1.000  C
  C74      1.0000 0.36640  0.38240  0.77730  Biso   1.000  C
  C75      1.0000 0.36640  0.11760  0.27730  Biso   1.000  C
  C76      1.0000 0.86640  0.61760  0.77730  Biso   1.000  C
  C77      1.0000 0.86480  0.17860  0.25650  Biso   1.000  C
  C78      1.0000 0.36480  0.67860  0.75650  Biso   1.000  C
  C79      1.0000 0.36480  0.82140  0.25650  Biso   1.000  C
  C80      1.0000 0.86480  0.32140  0.75650  Biso   1.000  C
  C81      1.0000 0.87600  0.29510  0.10990  Biso   1.000  C
  C82      1.0000 0.37600  0.79510  0.60990  Biso   1.000  C
  C83      1.0000 0.37600  0.70490  0.10990  Biso   1.000  C
  C84      1.0000 0.87600  0.20490  0.60990  Biso   1.000  C
  C85      1.0000 0.87460  0.10880  0.98740  Biso   1.000  C
  C86      1.0000 0.37460  0.60880  0.48740  Biso   1.000  C
  C87      1.0000 0.37460  0.89120  0.98740  Biso   1.000  C
  C88      1.0000 0.87460  0.39120  0.48740  Biso   1.000  C
  C89      1.0000 0.87060  0.81000  0.00940  Biso   1.000  C
  C90      1.0000 0.37060  0.31000  0.50940  Biso   1.000  C
  C91      1.0000 0.37060  0.19000  0.00940  Biso   1.000  C
  C92      1.0000 0.87060  0.69000  0.50940  Biso   1.000  C
  C93      1.0000 0.87290  0.69070  0.15600  Biso   1.000  C
  C94      1.0000 0.37290  0.19070  0.65600  Biso   1.000  C
  C95      1.0000 0.37290  0.30930  0.15600  Biso   1.000  C
  C96      1.0000 0.87290  0.80930  0.65600  Biso   1.000  C
  Cu17     1.0000 0.99680  0.85210  0.98510  Biso   1.000  Cu
  Cu18     1.0000 0.49680  0.35210  0.48510  Biso   1.000  Cu
  Cu19     1.0000 0.49680  0.14790  0.98510  Biso   1.000  Cu
  Cu20     1.0000 0.99680  0.64790  0.48510  Biso   1.000  Cu
  O145     1.0000 0.98940  0.66860  0.93120  Biso   1.000  O
  O146     1.0000 0.48940  0.16860  0.43120  Biso   1.000  O
  O147     1.0000 0.48940  0.33140  0.93120  Biso   1.000  O
  O148     1.0000 0.98940  0.83140  0.43120  Biso   1.000  O
  O149     1.0000 0.99890  0.94910  0.89140  Biso   1.000  O
  O150     1.0000 0.49890  0.44910  0.39140  Biso   1.000  O
  O151     1.0000 0.49890  0.05090  0.89140  Biso   1.000  O
  O152     1.0000 0.99890  0.55090  0.39140  Biso   1.000  O
  O153     1.0000 0.99250  0.76080  0.08470  Biso   1.000  O
  O154     1.0000 0.49250  0.26080  0.58470  Biso   1.000  O
  O155     1.0000 0.49250  0.23920  0.08470  Biso   1.000  O
  O156     1.0000 0.99250  0.73920  0.58470  Biso   1.000  O
  O157     1.0000 0.00130  0.03450  0.03310  Biso   1.000  O
  O158     1.0000 0.50130  0.53450  0.53310  Biso   1.000  O
  O159     1.0000 0.50130  0.96550  0.03310  Biso   1.000  O
  O160     1.0000 0.00130  0.46550  0.53310  Biso   1.000  O
  O161     1.0000 0.01590  0.16830  0.56330  Biso   1.000  O
  O162     1.0000 0.51590  0.66830  0.06330  Biso   1.000  O
  O163     1.0000 0.51590  0.83170  0.56330  Biso   1.000  O
  O164     1.0000 0.01590  0.33170  0.06330  Biso   1.000  O
  O165     1.0000 0.99730  0.26740  0.38930  Biso   1.000  O
  O166     1.0000 0.49730  0.76740  0.88930  Biso   1.000  O
  O167     1.0000 0.49730  0.73260  0.38930  Biso   1.000  O
  O168     1.0000 0.99730  0.23260  0.88930  Biso   1.000  O
  O169     1.0000 0.00590  0.28850  0.72350  Biso   1.000  O
  O170     1.0000 0.50590  0.78850  0.22350  Biso   1.000  O
  O171     1.0000 0.50590  0.71150  0.72350  Biso   1.000  O
  O172     1.0000 0.00590  0.21150  0.22350  Biso   1.000  O
  O173     1.0000 0.99980  0.83520  0.76580  Biso   1.000  O
  O174     1.0000 0.49980  0.33520  0.26580  Biso   1.000  O
  O175     1.0000 0.49980  0.16480  0.76580  Biso   1.000  O
  O176     1.0000 0.99980  0.66480  0.26580  Biso   1.000  O
  O177     1.0000 0.01830  0.56990  0.70370  Biso   1.000  O
  O178     1.0000 0.51830  0.06990  0.20370  Biso   1.000  O
  O179     1.0000 0.51830  0.43010  0.70370  Biso   1.000  O
  O180     1.0000 0.01830  0.93010  0.20370  Biso   1.000  O
  O181     1.0000 0.25770  0.51290  0.53560  Biso   1.000  O
  O182     1.0000 0.75770  0.01290  0.03560  Biso   1.000  O
  O183     1.0000 0.75770  0.48710  0.53560  Biso   1.000  O
  O184     1.0000 0.25770  0.98710  0.03560  Biso   1.000  O
