data_image0
_cell_length_a       12.902
_cell_length_b       13.0699
_cell_length_c       10.5613
_cell_angle_alpha    90
_cell_angle_beta     99.76
_cell_angle_gamma    90

_symmetry_space_group_name_H-M    "P 1"
_symmetry_int_tables_number       1

loop_
  _symmetry_equiv_pos_as_xyz
  'x, y, z'

loop_
  _atom_site_label
  _atom_site_occupancy
  _atom_site_fract_x
  _atom_site_fract_y
  _atom_site_fract_z
  _atom_site_thermal_displace_type
  _atom_site_B_iso_or_equiv
  _atom_site_type_symbol
  Cu1      1.0000 0.00000  0.00000  0.00000  Biso   1.000  Cu
  Cu2      1.0000 0.50000  0.50000  0.00000  Biso   1.000  Cu
  Cu3      1.0000 0.00000  0.00000  0.50000  Biso   1.000  Cu
  Cu4      1.0000 0.50000  0.50000  0.50000  Biso   1.000  Cu
  O1       1.0000 0.92300  0.12270  0.03880  Biso   1.000  O
  O2       1.0000 0.42300  0.62270  0.03880  Biso   1.000  O
  O3       1.0000 0.07700  0.12270  0.46120  Biso   1.000  O
  O4       1.0000 0.57700  0.62270  0.46120  Biso   1.000  O
  O5       1.0000 0.07700  0.87730  0.96120  Biso   1.000  O
  O6       1.0000 0.57700  0.37730  0.96120  Biso   1.000  O
  O7       1.0000 0.92300  0.87730  0.53880  Biso   1.000  O
  O8       1.0000 0.42300  0.37730  0.53880  Biso   1.000  O
  O9       1.0000 0.86490  0.17710  0.83880  Biso   1.000  O
  O10      1.0000 0.36490  0.67710  0.83880  Biso   1.000  O
  O11      1.0000 0.13510  0.17710  0.66120  Biso   1.000  O
  O12      1.0000 0.63510  0.67710  0.66120  Biso   1.000  O
  O13      1.0000 0.13510  0.82290  0.16120  Biso   1.000  O
  O14      1.0000 0.63510  0.32290  0.16120  Biso   1.000  O
  O15      1.0000 0.86490  0.82290  0.33880  Biso   1.000  O
  O16      1.0000 0.36490  0.32290  0.33880  Biso   1.000  O
  O17      1.0000 0.00000  0.95730  0.25000  Biso   1.000  O
  O18      1.0000 0.50000  0.45730  0.25000  Biso   1.000  O
  O19      1.0000 0.00000  0.04270  0.75000  Biso   1.000  O
  O20      1.0000 0.50000  0.54270  0.75000  Biso   1.000  O
  N1       1.0000 0.13430  0.07820  0.05290  Biso   1.000  N
  N2       1.0000 0.63430  0.57820  0.05290  Biso   1.000  N
  N3       1.0000 0.86570  0.07820  0.44710  Biso   1.000  N
  N4       1.0000 0.36570  0.57820  0.44710  Biso   1.000  N
  N5       1.0000 0.86570  0.92180  0.94710  Biso   1.000  N
  N6       1.0000 0.36570  0.42180  0.94710  Biso   1.000  N
  N7       1.0000 0.13430  0.92180  0.55290  Biso   1.000  N
  N8       1.0000 0.63430  0.42180  0.55290  Biso   1.000  N
  N9       1.0000 0.24900  0.18160  0.17160  Biso   1.000  N
  N10      1.0000 0.74900  0.68160  0.17160  Biso   1.000  N
  N11      1.0000 0.75100  0.18160  0.32840  Biso   1.000  N
  N12      1.0000 0.25100  0.68160  0.32840  Biso   1.000  N
  N13      1.0000 0.75100  0.81840  0.82840  Biso   1.000  N
  N14      1.0000 0.25100  0.31840  0.82840  Biso   1.000  N
  N15      1.0000 0.24900  0.81840  0.67160  Biso   1.000  N
  N16      1.0000 0.74900  0.31840  0.67160  Biso   1.000  N
  C1       1.0000 0.15120  0.14140  0.15200  Biso   1.000  C
  C2       1.0000 0.65120  0.64140  0.15200  Biso   1.000  C
  C3       1.0000 0.84880  0.14140  0.34800  Biso   1.000  C
  C4       1.0000 0.34880  0.64140  0.34800  Biso   1.000  C
  C5       1.0000 0.84880  0.85860  0.84800  Biso   1.000  C
  C6       1.0000 0.34880  0.35860  0.84800  Biso   1.000  C
  C7       1.0000 0.15120  0.85860  0.65200  Biso   1.000  C
  C8       1.0000 0.65120  0.35860  0.65200  Biso   1.000  C
  C9       1.0000 0.40140  0.15980  0.05160  Biso   1.000  C
  C10      1.0000 0.90140  0.65980  0.05160  Biso   1.000  C
  C11      1.0000 0.59860  0.15980  0.44840  Biso   1.000  C
  C12      1.0000 0.09860  0.65980  0.44840  Biso   1.000  C
  C13      1.0000 0.59860  0.84020  0.94840  Biso   1.000  C
  C14      1.0000 0.09860  0.34020  0.94840  Biso   1.000  C
  C15      1.0000 0.40140  0.84020  0.55160  Biso   1.000  C
  C16      1.0000 0.90140  0.34020  0.55160  Biso   1.000  C
  C17      1.0000 0.42600  0.11020  0.94510  Biso   1.000  C
  C18      1.0000 0.92600  0.61020  0.94510  Biso   1.000  C
  C19      1.0000 0.57400  0.11020  0.55490  Biso   1.000  C
  C20      1.0000 0.07400  0.61020  0.55490  Biso   1.000  C
  C21      1.0000 0.57400  0.88980  0.05490  Biso   1.000  C
  C22      1.0000 0.07400  0.38980  0.05490  Biso   1.000  C
  C23      1.0000 0.42600  0.88980  0.44510  Biso   1.000  C
  C24      1.0000 0.92600  0.38980  0.44510  Biso   1.000  C
  C25      1.0000 0.35440  0.04660  0.86760  Biso   1.000  C
  C26      1.0000 0.85440  0.54660  0.86760  Biso   1.000  C
  C27      1.0000 0.64560  0.04660  0.63240  Biso   1.000  C
  C28      1.0000 0.14560  0.54660  0.63240  Biso   1.000  C
  C29      1.0000 0.64560  0.95340  0.13240  Biso   1.000  C
  C30      1.0000 0.14560  0.45340  0.13240  Biso   1.000  C
  C31      1.0000 0.35440  0.95340  0.36760  Biso   1.000  C
  C32      1.0000 0.85440  0.45340  0.36760  Biso   1.000  C
  C33      1.0000 0.25450  0.02970  0.89510  Biso   1.000  C
  C34      1.0000 0.75450  0.52970  0.89510  Biso   1.000  C
  C35      1.0000 0.74550  0.02970  0.60490  Biso   1.000  C
  C36      1.0000 0.24550  0.52970  0.60490  Biso   1.000  C
  C37      1.0000 0.74550  0.97030  0.10490  Biso   1.000  C
  C38      1.0000 0.24550  0.47030  0.10490  Biso   1.000  C
  C39      1.0000 0.25450  0.97030  0.39510  Biso   1.000  C
  C40      1.0000 0.75450  0.47030  0.39510  Biso   1.000  C
  C41      1.0000 0.22790  0.07840  0.00210  Biso   1.000  C
  C42      1.0000 0.72790  0.57840  0.00210  Biso   1.000  C
  C43      1.0000 0.77210  0.07840  0.49790  Biso   1.000  C
  C44      1.0000 0.27210  0.57840  0.49790  Biso   1.000  C
  C45      1.0000 0.77210  0.92160  0.99790  Biso   1.000  C
  C46      1.0000 0.27210  0.42160  0.99790  Biso   1.000  C
  C47      1.0000 0.22790  0.92160  0.50210  Biso   1.000  C
  C48      1.0000 0.72790  0.42160  0.50210  Biso   1.000  C
  C49      1.0000 0.30010  0.14320  0.07750  Biso   1.000  C
  C50      1.0000 0.80010  0.64320  0.07750  Biso   1.000  C
  C51      1.0000 0.69990  0.14320  0.42250  Biso   1.000  C
  C52      1.0000 0.19990  0.64320  0.42250  Biso   1.000  C
  C53      1.0000 0.69990  0.85680  0.92250  Biso   1.000  C
  C54      1.0000 0.19990  0.35680  0.92250  Biso   1.000  C
  C55      1.0000 0.30010  0.85680  0.57750  Biso   1.000  C
  C56      1.0000 0.80010  0.35680  0.57750  Biso   1.000  C
  C57      1.0000 0.87110  0.18230  0.95730  Biso   1.000  C
  C58      1.0000 0.37110  0.68230  0.95730  Biso   1.000  C
  C59      1.0000 0.12890  0.18230  0.54270  Biso   1.000  C
  C60      1.0000 0.62890  0.68230  0.54270  Biso   1.000  C
  C61      1.0000 0.12890  0.81770  0.04270  Biso   1.000  C
  C62      1.0000 0.62890  0.31770  0.04270  Biso   1.000  C
  C63      1.0000 0.87110  0.81770  0.45730  Biso   1.000  C
  C64      1.0000 0.37110  0.31770  0.45730  Biso   1.000  C
  C65      1.0000 0.80860  0.26510  0.01110  Biso   1.000  C
  C66      1.0000 0.30860  0.76510  0.01110  Biso   1.000  C
  C67      1.0000 0.19140  0.26510  0.48890  Biso   1.000  C
  C68      1.0000 0.69140  0.76510  0.48890  Biso   1.000  C
  C69      1.0000 0.19140  0.73490  0.98890  Biso   1.000  C
  C70      1.0000 0.69140  0.23490  0.98890  Biso   1.000  C
  C71      1.0000 0.80860  0.73490  0.51110  Biso   1.000  C
  C72      1.0000 0.30860  0.23490  0.51110  Biso   1.000  C
  H1       1.0000 0.05000  0.91500  0.23500  Biso   1.000  H
  H2       1.0000 0.55000  0.41500  0.23500  Biso   1.000  H
  H3       1.0000 0.95000  0.91500  0.26500  Biso   1.000  H
  H4       1.0000 0.45000  0.41500  0.26500  Biso   1.000  H
  H5       1.0000 0.95000  0.08500  0.76500  Biso   1.000  H
  H6       1.0000 0.45000  0.58500  0.76500  Biso   1.000  H
  H7       1.0000 0.05000  0.08500  0.73500  Biso   1.000  H
  H8       1.0000 0.55000  0.58500  0.73500  Biso   1.000  H
  H9       1.0000 0.09300  0.15900  0.21100  Biso   1.000  H
  H10      1.0000 0.59300  0.65900  0.21100  Biso   1.000  H
  H11      1.0000 0.90700  0.15900  0.28900  Biso   1.000  H
  H12      1.0000 0.40700  0.65900  0.28900  Biso   1.000  H
  H13      1.0000 0.90700  0.84100  0.78900  Biso   1.000  H
  H14      1.0000 0.40700  0.34100  0.78900  Biso   1.000  H
  H15      1.0000 0.09300  0.84100  0.71100  Biso   1.000  H
  H16      1.0000 0.59300  0.34100  0.71100  Biso   1.000  H
  H17      1.0000 0.28000  0.23200  0.24300  Biso   1.000  H
  H18      1.0000 0.78000  0.73200  0.24300  Biso   1.000  H
  H19      1.0000 0.72000  0.23200  0.25700  Biso   1.000  H
  H20      1.0000 0.22000  0.73200  0.25700  Biso   1.000  H
  H21      1.0000 0.72000  0.76800  0.75700  Biso   1.000  H
  H22      1.0000 0.22000  0.26800  0.75700  Biso   1.000  H
  H23      1.0000 0.28000  0.76800  0.74300  Biso   1.000  H
  H24      1.0000 0.78000  0.26800  0.74300  Biso   1.000  H
  H25      1.0000 0.45800  0.20700  0.11100  Biso   1.000  H
  H26      1.0000 0.95800  0.70700  0.11100  Biso   1.000  H
  H27      1.0000 0.54200  0.20700  0.38900  Biso   1.000  H
  H28      1.0000 0.04200  0.70700  0.38900  Biso   1.000  H
  H29      1.0000 0.54200  0.79300  0.88900  Biso   1.000  H
  H30      1.0000 0.04200  0.29300  0.88900  Biso   1.000  H
  H31      1.0000 0.45800  0.79300  0.61100  Biso   1.000  H
  H32      1.0000 0.95800  0.29300  0.61100  Biso   1.000  H
  H33      1.0000 0.50400  0.12100  0.92200  Biso   1.000  H
  H34      1.0000 0.00400  0.62100  0.92200  Biso   1.000  H
  H35      1.0000 0.49600  0.12100  0.57800  Biso   1.000  H
  H36      1.0000 0.99600  0.62100  0.57800  Biso   1.000  H
  H37      1.0000 0.49600  0.87900  0.07800  Biso   1.000  H
  H38      1.0000 0.99600  0.37900  0.07800  Biso   1.000  H
  H39      1.0000 0.50400  0.87900  0.42200  Biso   1.000  H
  H40      1.0000 0.00400  0.37900  0.42200  Biso   1.000  H
  H41      1.0000 0.37600  0.01100  0.78200  Biso   1.000  H
  H42      1.0000 0.87600  0.51100  0.78200  Biso   1.000  H
  H43      1.0000 0.62400  0.01100  0.71800  Biso   1.000  H
  H44      1.0000 0.12400  0.51100  0.71800  Biso   1.000  H
  H45      1.0000 0.62400  0.98900  0.21800  Biso   1.000  H
  H46      1.0000 0.12400  0.48900  0.21800  Biso   1.000  H
  H47      1.0000 0.37600  0.98900  0.28200  Biso   1.000  H
  H48      1.0000 0.87600  0.48900  0.28200  Biso   1.000  H
  H49      1.0000 0.19900  0.97900  0.83600  Biso   1.000  H
  H50      1.0000 0.69900  0.47900  0.83600  Biso   1.000  H
  H51      1.0000 0.80100  0.97900  0.66400  Biso   1.000  H
  H52      1.0000 0.30100  0.47900  0.66400  Biso   1.000  H
  H53      1.0000 0.80100  0.02100  0.16400  Biso   1.000  H
  H54      1.0000 0.30100  0.52100  0.16400  Biso   1.000  H
  H55      1.0000 0.19900  0.02100  0.33600  Biso   1.000  H
  H56      1.0000 0.69900  0.52100  0.33600  Biso   1.000  H
