data_image0
_cell_length_a       5.073
_cell_length_b       11.463
_cell_length_c       20.198
_cell_angle_alpha    90
_cell_angle_beta     90
_cell_angle_gamma    90

_symmetry_space_group_name_H-M    "P 1"
_symmetry_int_tables_number       1

loop_
  _symmetry_equiv_pos_as_xyz
  'x, y, z'

loop_
  _atom_site_label
  _atom_site_occupancy
  _atom_site_fract_x
  _atom_site_fract_y
  _atom_site_fract_z
  _atom_site_thermal_displace_type
  _atom_site_B_iso_or_equiv
  _atom_site_type_symbol
  Cu1      1.0000 0.12152  0.49440  0.00250  Biso   1.000  Cu
  Cu2      1.0000 0.62152  0.00560  0.99750  Biso   1.000  Cu
  Cu3      1.0000 0.87848  0.99440  0.49750  Biso   1.000  Cu
  Cu4      1.0000 0.37848  0.50560  0.50250  Biso   1.000  Cu
  O1       1.0000 0.71210  0.31370  0.97360  Biso   1.000  O
  O2       1.0000 0.21210  0.18630  0.02640  Biso   1.000  O
  O3       1.0000 0.28790  0.81370  0.52640  Biso   1.000  O
  O4       1.0000 0.78790  0.68630  0.47360  Biso   1.000  O
  O5       1.0000 0.46840  0.35920  0.08520  Biso   1.000  O
  O6       1.0000 0.96840  0.14080  0.91480  Biso   1.000  O
  O7       1.0000 0.53160  0.85920  0.41480  Biso   1.000  O
  O8       1.0000 0.03160  0.64080  0.58520  Biso   1.000  O
  O9       1.0000 0.49690  0.69420  0.02260  Biso   1.000  O
  O10      1.0000 0.99690  0.80580  0.97740  Biso   1.000  O
  O11      1.0000 0.50310  0.19420  0.47740  Biso   1.000  O
  O12      1.0000 0.00310  0.30580  0.52260  Biso   1.000  O
  O13      1.0000 0.66790  0.67520  0.89990  Biso   1.000  O
  O14      1.0000 0.16790  0.82480  0.10010  Biso   1.000  O
  O15      1.0000 0.33210  0.17520  0.60010  Biso   1.000  O
  O16      1.0000 0.83210  0.32480  0.39990  Biso   1.000  O
  O17      1.0000 0.33880  0.22240  0.19340  Biso   1.000  O
  O18      1.0000 0.83880  0.27760  0.80660  Biso   1.000  O
  O19      1.0000 0.66120  0.72240  0.30660  Biso   1.000  O
  O20      1.0000 0.16120  0.77760  0.69340  Biso   1.000  O
  O21      1.0000 0.66750  0.76090  0.76270  Biso   1.000  O
  O22      1.0000 0.16750  0.73910  0.23730  Biso   1.000  O
  O23      1.0000 0.33250  0.26090  0.73730  Biso   1.000  O
  O24      1.0000 0.83250  0.23910  0.26270  Biso   1.000  O
  N1       1.0000 0.83130  0.38870  0.02020  Biso   1.000  N
  N2       1.0000 0.33130  0.11130  0.97980  Biso   1.000  N
  N3       1.0000 0.16870  0.88870  0.47980  Biso   1.000  N
  N4       1.0000 0.66870  0.61130  0.52020  Biso   1.000  N
  N5       1.0000 0.98440  0.56930  0.08570  Biso   1.000  N
  N6       1.0000 0.48440  0.93070  0.91430  Biso   1.000  N
  N7       1.0000 0.01560  0.06930  0.41430  Biso   1.000  N
  N8       1.0000 0.51560  0.43070  0.58570  Biso   1.000  N
  N9       1.0000 0.39100  0.60590  0.98060  Biso   1.000  N
  N10      1.0000 0.89100  0.89410  0.01940  Biso   1.000  N
  N11      1.0000 0.60900  0.10590  0.51940  Biso   1.000  N
  N12      1.0000 0.10900  0.39410  0.48060  Biso   1.000  N
  N13      1.0000 0.24490  0.42250  0.91810  Biso   1.000  N
  N14      1.0000 0.74490  0.07750  0.08190  Biso   1.000  N
  N15      1.0000 0.75510  0.92250  0.58190  Biso   1.000  N
  N16      1.0000 0.25510  0.57750  0.41810  Biso   1.000  N
  C1       1.0000 0.68910  0.40470  0.07300  Biso   1.000  C
  C2       1.0000 0.18910  0.09530  0.92700  Biso   1.000  C
  C3       1.0000 0.31090  0.90470  0.42700  Biso   1.000  C
  C4       1.0000 0.81090  0.59530  0.57300  Biso   1.000  C
  C5       1.0000 0.82330  0.48460  0.12270  Biso   1.000  C
  C6       1.0000 0.32330  0.01540  0.87730  Biso   1.000  C
  C7       1.0000 0.17670  0.98460  0.37730  Biso   1.000  C
  C8       1.0000 0.67670  0.51540  0.62270  Biso   1.000  C
  C9       1.0000 0.63760  0.54280  0.17090  Biso   1.000  C
  C10      1.0000 0.13760  0.95720  0.82910  Biso   1.000  C
  C11      1.0000 0.36240  0.04280  0.32910  Biso   1.000  C
  C12      1.0000 0.86240  0.45720  0.67090  Biso   1.000  C
  C13      1.0000 0.49910  0.60480  0.92180  Biso   1.000  C
  C14      1.0000 0.99910  0.89520  0.07820  Biso   1.000  C
  C15      1.0000 0.50090  0.10480  0.57820  Biso   1.000  C
  C16      1.0000 0.00090  0.39520  0.42180  Biso   1.000  C
  C17      1.0000 0.39760  0.50770  0.87780  Biso   1.000  C
  C18      1.0000 0.89760  0.99230  0.12220  Biso   1.000  C
  C19      1.0000 0.60240  0.00770  0.62220  Biso   1.000  C
  C20      1.0000 0.10240  0.49230  0.37780  Biso   1.000  C
  C21      1.0000 0.22690  0.55400  0.82250  Biso   1.000  C
  C22      1.0000 0.72690  0.94600  0.17750  Biso   1.000  C
  C23      1.0000 0.77310  0.05400  0.67750  Biso   1.000  C
  C24      1.0000 0.27310  0.44600  0.32250  Biso   1.000  C
  H1       1.0000 0.81300  0.25800  0.95600  Biso   1.000  H
  H2       1.0000 0.31300  0.24200  0.04400  Biso   1.000  H
  H3       1.0000 0.18700  0.75800  0.54400  Biso   1.000  H
  H4       1.0000 0.68700  0.74200  0.45600  Biso   1.000  H
  H5       1.0000 0.95200  0.43100  0.15100  Biso   1.000  H
  H6       1.0000 0.45200  0.06900  0.84900  Biso   1.000  H
  H7       1.0000 0.04800  0.93100  0.34900  Biso   1.000  H
  H8       1.0000 0.54800  0.56900  0.65100  Biso   1.000  H
  H9       1.0000 0.10900  0.60400  0.11300  Biso   1.000  H
  H10      1.0000 0.60900  0.89600  0.88700  Biso   1.000  H
  H11      1.0000 0.89100  0.10400  0.38700  Biso   1.000  H
  H12      1.0000 0.39100  0.39600  0.61300  Biso   1.000  H
  H13      1.0000 0.92800  0.63600  0.06900  Biso   1.000  H
  H14      1.0000 0.42800  0.86400  0.93100  Biso   1.000  H
  H15      1.0000 0.07200  0.13600  0.43100  Biso   1.000  H
  H16      1.0000 0.57200  0.36400  0.56900  Biso   1.000  H
  H17      1.0000 0.53500  0.48800  0.18700  Biso   1.000  H
  H18      1.0000 0.03500  0.01200  0.81300  Biso   1.000  H
  H19      1.0000 0.46500  0.98800  0.31300  Biso   1.000  H
  H20      1.0000 0.96500  0.51200  0.68700  Biso   1.000  H
  H21      1.0000 0.74700  0.57500  0.20100  Biso   1.000  H
  H22      1.0000 0.24700  0.92500  0.79900  Biso   1.000  H
  H23      1.0000 0.25300  0.07500  0.29900  Biso   1.000  H
  H24      1.0000 0.75300  0.42500  0.70100  Biso   1.000  H
  H25      1.0000 0.56800  0.59700  0.15000  Biso   1.000  H
  H26      1.0000 0.06800  0.90300  0.85000  Biso   1.000  H
  H27      1.0000 0.43200  0.09700  0.35000  Biso   1.000  H
  H28      1.0000 0.93200  0.40300  0.65000  Biso   1.000  H
  H29      1.0000 0.41900  0.73400  0.04900  Biso   1.000  H
  H30      1.0000 0.91900  0.76600  0.95100  Biso   1.000  H
  H31      1.0000 0.58100  0.23400  0.45100  Biso   1.000  H
  H32      1.0000 0.08100  0.26600  0.54900  Biso   1.000  H
  H33      1.0000 0.54700  0.47700  0.86000  Biso   1.000  H
  H34      1.0000 0.04700  0.02300  0.14000  Biso   1.000  H
  H35      1.0000 0.45300  0.97700  0.64000  Biso   1.000  H
  H36      1.0000 0.95300  0.52300  0.36000  Biso   1.000  H
  H37      1.0000 0.34900  0.37000  0.92400  Biso   1.000  H
  H38      1.0000 0.84900  0.13000  0.07600  Biso   1.000  H
  H39      1.0000 0.65100  0.87000  0.57600  Biso   1.000  H
  H40      1.0000 0.15100  0.63000  0.42400  Biso   1.000  H
  H41      1.0000 0.11600  0.40000  0.89300  Biso   1.000  H
  H42      1.0000 0.61600  0.10000  0.10700  Biso   1.000  H
  H43      1.0000 0.88400  0.90000  0.60700  Biso   1.000  H
  H44      1.0000 0.38400  0.60000  0.39300  Biso   1.000  H
  H45      1.0000 0.04500  0.59400  0.84100  Biso   1.000  H
  H46      1.0000 0.54500  0.90600  0.15900  Biso   1.000  H
  H47      1.0000 0.95500  0.09400  0.65900  Biso   1.000  H
  H48      1.0000 0.45500  0.40600  0.34100  Biso   1.000  H
  H49      1.0000 0.13800  0.49900  0.79700  Biso   1.000  H
  H50      1.0000 0.63800  0.00100  0.20300  Biso   1.000  H
  H51      1.0000 0.86200  0.99900  0.70300  Biso   1.000  H
  H52      1.0000 0.36200  0.50100  0.29700  Biso   1.000  H
  H53      1.0000 0.30600  0.60700  0.80100  Biso   1.000  H
  H54      1.0000 0.80600  0.89300  0.19900  Biso   1.000  H
  H55      1.0000 0.69400  0.10700  0.69900  Biso   1.000  H
  H56      1.0000 0.19400  0.39300  0.30100  Biso   1.000  H
  H57      1.0000 0.33600  0.26500  0.16100  Biso   1.000  H
  H58      1.0000 0.83600  0.23500  0.83900  Biso   1.000  H
  H59      1.0000 0.66400  0.76500  0.33900  Biso   1.000  H
  H60      1.0000 0.16400  0.73500  0.66100  Biso   1.000  H
  H61      1.0000 0.17800  0.22600  0.20800  Biso   1.000  H
  H62      1.0000 0.67800  0.27400  0.79200  Biso   1.000  H
  H63      1.0000 0.82200  0.72600  0.29200  Biso   1.000  H
  H64      1.0000 0.32200  0.77400  0.70800  Biso   1.000  H
  H65      1.0000 0.69200  0.73100  0.80100  Biso   1.000  H
  H66      1.0000 0.19200  0.76900  0.19900  Biso   1.000  H
  H67      1.0000 0.30800  0.23100  0.69900  Biso   1.000  H
  H68      1.0000 0.80800  0.26900  0.30100  Biso   1.000  H
  H69      1.0000 0.81300  0.76800  0.73800  Biso   1.000  H
  H70      1.0000 0.31300  0.73200  0.26200  Biso   1.000  H
  H71      1.0000 0.18700  0.26800  0.76200  Biso   1.000  H
  H72      1.0000 0.68700  0.23200  0.23800  Biso   1.000  H
