data_image0
_cell_length_a       11.545
_cell_length_b       11.545
_cell_length_c       32.9386
_cell_angle_alpha    90
_cell_angle_beta     90
_cell_angle_gamma    120

_symmetry_space_group_name_H-M    "P 1"
_symmetry_int_tables_number       1

loop_
  _symmetry_equiv_pos_as_xyz
  'x, y, z'

loop_
  _atom_site_label
  _atom_site_occupancy
  _atom_site_fract_x
  _atom_site_fract_y
  _atom_site_fract_z
  _atom_site_thermal_displace_type
  _atom_site_B_iso_or_equiv
  _atom_site_type_symbol
  Cu1      1.0000 0.87294  0.12706  0.08330  Biso   1.000  Cu
  Cu2      1.0000 0.87294  0.74588  0.74997  Biso   1.000  Cu
  Cu3      1.0000 0.25412  0.12706  0.41663  Biso   1.000  Cu
  Cu4      1.0000 0.12706  0.87294  0.58330  Biso   1.000  Cu
  Cu5      1.0000 0.12706  0.25412  0.24997  Biso   1.000  Cu
  Cu6      1.0000 0.74588  0.87294  0.91663  Biso   1.000  Cu
  O1       1.0000 0.81330  0.92000  0.08238  Biso   1.000  O
  O2       1.0000 0.08000  0.89330  0.74905  Biso   1.000  O
  O3       1.0000 0.10670  0.18670  0.41571  Biso   1.000  O
  O4       1.0000 0.18670  0.08000  0.58238  Biso   1.000  O
  O5       1.0000 0.92000  0.10670  0.24905  Biso   1.000  O
  O6       1.0000 0.89330  0.81330  0.91571  Biso   1.000  O
  O7       1.0000 0.92000  0.81330  0.58429  Biso   1.000  O
  O8       1.0000 0.89330  0.08000  0.91762  Biso   1.000  O
  O9       1.0000 0.18670  0.10670  0.25095  Biso   1.000  O
  O10      1.0000 0.08000  0.18670  0.08429  Biso   1.000  O
  O11      1.0000 0.10670  0.92000  0.41762  Biso   1.000  O
  O12      1.0000 0.81330  0.89330  0.75095  Biso   1.000  O
  H1       1.0000 0.82300  0.87900  0.06260  Biso   1.000  H
  H2       1.0000 0.12100  0.94400  0.72927  Biso   1.000  H
  H3       1.0000 0.05600  0.17700  0.39593  Biso   1.000  H
  H4       1.0000 0.17700  0.12100  0.56260  Biso   1.000  H
  H5       1.0000 0.87900  0.05600  0.22927  Biso   1.000  H
  H6       1.0000 0.94400  0.82300  0.89593  Biso   1.000  H
  H7       1.0000 0.87900  0.82300  0.60407  Biso   1.000  H
  H8       1.0000 0.94400  0.12100  0.93740  Biso   1.000  H
  H9       1.0000 0.17700  0.05600  0.27073  Biso   1.000  H
  H10      1.0000 0.12100  0.17700  0.10407  Biso   1.000  H
  H11      1.0000 0.05600  0.87900  0.43740  Biso   1.000  H
  H12      1.0000 0.82300  0.94400  0.77073  Biso   1.000  H
  O13      1.0000 0.84690  0.08270  0.14201  Biso   1.000  O
  O14      1.0000 0.91730  0.76420  0.80868  Biso   1.000  O
  O15      1.0000 0.23580  0.15310  0.47534  Biso   1.000  O
  O16      1.0000 0.15310  0.91730  0.64201  Biso   1.000  O
  O17      1.0000 0.08270  0.23580  0.30868  Biso   1.000  O
  O18      1.0000 0.76420  0.84690  0.97534  Biso   1.000  O
  O19      1.0000 0.08270  0.84690  0.52466  Biso   1.000  O
  O20      1.0000 0.76420  0.91730  0.85799  Biso   1.000  O
  O21      1.0000 0.15310  0.23580  0.19132  Biso   1.000  O
  O22      1.0000 0.91730  0.15310  0.02466  Biso   1.000  O
  O23      1.0000 0.23580  0.08270  0.35799  Biso   1.000  O
  O24      1.0000 0.84690  0.76420  0.69132  Biso   1.000  O
  O25      1.0000 0.82270  0.93520  0.18939  Biso   1.000  O
  O26      1.0000 0.06480  0.88750  0.85606  Biso   1.000  O
  O27      1.0000 0.11250  0.17730  0.52272  Biso   1.000  O
  O28      1.0000 0.17730  0.06480  0.68939  Biso   1.000  O
  O29      1.0000 0.93520  0.11250  0.35606  Biso   1.000  O
  O30      1.0000 0.88750  0.82270  0.02272  Biso   1.000  O
  O31      1.0000 0.93520  0.82270  0.47728  Biso   1.000  O
  O32      1.0000 0.88750  0.06480  0.81061  Biso   1.000  O
  O33      1.0000 0.17730  0.11250  0.14394  Biso   1.000  O
  O34      1.0000 0.06480  0.17730  0.97728  Biso   1.000  O
  O35      1.0000 0.11250  0.93520  0.31061  Biso   1.000  O
  O36      1.0000 0.82270  0.88750  0.64394  Biso   1.000  O
  N1       1.0000 0.66630  0.06630  0.07350  Biso   1.000  N
  N2       1.0000 0.93370  0.60000  0.74017  Biso   1.000  N
  N3       1.0000 0.40000  0.33370  0.40683  Biso   1.000  N
  N4       1.0000 0.33370  0.93370  0.57350  Biso   1.000  N
  N5       1.0000 0.06630  0.40000  0.24017  Biso   1.000  N
  N6       1.0000 0.60000  0.66630  0.90683  Biso   1.000  N
  N7       1.0000 0.06630  0.66630  0.59317  Biso   1.000  N
  N8       1.0000 0.60000  0.93370  0.92650  Biso   1.000  N
  N9       1.0000 0.33370  0.40000  0.25983  Biso   1.000  N
  N10      1.0000 0.93370  0.33370  0.09317  Biso   1.000  N
  N11      1.0000 0.40000  0.06630  0.42650  Biso   1.000  N
  N12      1.0000 0.66630  0.60000  0.75983  Biso   1.000  N
  C1       1.0000 0.69230  0.73390  0.12780  Biso   1.000  C
  C2       1.0000 0.26610  0.95840  0.79447  Biso   1.000  C
  C3       1.0000 0.04160  0.30770  0.46113  Biso   1.000  C
  C4       1.0000 0.30770  0.26610  0.62780  Biso   1.000  C
  C5       1.0000 0.73390  0.04160  0.29447  Biso   1.000  C
  C6       1.0000 0.95840  0.69230  0.96113  Biso   1.000  C
  C7       1.0000 0.73390  0.69230  0.53887  Biso   1.000  C
  C8       1.0000 0.95840  0.26610  0.87220  Biso   1.000  C
  C9       1.0000 0.30770  0.04160  0.20553  Biso   1.000  C
  C10      1.0000 0.26610  0.30770  0.03887  Biso   1.000  C
  C11      1.0000 0.04160  0.73390  0.37220  Biso   1.000  C
  C12      1.0000 0.69230  0.95840  0.70553  Biso   1.000  C
  C13      1.0000 0.70030  0.61960  0.13070  Biso   1.000  C
  C14      1.0000 0.38040  0.08070  0.79737  Biso   1.000  C
  C15      1.0000 0.91930  0.29970  0.46403  Biso   1.000  C
  C16      1.0000 0.29970  0.38040  0.63070  Biso   1.000  C
  C17      1.0000 0.61960  0.91930  0.29737  Biso   1.000  C
  C18      1.0000 0.08070  0.70030  0.96403  Biso   1.000  C
  C19      1.0000 0.61960  0.70030  0.53597  Biso   1.000  C
  C20      1.0000 0.08070  0.38040  0.86930  Biso   1.000  C
  C21      1.0000 0.29970  0.91930  0.20263  Biso   1.000  C
  C22      1.0000 0.38040  0.29970  0.03597  Biso   1.000  C
  C23      1.0000 0.91930  0.61960  0.36930  Biso   1.000  C
  C24      1.0000 0.70030  0.08070  0.70263  Biso   1.000  C
  H13      1.0000 0.78580  0.62650  0.12950  Biso   1.000  H
  H14      1.0000 0.37350  0.15930  0.79617  Biso   1.000  H
  H15      1.0000 0.84070  0.21420  0.46283  Biso   1.000  H
  H16      1.0000 0.21420  0.37350  0.62950  Biso   1.000  H
  H17      1.0000 0.62650  0.84070  0.29617  Biso   1.000  H
  H18      1.0000 0.15930  0.78580  0.96283  Biso   1.000  H
  H19      1.0000 0.62650  0.78580  0.53717  Biso   1.000  H
  H20      1.0000 0.15930  0.37350  0.87050  Biso   1.000  H
  H21      1.0000 0.21420  0.84070  0.20383  Biso   1.000  H
  H22      1.0000 0.37350  0.21420  0.03717  Biso   1.000  H
  H23      1.0000 0.84070  0.62650  0.37050  Biso   1.000  H
  H24      1.0000 0.78580  0.15930  0.70383  Biso   1.000  H
  C25      1.0000 0.58610  0.49210  0.13560  Biso   1.000  C
  C26      1.0000 0.50790  0.09400  0.80227  Biso   1.000  C
  C27      1.0000 0.90600  0.41390  0.46893  Biso   1.000  C
  C28      1.0000 0.41390  0.50790  0.63560  Biso   1.000  C
  C29      1.0000 0.49210  0.90600  0.30227  Biso   1.000  C
  C30      1.0000 0.09400  0.58610  0.96893  Biso   1.000  C
  C31      1.0000 0.49210  0.58610  0.53107  Biso   1.000  C
  C32      1.0000 0.09400  0.50790  0.86440  Biso   1.000  C
  C33      1.0000 0.41390  0.90600  0.19773  Biso   1.000  C
  C34      1.0000 0.50790  0.41390  0.03107  Biso   1.000  C
  C35      1.0000 0.90600  0.49210  0.36440  Biso   1.000  C
  C36      1.0000 0.58610  0.09400  0.69773  Biso   1.000  C
  H25      1.0000 0.59490  0.41490  0.13820  Biso   1.000  H
  H26      1.0000 0.58510  0.18000  0.80487  Biso   1.000  H
  H27      1.0000 0.82000  0.40510  0.47153  Biso   1.000  H
  H28      1.0000 0.40510  0.58510  0.63820  Biso   1.000  H
  H29      1.0000 0.41490  0.82000  0.30487  Biso   1.000  H
  H30      1.0000 0.18000  0.59490  0.97153  Biso   1.000  H
  H31      1.0000 0.41490  0.59490  0.52847  Biso   1.000  H
  H32      1.0000 0.18000  0.58510  0.86180  Biso   1.000  H
  H33      1.0000 0.40510  0.82000  0.19513  Biso   1.000  H
  H34      1.0000 0.58510  0.40510  0.02847  Biso   1.000  H
  H35      1.0000 0.82000  0.41490  0.36180  Biso   1.000  H
  H36      1.0000 0.59490  0.18000  0.69513  Biso   1.000  H
  C37      1.0000 0.46910  0.48190  0.13640  Biso   1.000  C
  C38      1.0000 0.51810  0.98720  0.80307  Biso   1.000  C
  C39      1.0000 0.01280  0.53090  0.46973  Biso   1.000  C
  C40      1.0000 0.53090  0.51810  0.63640  Biso   1.000  C
  C41      1.0000 0.48190  0.01280  0.30307  Biso   1.000  C
  C42      1.0000 0.98720  0.46910  0.96973  Biso   1.000  C
  C43      1.0000 0.48190  0.46910  0.53027  Biso   1.000  C
  C44      1.0000 0.98720  0.51810  0.86360  Biso   1.000  C
  C45      1.0000 0.53090  0.01280  0.19693  Biso   1.000  C
  C46      1.0000 0.51810  0.53090  0.03027  Biso   1.000  C
  C47      1.0000 0.01280  0.48190  0.36360  Biso   1.000  C
  C48      1.0000 0.46910  0.98720  0.69693  Biso   1.000  C
  H37      1.0000 0.39230  0.39550  0.13870  Biso   1.000  H
  H38      1.0000 0.60450  0.99680  0.80537  Biso   1.000  H
  H39      1.0000 0.00320  0.60770  0.47203  Biso   1.000  H
  H40      1.0000 0.60770  0.60450  0.63870  Biso   1.000  H
  H41      1.0000 0.39550  0.00320  0.30537  Biso   1.000  H
  H42      1.0000 0.99680  0.39230  0.97203  Biso   1.000  H
  H43      1.0000 0.39550  0.39230  0.52797  Biso   1.000  H
  H44      1.0000 0.99680  0.60450  0.86130  Biso   1.000  H
  H45      1.0000 0.60770  0.00320  0.19463  Biso   1.000  H
  H46      1.0000 0.60450  0.60770  0.02797  Biso   1.000  H
  H47      1.0000 0.00320  0.39550  0.36130  Biso   1.000  H
  H48      1.0000 0.39230  0.99680  0.69463  Biso   1.000  H
  C49      1.0000 0.45190  0.58980  0.13410  Biso   1.000  C
  C50      1.0000 0.41020  0.86210  0.80077  Biso   1.000  C
  C51      1.0000 0.13790  0.54810  0.46743  Biso   1.000  C
  C52      1.0000 0.54810  0.41020  0.63410  Biso   1.000  C
  C53      1.0000 0.58980  0.13790  0.30077  Biso   1.000  C
  C54      1.0000 0.86210  0.45190  0.96743  Biso   1.000  C
  C55      1.0000 0.58980  0.45190  0.53257  Biso   1.000  C
  C56      1.0000 0.86210  0.41020  0.86590  Biso   1.000  C
  C57      1.0000 0.54810  0.13790  0.19923  Biso   1.000  C
  C58      1.0000 0.41020  0.54810  0.03257  Biso   1.000  C
  C59      1.0000 0.13790  0.58980  0.36590  Biso   1.000  C
  C60      1.0000 0.45190  0.86210  0.69923  Biso   1.000  C
  H49      1.0000 0.36510  0.57930  0.13590  Biso   1.000  H
  H50      1.0000 0.42070  0.78580  0.80257  Biso   1.000  H
  H51      1.0000 0.21420  0.63490  0.46923  Biso   1.000  H
  H52      1.0000 0.63490  0.42070  0.63590  Biso   1.000  H
  H53      1.0000 0.57930  0.21420  0.30257  Biso   1.000  H
  H54      1.0000 0.78580  0.36510  0.96923  Biso   1.000  H
  H55      1.0000 0.57930  0.36510  0.53077  Biso   1.000  H
  H56      1.0000 0.78580  0.42070  0.86410  Biso   1.000  H
  H57      1.0000 0.63490  0.21420  0.19743  Biso   1.000  H
  H58      1.0000 0.42070  0.63490  0.03077  Biso   1.000  H
  H59      1.0000 0.21420  0.57930  0.36410  Biso   1.000  H
  H60      1.0000 0.36510  0.78580  0.69743  Biso   1.000  H
  C61      1.0000 0.56600  0.71850  0.12880  Biso   1.000  C
  C62      1.0000 0.28150  0.84750  0.79547  Biso   1.000  C
  C63      1.0000 0.15250  0.43400  0.46213  Biso   1.000  C
  C64      1.0000 0.43400  0.28150  0.62880  Biso   1.000  C
  C65      1.0000 0.71850  0.15250  0.29547  Biso   1.000  C
  C66      1.0000 0.84750  0.56600  0.96213  Biso   1.000  C
  C67      1.0000 0.71850  0.56600  0.53787  Biso   1.000  C
  C68      1.0000 0.84750  0.28150  0.87120  Biso   1.000  C
  C69      1.0000 0.43400  0.15250  0.20453  Biso   1.000  C
  C70      1.0000 0.28150  0.43400  0.03787  Biso   1.000  C
  C71      1.0000 0.15250  0.71850  0.37120  Biso   1.000  C
  C72      1.0000 0.56600  0.84750  0.70453  Biso   1.000  C
  H61      1.0000 0.55520  0.79440  0.12600  Biso   1.000  H
  H62      1.0000 0.20560  0.76080  0.79267  Biso   1.000  H
  H63      1.0000 0.23920  0.44480  0.45933  Biso   1.000  H
  H64      1.0000 0.44480  0.20560  0.62600  Biso   1.000  H
  H65      1.0000 0.79440  0.23920  0.29267  Biso   1.000  H
  H66      1.0000 0.76080  0.55520  0.95933  Biso   1.000  H
  H67      1.0000 0.79440  0.55520  0.54067  Biso   1.000  H
  H68      1.0000 0.76080  0.20560  0.87400  Biso   1.000  H
  H69      1.0000 0.44480  0.23920  0.20733  Biso   1.000  H
  H70      1.0000 0.20560  0.44480  0.04067  Biso   1.000  H
  H71      1.0000 0.23920  0.79440  0.37400  Biso   1.000  H
  H72      1.0000 0.55520  0.76080  0.70733  Biso   1.000  H
  C73      1.0000 0.81430  0.86700  0.12180  Biso   1.000  C
  C74      1.0000 0.13300  0.94730  0.78847  Biso   1.000  C
  C75      1.0000 0.05270  0.18570  0.45513  Biso   1.000  C
  C76      1.0000 0.18570  0.13300  0.62180  Biso   1.000  C
  C77      1.0000 0.86700  0.05270  0.28847  Biso   1.000  C
  C78      1.0000 0.94730  0.81430  0.95513  Biso   1.000  C
  C79      1.0000 0.86700  0.81430  0.54487  Biso   1.000  C
  C80      1.0000 0.94730  0.13300  0.87820  Biso   1.000  C
  C81      1.0000 0.18570  0.05270  0.21153  Biso   1.000  C
  C82      1.0000 0.13300  0.18570  0.04487  Biso   1.000  C
  C83      1.0000 0.05270  0.86700  0.37820  Biso   1.000  C
  C84      1.0000 0.81430  0.94730  0.71153  Biso   1.000  C
  H73      1.0000 0.89440  0.85540  0.12350  Biso   1.000  H
  H74      1.0000 0.14460  0.03900  0.79017  Biso   1.000  H
  H75      1.0000 0.96100  0.10560  0.45683  Biso   1.000  H
  H76      1.0000 0.10560  0.14460  0.62350  Biso   1.000  H
  H77      1.0000 0.85540  0.96100  0.29017  Biso   1.000  H
  H78      1.0000 0.03900  0.89440  0.95683  Biso   1.000  H
  H79      1.0000 0.85540  0.89440  0.54317  Biso   1.000  H
  H80      1.0000 0.03900  0.14460  0.87650  Biso   1.000  H
  H81      1.0000 0.10560  0.96100  0.20983  Biso   1.000  H
  H82      1.0000 0.14460  0.10560  0.04317  Biso   1.000  H
  H83      1.0000 0.96100  0.85540  0.37650  Biso   1.000  H
  H84      1.0000 0.89440  0.03900  0.70983  Biso   1.000  H
  C85      1.0000 0.82910  0.97060  0.15370  Biso   1.000  C
  C86      1.0000 0.02940  0.85850  0.82037  Biso   1.000  C
  C87      1.0000 0.14150  0.17090  0.48703  Biso   1.000  C
  C88      1.0000 0.17090  0.02940  0.65370  Biso   1.000  C
  C89      1.0000 0.97060  0.14150  0.32037  Biso   1.000  C
  C90      1.0000 0.85850  0.82910  0.98703  Biso   1.000  C
  C91      1.0000 0.97060  0.82910  0.51297  Biso   1.000  C
  C92      1.0000 0.85850  0.02940  0.84630  Biso   1.000  C
  C93      1.0000 0.17090  0.14150  0.17963  Biso   1.000  C
  C94      1.0000 0.02940  0.17090  0.01297  Biso   1.000  C
  C95      1.0000 0.14150  0.97060  0.34630  Biso   1.000  C
  C96      1.0000 0.82910  0.85850  0.67963  Biso   1.000  C
  C97      1.0000 0.12480  0.87520  0.08330  Biso   1.000  C
  C98      1.0000 0.12480  0.24960  0.74997  Biso   1.000  C
  C99      1.0000 0.75040  0.87520  0.41663  Biso   1.000  C
  C100     1.0000 0.87520  0.12480  0.58330  Biso   1.000  C
  C101     1.0000 0.87520  0.75040  0.24997  Biso   1.000  C
  C102     1.0000 0.24960  0.12480  0.91663  Biso   1.000  C
  H85      1.0000 0.03930  0.83110  0.07120  Biso   1.000  H
  H86      1.0000 0.16890  0.20820  0.73787  Biso   1.000  H
  H87      1.0000 0.79180  0.96070  0.40453  Biso   1.000  H
  H88      1.0000 0.96070  0.16890  0.57120  Biso   1.000  H
  H89      1.0000 0.83110  0.79180  0.23787  Biso   1.000  H
  H90      1.0000 0.20820  0.03930  0.90453  Biso   1.000  H
  H91      1.0000 0.83110  0.03930  0.59547  Biso   1.000  H
  H92      1.0000 0.20820  0.16890  0.92880  Biso   1.000  H
  H93      1.0000 0.96070  0.79180  0.26213  Biso   1.000  H
  H94      1.0000 0.16890  0.96070  0.09547  Biso   1.000  H
  H95      1.0000 0.79180  0.83110  0.42880  Biso   1.000  H
  H96      1.0000 0.03930  0.20820  0.76213  Biso   1.000  H
  C103     1.0000 0.24800  0.90500  0.06130  Biso   1.000  C
  C104     1.0000 0.09500  0.34300  0.72797  Biso   1.000  C
  C105     1.0000 0.65700  0.75200  0.39463  Biso   1.000  C
  C106     1.0000 0.75200  0.09500  0.56130  Biso   1.000  C
  C107     1.0000 0.90500  0.65700  0.22797  Biso   1.000  C
  C108     1.0000 0.34300  0.24800  0.89463  Biso   1.000  C
  C109     1.0000 0.90500  0.24800  0.60537  Biso   1.000  C
  C110     1.0000 0.34300  0.09500  0.93870  Biso   1.000  C
  C111     1.0000 0.75200  0.65700  0.27203  Biso   1.000  C
  C112     1.0000 0.09500  0.75200  0.10537  Biso   1.000  C
  C113     1.0000 0.65700  0.90500  0.43870  Biso   1.000  C
  C114     1.0000 0.24800  0.34300  0.77203  Biso   1.000  C
  H97      1.0000 0.24200  0.95340  0.03730  Biso   1.000  H
  H98      1.0000 0.04660  0.28860  0.70397  Biso   1.000  H
  H99      1.0000 0.71140  0.75800  0.37063  Biso   1.000  H
  H100     1.0000 0.75800  0.04660  0.53730  Biso   1.000  H
  H101     1.0000 0.95340  0.71140  0.20397  Biso   1.000  H
  H102     1.0000 0.28860  0.24200  0.87063  Biso   1.000  H
  H103     1.0000 0.95340  0.24200  0.62937  Biso   1.000  H
  H104     1.0000 0.28860  0.04660  0.96270  Biso   1.000  H
  H105     1.0000 0.75800  0.71140  0.29603  Biso   1.000  H
  H106     1.0000 0.04660  0.75800  0.12937  Biso   1.000  H
  H107     1.0000 0.71140  0.95340  0.46270  Biso   1.000  H
  H108     1.0000 0.24200  0.28860  0.79603  Biso   1.000  H
  H109     1.0000 0.22400  0.81540  0.05090  Biso   1.000  H
  H110     1.0000 0.18460  0.40860  0.71757  Biso   1.000  H
  H111     1.0000 0.59140  0.77600  0.38423  Biso   1.000  H
  H112     1.0000 0.77600  0.18460  0.55090  Biso   1.000  H
  H113     1.0000 0.81540  0.59140  0.21757  Biso   1.000  H
  H114     1.0000 0.40860  0.22400  0.88423  Biso   1.000  H
  H115     1.0000 0.81540  0.22400  0.61577  Biso   1.000  H
  H116     1.0000 0.40860  0.18460  0.94910  Biso   1.000  H
  H117     1.0000 0.77600  0.59140  0.28243  Biso   1.000  H
  H118     1.0000 0.18460  0.77600  0.11577  Biso   1.000  H
  H119     1.0000 0.59140  0.81540  0.44910  Biso   1.000  H
  H120     1.0000 0.22400  0.40860  0.78243  Biso   1.000  H
  C115     1.0000 0.39580  0.96720  0.06560  Biso   1.000  C
  C116     1.0000 0.03280  0.42860  0.73227  Biso   1.000  C
  C117     1.0000 0.57140  0.60420  0.39893  Biso   1.000  C
  C118     1.0000 0.60420  0.03280  0.56560  Biso   1.000  C
  C119     1.0000 0.96720  0.57140  0.23227  Biso   1.000  C
  C120     1.0000 0.42860  0.39580  0.89893  Biso   1.000  C
  C121     1.0000 0.96720  0.39580  0.60107  Biso   1.000  C
  C122     1.0000 0.42860  0.03280  0.93440  Biso   1.000  C
  C123     1.0000 0.60420  0.57140  0.26773  Biso   1.000  C
  C124     1.0000 0.03280  0.60420  0.10107  Biso   1.000  C
  C125     1.0000 0.57140  0.96720  0.43440  Biso   1.000  C
  C126     1.0000 0.39580  0.42860  0.76773  Biso   1.000  C
  C127     1.0000 0.46750  0.06520  0.09200  Biso   1.000  C
  C128     1.0000 0.93480  0.40230  0.75867  Biso   1.000  C
  C129     1.0000 0.59770  0.53250  0.42533  Biso   1.000  C
  C130     1.0000 0.53250  0.93480  0.59200  Biso   1.000  C
  C131     1.0000 0.06520  0.59770  0.25867  Biso   1.000  C
  C132     1.0000 0.40230  0.46750  0.92533  Biso   1.000  C
  C133     1.0000 0.06520  0.46750  0.57467  Biso   1.000  C
  C134     1.0000 0.40230  0.93480  0.90800  Biso   1.000  C
  C135     1.0000 0.53250  0.59770  0.24133  Biso   1.000  C
  C136     1.0000 0.93480  0.53250  0.07467  Biso   1.000  C
  C137     1.0000 0.59770  0.06520  0.40800  Biso   1.000  C
  C138     1.0000 0.46750  0.40230  0.74133  Biso   1.000  C
  H121     1.0000 0.42390  0.10070  0.10790  Biso   1.000  H
  H122     1.0000 0.89930  0.32320  0.77457  Biso   1.000  H
  H123     1.0000 0.67680  0.57610  0.44123  Biso   1.000  H
  H124     1.0000 0.57610  0.89930  0.60790  Biso   1.000  H
  H125     1.0000 0.10070  0.67680  0.27457  Biso   1.000  H
  H126     1.0000 0.32320  0.42390  0.94123  Biso   1.000  H
  H127     1.0000 0.10070  0.42390  0.55877  Biso   1.000  H
  H128     1.0000 0.32320  0.89930  0.89210  Biso   1.000  H
  H129     1.0000 0.57610  0.67680  0.22543  Biso   1.000  H
  H130     1.0000 0.89930  0.57610  0.05877  Biso   1.000  H
  H131     1.0000 0.67680  0.10070  0.39210  Biso   1.000  H
  H132     1.0000 0.42390  0.32320  0.72543  Biso   1.000  H
  C139     1.0000 0.60290  0.11610  0.09660  Biso   1.000  C
  C140     1.0000 0.88390  0.48680  0.76327  Biso   1.000  C
  C141     1.0000 0.51320  0.39710  0.42993  Biso   1.000  C
  C142     1.0000 0.39710  0.88390  0.59660  Biso   1.000  C
  C143     1.0000 0.11610  0.51320  0.26327  Biso   1.000  C
  C144     1.0000 0.48680  0.60290  0.92993  Biso   1.000  C
  C145     1.0000 0.11610  0.60290  0.57007  Biso   1.000  C
  C146     1.0000 0.48680  0.88390  0.90340  Biso   1.000  C
  C147     1.0000 0.39710  0.51320  0.23673  Biso   1.000  C
  C148     1.0000 0.88390  0.39710  0.07007  Biso   1.000  C
  C149     1.0000 0.51320  0.11610  0.40340  Biso   1.000  C
  C150     1.0000 0.60290  0.48680  0.73673  Biso   1.000  C
  H133     1.0000 0.65190  0.18530  0.11580  Biso   1.000  H
  H134     1.0000 0.81470  0.46660  0.78247  Biso   1.000  H
  H135     1.0000 0.53340  0.34810  0.44913  Biso   1.000  H
  H136     1.0000 0.34810  0.81470  0.61580  Biso   1.000  H
  H137     1.0000 0.18530  0.53340  0.28247  Biso   1.000  H
  H138     1.0000 0.46660  0.65190  0.94913  Biso   1.000  H
  H139     1.0000 0.18530  0.65190  0.55087  Biso   1.000  H
  H140     1.0000 0.46660  0.81470  0.88420  Biso   1.000  H
  H141     1.0000 0.34810  0.53340  0.21753  Biso   1.000  H
  H142     1.0000 0.81470  0.34810  0.05087  Biso   1.000  H
  H143     1.0000 0.53340  0.18530  0.38420  Biso   1.000  H
  H144     1.0000 0.65190  0.46660  0.71753  Biso   1.000  H
  C151     1.0000 0.59490  0.96670  0.04720  Biso   1.000  C
  C152     1.0000 0.03330  0.62820  0.71387  Biso   1.000  C
  C153     1.0000 0.37180  0.40510  0.38053  Biso   1.000  C
  C154     1.0000 0.40510  0.03330  0.54720  Biso   1.000  C
  C155     1.0000 0.96670  0.37180  0.21387  Biso   1.000  C
  C156     1.0000 0.62820  0.59490  0.88053  Biso   1.000  C
  C157     1.0000 0.96670  0.59490  0.61947  Biso   1.000  C
  C158     1.0000 0.62820  0.03330  0.95280  Biso   1.000  C
  C159     1.0000 0.40510  0.37180  0.28613  Biso   1.000  C
  C160     1.0000 0.03330  0.40510  0.11947  Biso   1.000  C
  C161     1.0000 0.37180  0.96670  0.45280  Biso   1.000  C
  C162     1.0000 0.59490  0.62820  0.78613  Biso   1.000  C
  H145     1.0000 0.63920  0.93190  0.03130  Biso   1.000  H
  H146     1.0000 0.06810  0.70730  0.69797  Biso   1.000  H
  H147     1.0000 0.29270  0.36080  0.36463  Biso   1.000  H
  H148     1.0000 0.36080  0.06810  0.53130  Biso   1.000  H
  H149     1.0000 0.93190  0.29270  0.19797  Biso   1.000  H
  H150     1.0000 0.70730  0.63920  0.86463  Biso   1.000  H
  H151     1.0000 0.93190  0.63920  0.63537  Biso   1.000  H
  H152     1.0000 0.70730  0.06810  0.96870  Biso   1.000  H
  H153     1.0000 0.36080  0.29270  0.30203  Biso   1.000  H
  H154     1.0000 0.06810  0.36080  0.13537  Biso   1.000  H
  H155     1.0000 0.29270  0.93190  0.46870  Biso   1.000  H
  H156     1.0000 0.63920  0.70730  0.80203  Biso   1.000  H
  C163     1.0000 0.45950  0.91400  0.04260  Biso   1.000  C
  C164     1.0000 0.08600  0.54550  0.70927  Biso   1.000  C
  C165     1.0000 0.45450  0.54050  0.37593  Biso   1.000  C
  C166     1.0000 0.54050  0.08600  0.54260  Biso   1.000  C
  C167     1.0000 0.91400  0.45450  0.20927  Biso   1.000  C
  C168     1.0000 0.54550  0.45950  0.87593  Biso   1.000  C
  C169     1.0000 0.91400  0.45950  0.62407  Biso   1.000  C
  C170     1.0000 0.54550  0.08600  0.95740  Biso   1.000  C
  C171     1.0000 0.54050  0.45450  0.29073  Biso   1.000  C
  C172     1.0000 0.08600  0.54050  0.12407  Biso   1.000  C
  C173     1.0000 0.45450  0.91400  0.45740  Biso   1.000  C
  C174     1.0000 0.45950  0.54550  0.79073  Biso   1.000  C
  H157     1.0000 0.41020  0.84280  0.02410  Biso   1.000  H
  H158     1.0000 0.15720  0.56740  0.69077  Biso   1.000  H
  H159     1.0000 0.43260  0.58980  0.35743  Biso   1.000  H
  H160     1.0000 0.58980  0.15720  0.52410  Biso   1.000  H
  H161     1.0000 0.84280  0.43260  0.19077  Biso   1.000  H
  H162     1.0000 0.56740  0.41020  0.85743  Biso   1.000  H
  H163     1.0000 0.84280  0.41020  0.64257  Biso   1.000  H
  H164     1.0000 0.56740  0.15720  0.97590  Biso   1.000  H
  H165     1.0000 0.58980  0.43260  0.30923  Biso   1.000  H
  H166     1.0000 0.15720  0.58980  0.14257  Biso   1.000  H
  H167     1.0000 0.43260  0.84280  0.47590  Biso   1.000  H
  H168     1.0000 0.41020  0.56740  0.80923  Biso   1.000  H
  C175     1.0000 0.24100  0.91300  0.05720  Biso   1.000  C
  C176     1.0000 0.08700  0.32800  0.72387  Biso   1.000  C
  C177     1.0000 0.67200  0.75900  0.39053  Biso   1.000  C
  C178     1.0000 0.75900  0.08700  0.55720  Biso   1.000  C
  C179     1.0000 0.91300  0.67200  0.22387  Biso   1.000  C
  C180     1.0000 0.32800  0.24100  0.89053  Biso   1.000  C
  C181     1.0000 0.91300  0.24100  0.60947  Biso   1.000  C
  C182     1.0000 0.32800  0.08700  0.94280  Biso   1.000  C
  C183     1.0000 0.75900  0.67200  0.27613  Biso   1.000  C
  C184     1.0000 0.08700  0.75900  0.10947  Biso   1.000  C
  C185     1.0000 0.67200  0.91300  0.44280  Biso   1.000  C
  C186     1.0000 0.24100  0.32800  0.77613  Biso   1.000  C
  C187     1.0000 0.21000  0.79000  0.08330  Biso   1.000  C
  C188     1.0000 0.21000  0.42000  0.74997  Biso   1.000  C
  C189     1.0000 0.58000  0.79000  0.41663  Biso   1.000  C
  C190     1.0000 0.79000  0.21000  0.58330  Biso   1.000  C
  C191     1.0000 0.79000  0.58000  0.24997  Biso   1.000  C
  C192     1.0000 0.42000  0.21000  0.91663  Biso   1.000  C
  H169     1.0000 0.20720  0.96920  0.06870  Biso   1.000  H
  H170     1.0000 0.03080  0.23800  0.73537  Biso   1.000  H
  H171     1.0000 0.76200  0.79280  0.40203  Biso   1.000  H
  H172     1.0000 0.79280  0.03080  0.56870  Biso   1.000  H
  H173     1.0000 0.96920  0.76200  0.23537  Biso   1.000  H
  H174     1.0000 0.23800  0.20720  0.90203  Biso   1.000  H
  H175     1.0000 0.96920  0.20720  0.59797  Biso   1.000  H
  H176     1.0000 0.23800  0.03080  0.93130  Biso   1.000  H
  H177     1.0000 0.79280  0.76200  0.26463  Biso   1.000  H
  H178     1.0000 0.03080  0.79280  0.09797  Biso   1.000  H
  H179     1.0000 0.76200  0.96920  0.43130  Biso   1.000  H
  H180     1.0000 0.20720  0.23800  0.76463  Biso   1.000  H
  H181     1.0000 0.21500  0.89130  0.02830  Biso   1.000  H
  H182     1.0000 0.10870  0.32370  0.69497  Biso   1.000  H
  H183     1.0000 0.67630  0.78500  0.36163  Biso   1.000  H
  H184     1.0000 0.78500  0.10870  0.52830  Biso   1.000  H
  H185     1.0000 0.89130  0.67630  0.19497  Biso   1.000  H
  H186     1.0000 0.32370  0.21500  0.86163  Biso   1.000  H
  H187     1.0000 0.89130  0.21500  0.63837  Biso   1.000  H
  H188     1.0000 0.32370  0.10870  0.97170  Biso   1.000  H
  H189     1.0000 0.78500  0.67630  0.30503  Biso   1.000  H
  H190     1.0000 0.10870  0.78500  0.13837  Biso   1.000  H
  H191     1.0000 0.67630  0.89130  0.47170  Biso   1.000  H
  H192     1.0000 0.21500  0.32370  0.80503  Biso   1.000  H
  H193     1.0000 0.26390  0.80370  0.10490  Biso   1.000  H
  H194     1.0000 0.19630  0.46020  0.77157  Biso   1.000  H
  H195     1.0000 0.53980  0.73610  0.43823  Biso   1.000  H
  H196     1.0000 0.73610  0.19630  0.60490  Biso   1.000  H
  H197     1.0000 0.80370  0.53980  0.27157  Biso   1.000  H
  H198     1.0000 0.46020  0.26390  0.93823  Biso   1.000  H
  H199     1.0000 0.80370  0.26390  0.56177  Biso   1.000  H
  H200     1.0000 0.46020  0.19630  0.89510  Biso   1.000  H
  H201     1.0000 0.73610  0.53980  0.22843  Biso   1.000  H
  H202     1.0000 0.19630  0.73610  0.06177  Biso   1.000  H
  H203     1.0000 0.53980  0.80370  0.39510  Biso   1.000  H
  H204     1.0000 0.26390  0.46020  0.72843  Biso   1.000  H
