data_image0
_cell_length_a       11.5503
_cell_length_b       11.5503
_cell_length_c       32.9751
_cell_angle_alpha    90
_cell_angle_beta     90
_cell_angle_gamma    120

_symmetry_space_group_name_H-M    "P 1"
_symmetry_int_tables_number       1

loop_
  _symmetry_equiv_pos_as_xyz
  'x, y, z'

loop_
  _atom_site_label
  _atom_site_occupancy
  _atom_site_fract_x
  _atom_site_fract_y
  _atom_site_fract_z
  _atom_site_thermal_displace_type
  _atom_site_B_iso_or_equiv
  _atom_site_type_symbol
  Cu1      1.0000 0.25399  0.12700  0.08330  Biso   1.000  Cu
  Cu2      1.0000 0.87300  0.12699  0.41663  Biso   1.000  Cu
  Cu3      1.0000 0.87301  0.74601  0.74997  Biso   1.000  Cu
  Cu4      1.0000 0.74601  0.87300  0.58330  Biso   1.000  Cu
  Cu5      1.0000 0.12700  0.87301  0.91663  Biso   1.000  Cu
  Cu6      1.0000 0.12699  0.25399  0.24997  Biso   1.000  Cu
  O1       1.0000 0.10680  0.91980  0.08232  Biso   1.000  O
  O2       1.0000 0.08020  0.18700  0.41565  Biso   1.000  O
  O3       1.0000 0.81300  0.89320  0.74899  Biso   1.000  O
  O4       1.0000 0.89320  0.08020  0.58232  Biso   1.000  O
  O5       1.0000 0.91980  0.81300  0.91565  Biso   1.000  O
  O6       1.0000 0.18700  0.10680  0.24899  Biso   1.000  O
  O7       1.0000 0.91980  0.10680  0.25101  Biso   1.000  O
  O8       1.0000 0.18700  0.08020  0.91768  Biso   1.000  O
  O9       1.0000 0.89320  0.81300  0.58435  Biso   1.000  O
  O10      1.0000 0.08020  0.89320  0.75101  Biso   1.000  O
  O11      1.0000 0.81300  0.91980  0.41768  Biso   1.000  O
  O12      1.0000 0.10680  0.18700  0.08435  Biso   1.000  O
  H1       1.0000 0.04700  0.88900  0.06420  Biso   1.000  H
  H2       1.0000 0.11100  0.15800  0.39753  Biso   1.000  H
  H3       1.0000 0.84200  0.95300  0.73087  Biso   1.000  H
  H4       1.0000 0.95300  0.11100  0.56420  Biso   1.000  H
  H5       1.0000 0.88900  0.84200  0.89753  Biso   1.000  H
  H6       1.0000 0.15800  0.04700  0.23087  Biso   1.000  H
  H7       1.0000 0.88900  0.04700  0.26913  Biso   1.000  H
  H8       1.0000 0.15800  0.11100  0.93580  Biso   1.000  H
  H9       1.0000 0.95300  0.84200  0.60247  Biso   1.000  H
  H10      1.0000 0.11100  0.95300  0.76913  Biso   1.000  H
  H11      1.0000 0.84200  0.88900  0.43580  Biso   1.000  H
  H12      1.0000 0.04700  0.15800  0.10247  Biso   1.000  H
  O13      1.0000 0.23530  0.08250  0.14186  Biso   1.000  O
  O14      1.0000 0.91750  0.15280  0.47519  Biso   1.000  O
  O15      1.0000 0.84720  0.76470  0.80853  Biso   1.000  O
  O16      1.0000 0.76470  0.91750  0.64186  Biso   1.000  O
  O17      1.0000 0.08250  0.84720  0.97519  Biso   1.000  O
  O18      1.0000 0.15280  0.23530  0.30853  Biso   1.000  O
  O19      1.0000 0.08250  0.23530  0.19147  Biso   1.000  O
  O20      1.0000 0.15280  0.91750  0.85814  Biso   1.000  O
  O21      1.0000 0.76470  0.84720  0.52481  Biso   1.000  O
  O22      1.0000 0.91750  0.76470  0.69147  Biso   1.000  O
  O23      1.0000 0.84720  0.08250  0.35814  Biso   1.000  O
  O24      1.0000 0.23530  0.15280  0.02481  Biso   1.000  O
  O25      1.0000 0.11290  0.93510  0.18960  Biso   1.000  O
  O26      1.0000 0.06490  0.17780  0.52293  Biso   1.000  O
  O27      1.0000 0.82220  0.88710  0.85627  Biso   1.000  O
  O28      1.0000 0.88710  0.06490  0.68960  Biso   1.000  O
  O29      1.0000 0.93510  0.82220  0.02293  Biso   1.000  O
  O30      1.0000 0.17780  0.11290  0.35627  Biso   1.000  O
  O31      1.0000 0.93510  0.11290  0.14373  Biso   1.000  O
  O32      1.0000 0.17780  0.06490  0.81040  Biso   1.000  O
  O33      1.0000 0.88710  0.82220  0.47707  Biso   1.000  O
  O34      1.0000 0.06490  0.88710  0.64373  Biso   1.000  O
  O35      1.0000 0.82220  0.93510  0.31040  Biso   1.000  O
  O36      1.0000 0.11290  0.17780  0.97707  Biso   1.000  O
  C1       1.0000 0.04040  0.73200  0.12771  Biso   1.000  C
  C2       1.0000 0.26800  0.30840  0.46104  Biso   1.000  C
  C3       1.0000 0.69160  0.95960  0.79438  Biso   1.000  C
  C4       1.0000 0.95960  0.26800  0.62771  Biso   1.000  C
  C5       1.0000 0.73200  0.69160  0.96104  Biso   1.000  C
  C6       1.0000 0.30840  0.04040  0.29438  Biso   1.000  C
  C7       1.0000 0.73200  0.04040  0.20562  Biso   1.000  C
  C8       1.0000 0.30840  0.26800  0.87229  Biso   1.000  C
  C9       1.0000 0.95960  0.69160  0.53896  Biso   1.000  C
  C10      1.0000 0.26800  0.95960  0.70562  Biso   1.000  C
  C11      1.0000 0.69160  0.73200  0.37229  Biso   1.000  C
  C12      1.0000 0.04040  0.30840  0.03896  Biso   1.000  C
  C13      1.0000 0.91650  0.61870  0.13080  Biso   1.000  C
  C14      1.0000 0.38130  0.29780  0.46413  Biso   1.000  C
  C15      1.0000 0.70220  0.08350  0.79747  Biso   1.000  C
  C16      1.0000 0.08350  0.38130  0.63080  Biso   1.000  C
  C17      1.0000 0.61870  0.70220  0.96413  Biso   1.000  C
  C18      1.0000 0.29780  0.91650  0.29747  Biso   1.000  C
  C19      1.0000 0.61870  0.91650  0.20253  Biso   1.000  C
  C20      1.0000 0.29780  0.38130  0.86920  Biso   1.000  C
  C21      1.0000 0.08350  0.70220  0.53587  Biso   1.000  C
  C22      1.0000 0.38130  0.08350  0.70253  Biso   1.000  C
  C23      1.0000 0.70220  0.61870  0.36920  Biso   1.000  C
  C24      1.0000 0.91650  0.29780  0.03587  Biso   1.000  C
  H13      1.0000 0.83780  0.62520  0.12970  Biso   1.000  H
  H14      1.0000 0.37480  0.21260  0.46303  Biso   1.000  H
  H15      1.0000 0.78740  0.16220  0.79637  Biso   1.000  H
  H16      1.0000 0.16220  0.37480  0.62970  Biso   1.000  H
  H17      1.0000 0.62520  0.78740  0.96303  Biso   1.000  H
  H18      1.0000 0.21260  0.83780  0.29637  Biso   1.000  H
  H19      1.0000 0.62520  0.83780  0.20363  Biso   1.000  H
  H20      1.0000 0.21260  0.37480  0.87030  Biso   1.000  H
  H21      1.0000 0.16220  0.78740  0.53697  Biso   1.000  H
  H22      1.0000 0.37480  0.16220  0.70363  Biso   1.000  H
  H23      1.0000 0.78740  0.62520  0.37030  Biso   1.000  H
  H24      1.0000 0.83780  0.21260  0.03697  Biso   1.000  H
  C25      1.0000 0.90720  0.49340  0.13560  Biso   1.000  C
  C26      1.0000 0.50660  0.41380  0.46893  Biso   1.000  C
  C27      1.0000 0.58620  0.09280  0.80227  Biso   1.000  C
  C28      1.0000 0.09280  0.50660  0.63560  Biso   1.000  C
  C29      1.0000 0.49340  0.58620  0.96893  Biso   1.000  C
  C30      1.0000 0.41380  0.90720  0.30227  Biso   1.000  C
  C31      1.0000 0.49340  0.90720  0.19773  Biso   1.000  C
  C32      1.0000 0.41380  0.50660  0.86440  Biso   1.000  C
  C33      1.0000 0.09280  0.58620  0.53107  Biso   1.000  C
  C34      1.0000 0.50660  0.09280  0.69773  Biso   1.000  C
  C35      1.0000 0.58620  0.49340  0.36440  Biso   1.000  C
  C36      1.0000 0.90720  0.41380  0.03107  Biso   1.000  C
  H25      1.0000 0.82150  0.41600  0.13810  Biso   1.000  H
  H26      1.0000 0.58400  0.40550  0.47143  Biso   1.000  H
  H27      1.0000 0.59450  0.17850  0.80477  Biso   1.000  H
  H28      1.0000 0.17850  0.58400  0.63810  Biso   1.000  H
  H29      1.0000 0.41600  0.59450  0.97143  Biso   1.000  H
  H30      1.0000 0.40550  0.82150  0.30477  Biso   1.000  H
  H31      1.0000 0.41600  0.82150  0.19523  Biso   1.000  H
  H32      1.0000 0.40550  0.58400  0.86190  Biso   1.000  H
  H33      1.0000 0.17850  0.59450  0.52857  Biso   1.000  H
  H34      1.0000 0.58400  0.17850  0.69523  Biso   1.000  H
  H35      1.0000 0.59450  0.41600  0.36190  Biso   1.000  H
  H36      1.0000 0.82150  0.40550  0.02857  Biso   1.000  H
  C37      1.0000 0.01370  0.48070  0.13668  Biso   1.000  C
  C38      1.0000 0.51930  0.53300  0.47001  Biso   1.000  C
  C39      1.0000 0.46700  0.98630  0.80335  Biso   1.000  C
  C40      1.0000 0.98630  0.51930  0.63668  Biso   1.000  C
  C41      1.0000 0.48070  0.46700  0.97001  Biso   1.000  C
  C42      1.0000 0.53300  0.01370  0.30335  Biso   1.000  C
  C43      1.0000 0.48070  0.01370  0.19665  Biso   1.000  C
  C44      1.0000 0.53300  0.51930  0.86332  Biso   1.000  C
  C45      1.0000 0.98630  0.46700  0.52999  Biso   1.000  C
  C46      1.0000 0.51930  0.98630  0.69665  Biso   1.000  C
  C47      1.0000 0.46700  0.48070  0.36332  Biso   1.000  C
  C48      1.0000 0.01370  0.53300  0.02999  Biso   1.000  C
  H37      1.0000 0.00480  0.39470  0.13950  Biso   1.000  H
  H38      1.0000 0.60530  0.61010  0.47283  Biso   1.000  H
  H39      1.0000 0.38990  0.99520  0.80617  Biso   1.000  H
  H40      1.0000 0.99520  0.60530  0.63950  Biso   1.000  H
  H41      1.0000 0.39470  0.38990  0.97283  Biso   1.000  H
  H42      1.0000 0.61010  0.00480  0.30617  Biso   1.000  H
  H43      1.0000 0.39470  0.00480  0.19383  Biso   1.000  H
  H44      1.0000 0.61010  0.60530  0.86050  Biso   1.000  H
  H45      1.0000 0.99520  0.38990  0.52717  Biso   1.000  H
  H46      1.0000 0.60530  0.99520  0.69383  Biso   1.000  H
  H47      1.0000 0.38990  0.39470  0.36050  Biso   1.000  H
  H48      1.0000 0.00480  0.61010  0.02717  Biso   1.000  H
  C49      1.0000 0.13770  0.59190  0.13369  Biso   1.000  C
  C50      1.0000 0.40810  0.54580  0.46702  Biso   1.000  C
  C51      1.0000 0.45420  0.86230  0.80036  Biso   1.000  C
  C52      1.0000 0.86230  0.40810  0.63369  Biso   1.000  C
  C53      1.0000 0.59190  0.45420  0.96702  Biso   1.000  C
  C54      1.0000 0.54580  0.13770  0.30036  Biso   1.000  C
  C55      1.0000 0.59190  0.13770  0.19964  Biso   1.000  C
  C56      1.0000 0.54580  0.40810  0.86631  Biso   1.000  C
  C57      1.0000 0.86230  0.45420  0.53298  Biso   1.000  C
  C58      1.0000 0.40810  0.86230  0.69964  Biso   1.000  C
  C59      1.0000 0.45420  0.59190  0.36631  Biso   1.000  C
  C60      1.0000 0.13770  0.54580  0.03298  Biso   1.000  C
  H49      1.0000 0.21490  0.58290  0.13490  Biso   1.000  H
  H50      1.0000 0.41710  0.63200  0.46823  Biso   1.000  H
  H51      1.0000 0.36800  0.78510  0.80157  Biso   1.000  H
  H52      1.0000 0.78510  0.41710  0.63490  Biso   1.000  H
  H53      1.0000 0.58290  0.36800  0.96823  Biso   1.000  H
  H54      1.0000 0.63200  0.21490  0.30157  Biso   1.000  H
  H55      1.0000 0.58290  0.21490  0.19843  Biso   1.000  H
  H56      1.0000 0.63200  0.41710  0.86510  Biso   1.000  H
  H57      1.0000 0.78510  0.36800  0.53177  Biso   1.000  H
  H58      1.0000 0.41710  0.78510  0.69843  Biso   1.000  H
  H59      1.0000 0.36800  0.58290  0.36510  Biso   1.000  H
  H60      1.0000 0.21490  0.63200  0.03177  Biso   1.000  H
  C61      1.0000 0.15210  0.71940  0.12880  Biso   1.000  C
  C62      1.0000 0.28060  0.43270  0.46213  Biso   1.000  C
  C63      1.0000 0.56730  0.84790  0.79547  Biso   1.000  C
  C64      1.0000 0.84790  0.28060  0.62880  Biso   1.000  C
  C65      1.0000 0.71940  0.56730  0.96213  Biso   1.000  C
  C66      1.0000 0.43270  0.15210  0.29547  Biso   1.000  C
  C67      1.0000 0.71940  0.15210  0.20453  Biso   1.000  C
  C68      1.0000 0.43270  0.28060  0.87120  Biso   1.000  C
  C69      1.0000 0.84790  0.56730  0.53787  Biso   1.000  C
  C70      1.0000 0.28060  0.84790  0.70453  Biso   1.000  C
  C71      1.0000 0.56730  0.71940  0.37120  Biso   1.000  C
  C72      1.0000 0.15210  0.43270  0.03787  Biso   1.000  C
  H61      1.0000 0.23850  0.79610  0.12630  Biso   1.000  H
  H62      1.0000 0.20390  0.44240  0.45963  Biso   1.000  H
  H63      1.0000 0.55760  0.76150  0.79297  Biso   1.000  H
  H64      1.0000 0.76150  0.20390  0.62630  Biso   1.000  H
  H65      1.0000 0.79610  0.55760  0.95963  Biso   1.000  H
  H66      1.0000 0.44240  0.23850  0.29297  Biso   1.000  H
  H67      1.0000 0.79610  0.23850  0.20703  Biso   1.000  H
  H68      1.0000 0.44240  0.20390  0.87370  Biso   1.000  H
  H69      1.0000 0.76150  0.55760  0.54037  Biso   1.000  H
  H70      1.0000 0.20390  0.76150  0.70703  Biso   1.000  H
  H71      1.0000 0.55760  0.79610  0.37370  Biso   1.000  H
  H72      1.0000 0.23850  0.44240  0.04037  Biso   1.000  H
  C73      1.0000 0.05260  0.86800  0.12142  Biso   1.000  C
  C74      1.0000 0.13200  0.18460  0.45475  Biso   1.000  C
  C75      1.0000 0.81540  0.94740  0.78809  Biso   1.000  C
  C76      1.0000 0.94740  0.13200  0.62142  Biso   1.000  C
  C77      1.0000 0.86800  0.81540  0.95475  Biso   1.000  C
  C78      1.0000 0.18460  0.05260  0.28809  Biso   1.000  C
  C79      1.0000 0.86800  0.05260  0.21191  Biso   1.000  C
  C80      1.0000 0.18460  0.13200  0.87858  Biso   1.000  C
  C81      1.0000 0.94740  0.81540  0.54525  Biso   1.000  C
  C82      1.0000 0.13200  0.94740  0.71191  Biso   1.000  C
  C83      1.0000 0.81540  0.86800  0.37858  Biso   1.000  C
  C84      1.0000 0.05260  0.18460  0.04525  Biso   1.000  C
  H73      1.0000 0.96110  0.85690  0.12300  Biso   1.000  H
  H74      1.0000 0.14310  0.10420  0.45633  Biso   1.000  H
  H75      1.0000 0.89580  0.03890  0.78967  Biso   1.000  H
  H76      1.0000 0.03890  0.14310  0.62300  Biso   1.000  H
  H77      1.0000 0.85690  0.89580  0.95633  Biso   1.000  H
  H78      1.0000 0.10420  0.96110  0.28967  Biso   1.000  H
  H79      1.0000 0.85690  0.96110  0.21033  Biso   1.000  H
  H80      1.0000 0.10420  0.14310  0.87700  Biso   1.000  H
  H81      1.0000 0.03890  0.89580  0.54367  Biso   1.000  H
  H82      1.0000 0.14310  0.03890  0.71033  Biso   1.000  H
  H83      1.0000 0.89580  0.85690  0.37700  Biso   1.000  H
  H84      1.0000 0.96110  0.10420  0.04367  Biso   1.000  H
  C85      1.0000 0.14120  0.97010  0.15392  Biso   1.000  C
  C86      1.0000 0.02990  0.17110  0.48725  Biso   1.000  C
  C87      1.0000 0.82890  0.85880  0.82059  Biso   1.000  C
  C88      1.0000 0.85880  0.02990  0.65392  Biso   1.000  C
  C89      1.0000 0.97010  0.82890  0.98725  Biso   1.000  C
  C90      1.0000 0.17110  0.14120  0.32059  Biso   1.000  C
  C91      1.0000 0.97010  0.14120  0.17941  Biso   1.000  C
  C92      1.0000 0.17110  0.02990  0.84608  Biso   1.000  C
  C93      1.0000 0.85880  0.82890  0.51275  Biso   1.000  C
  C94      1.0000 0.02990  0.85880  0.67941  Biso   1.000  C
  C95      1.0000 0.82890  0.97010  0.34608  Biso   1.000  C
  C96      1.0000 0.14120  0.17110  0.01275  Biso   1.000  C
  N1       1.0000 0.39720  0.03670  0.07110  Biso   1.000  N
  N2       1.0000 0.96330  0.36050  0.40443  Biso   1.000  N
  N3       1.0000 0.63950  0.60280  0.73777  Biso   1.000  N
  N4       1.0000 0.60280  0.96330  0.57110  Biso   1.000  N
  N5       1.0000 0.03670  0.63950  0.90443  Biso   1.000  N
  N6       1.0000 0.36050  0.39720  0.23777  Biso   1.000  N
  N7       1.0000 0.03670  0.39720  0.26223  Biso   1.000  N
  N8       1.0000 0.36050  0.96330  0.92890  Biso   1.000  N
  N9       1.0000 0.60280  0.63950  0.59557  Biso   1.000  N
  N10      1.0000 0.96330  0.60280  0.76223  Biso   1.000  N
  N11      1.0000 0.63950  0.03670  0.42890  Biso   1.000  N
  N12      1.0000 0.39720  0.36050  0.09557  Biso   1.000  N
  C97      1.0000 0.36600  0.93300  0.04540  Biso   1.000  C
  C98      1.0000 0.06700  0.43300  0.37873  Biso   1.000  C
  C99      1.0000 0.56700  0.63400  0.71207  Biso   1.000  C
  C100     1.0000 0.63400  0.06700  0.54540  Biso   1.000  C
  C101     1.0000 0.93300  0.56700  0.87873  Biso   1.000  C
  C102     1.0000 0.43300  0.36600  0.21207  Biso   1.000  C
  C103     1.0000 0.93300  0.36600  0.28793  Biso   1.000  C
  C104     1.0000 0.43300  0.06700  0.95460  Biso   1.000  C
  C105     1.0000 0.63400  0.56700  0.62127  Biso   1.000  C
  C106     1.0000 0.06700  0.63400  0.78793  Biso   1.000  C
  C107     1.0000 0.56700  0.93300  0.45460  Biso   1.000  C
  C108     1.0000 0.36600  0.43300  0.12127  Biso   1.000  C
  H85      1.0000 0.28370  0.89620  0.03110  Biso   1.000  H
  H86      1.0000 0.10380  0.38750  0.36443  Biso   1.000  H
  H87      1.0000 0.61250  0.71630  0.69777  Biso   1.000  H
  H88      1.0000 0.71630  0.10380  0.53110  Biso   1.000  H
  H89      1.0000 0.89620  0.61250  0.86443  Biso   1.000  H
  H90      1.0000 0.38750  0.28370  0.19777  Biso   1.000  H
  H91      1.0000 0.89620  0.28370  0.30223  Biso   1.000  H
  H92      1.0000 0.38750  0.10380  0.96890  Biso   1.000  H
  H93      1.0000 0.71630  0.61250  0.63557  Biso   1.000  H
  H94      1.0000 0.10380  0.71630  0.80223  Biso   1.000  H
  H95      1.0000 0.61250  0.89620  0.46890  Biso   1.000  H
  H96      1.0000 0.28370  0.38750  0.13557  Biso   1.000  H
  C109     1.0000 0.44490  0.87900  0.03880  Biso   1.000  C
  C110     1.0000 0.12100  0.56590  0.37213  Biso   1.000  C
  C111     1.0000 0.43410  0.55510  0.70547  Biso   1.000  C
  C112     1.0000 0.55510  0.12100  0.53880  Biso   1.000  C
  C113     1.0000 0.87900  0.43410  0.87213  Biso   1.000  C
  C114     1.0000 0.56590  0.44490  0.20547  Biso   1.000  C
  C115     1.0000 0.87900  0.44490  0.29453  Biso   1.000  C
  C116     1.0000 0.56590  0.12100  0.96120  Biso   1.000  C
  C117     1.0000 0.55510  0.43410  0.62787  Biso   1.000  C
  C118     1.0000 0.12100  0.55510  0.79453  Biso   1.000  C
  C119     1.0000 0.43410  0.87900  0.46120  Biso   1.000  C
  C120     1.0000 0.44490  0.56590  0.12787  Biso   1.000  C
  H97      1.0000 0.41710  0.80610  0.02060  Biso   1.000  H
  H98      1.0000 0.19390  0.61100  0.35393  Biso   1.000  H
  H99      1.0000 0.38900  0.58290  0.68727  Biso   1.000  H
  H100     1.0000 0.58290  0.19390  0.52060  Biso   1.000  H
  H101     1.0000 0.80610  0.38900  0.85393  Biso   1.000  H
  H102     1.0000 0.61100  0.41710  0.18727  Biso   1.000  H
  H103     1.0000 0.80610  0.41710  0.31273  Biso   1.000  H
  H104     1.0000 0.61100  0.19390  0.97940  Biso   1.000  H
  H105     1.0000 0.58290  0.38900  0.64607  Biso   1.000  H
  H106     1.0000 0.19390  0.58290  0.81273  Biso   1.000  H
  H107     1.0000 0.38900  0.80610  0.47940  Biso   1.000  H
  H108     1.0000 0.41710  0.61100  0.14607  Biso   1.000  H
  C121     1.0000 0.56650  0.93030  0.05890  Biso   1.000  C
  C122     1.0000 0.06970  0.63620  0.39223  Biso   1.000  C
  C123     1.0000 0.36380  0.43350  0.72557  Biso   1.000  C
  C124     1.0000 0.43350  0.06970  0.55890  Biso   1.000  C
  C125     1.0000 0.93030  0.36380  0.89223  Biso   1.000  C
  C126     1.0000 0.63620  0.56650  0.22557  Biso   1.000  C
  C127     1.0000 0.93030  0.56650  0.27443  Biso   1.000  C
  C128     1.0000 0.63620  0.06970  0.94110  Biso   1.000  C
  C129     1.0000 0.43350  0.36380  0.60777  Biso   1.000  C
  C130     1.0000 0.06970  0.43350  0.77443  Biso   1.000  C
  C131     1.0000 0.36380  0.93030  0.44110  Biso   1.000  C
  C132     1.0000 0.56650  0.63620  0.10777  Biso   1.000  C
  C133     1.0000 0.59960  0.03090  0.08620  Biso   1.000  C
  C134     1.0000 0.96910  0.56870  0.41953  Biso   1.000  C
  C135     1.0000 0.43130  0.40040  0.75287  Biso   1.000  C
  C136     1.0000 0.40040  0.96910  0.58620  Biso   1.000  C
  C137     1.0000 0.03090  0.43130  0.91953  Biso   1.000  C
  C138     1.0000 0.56870  0.59960  0.25287  Biso   1.000  C
  C139     1.0000 0.03090  0.59960  0.24713  Biso   1.000  C
  C140     1.0000 0.56870  0.96910  0.91380  Biso   1.000  C
  C141     1.0000 0.40040  0.43130  0.58047  Biso   1.000  C
  C142     1.0000 0.96910  0.40040  0.74713  Biso   1.000  C
  C143     1.0000 0.43130  0.03090  0.41380  Biso   1.000  C
  C144     1.0000 0.59960  0.56870  0.08047  Biso   1.000  C
  H109     1.0000 0.67990  0.06520  0.10150  Biso   1.000  H
  H110     1.0000 0.93480  0.61470  0.43483  Biso   1.000  H
  H111     1.0000 0.38530  0.32010  0.76817  Biso   1.000  H
  H112     1.0000 0.32010  0.93480  0.60150  Biso   1.000  H
  H113     1.0000 0.06520  0.38530  0.93483  Biso   1.000  H
  H114     1.0000 0.61470  0.67990  0.26817  Biso   1.000  H
  H115     1.0000 0.06520  0.67990  0.23183  Biso   1.000  H
  H116     1.0000 0.61470  0.93480  0.89850  Biso   1.000  H
  H117     1.0000 0.32010  0.38530  0.56517  Biso   1.000  H
  H118     1.0000 0.93480  0.32010  0.73183  Biso   1.000  H
  H119     1.0000 0.38530  0.06520  0.39850  Biso   1.000  H
  H120     1.0000 0.67990  0.61470  0.06517  Biso   1.000  H
  C145     1.0000 0.51580  0.08200  0.09150  Biso   1.000  C
  C146     1.0000 0.91800  0.43380  0.42483  Biso   1.000  C
  C147     1.0000 0.56620  0.48420  0.75817  Biso   1.000  C
  C148     1.0000 0.48420  0.91800  0.59150  Biso   1.000  C
  C149     1.0000 0.08200  0.56620  0.92483  Biso   1.000  C
  C150     1.0000 0.43380  0.51580  0.25817  Biso   1.000  C
  C151     1.0000 0.08200  0.51580  0.24183  Biso   1.000  C
  C152     1.0000 0.43380  0.91800  0.90850  Biso   1.000  C
  C153     1.0000 0.48420  0.56620  0.57517  Biso   1.000  C
  C154     1.0000 0.91800  0.48420  0.74183  Biso   1.000  C
  C155     1.0000 0.56620  0.08200  0.40850  Biso   1.000  C
  C156     1.0000 0.51580  0.43380  0.07517  Biso   1.000  C
  H121     1.0000 0.54130  0.15280  0.11040  Biso   1.000  H
  H122     1.0000 0.84720  0.38850  0.44373  Biso   1.000  H
  H123     1.0000 0.61150  0.45870  0.77707  Biso   1.000  H
  H124     1.0000 0.45870  0.84720  0.61040  Biso   1.000  H
  H125     1.0000 0.15280  0.61150  0.94373  Biso   1.000  H
  H126     1.0000 0.38850  0.54130  0.27707  Biso   1.000  H
  H127     1.0000 0.15280  0.54130  0.22293  Biso   1.000  H
  H128     1.0000 0.38850  0.84720  0.88960  Biso   1.000  H
  H129     1.0000 0.45870  0.61150  0.55627  Biso   1.000  H
  H130     1.0000 0.84720  0.45870  0.72293  Biso   1.000  H
  H131     1.0000 0.61150  0.15280  0.38960  Biso   1.000  H
  H132     1.0000 0.54130  0.38850  0.05627  Biso   1.000  H
  C157     1.0000 0.65890  0.87420  0.04870  Biso   1.000  C
  C158     1.0000 0.12580  0.78470  0.38203  Biso   1.000  C
  C159     1.0000 0.21530  0.34110  0.71537  Biso   1.000  C
  C160     1.0000 0.34110  0.12580  0.54870  Biso   1.000  C
  C161     1.0000 0.87420  0.21530  0.88203  Biso   1.000  C
  C162     1.0000 0.78470  0.65890  0.21537  Biso   1.000  C
  C163     1.0000 0.87420  0.65890  0.28463  Biso   1.000  C
  C164     1.0000 0.78470  0.12580  0.95130  Biso   1.000  C
  C165     1.0000 0.34110  0.21530  0.61797  Biso   1.000  C
  C166     1.0000 0.12580  0.34110  0.78463  Biso   1.000  C
  C167     1.0000 0.21530  0.87420  0.45130  Biso   1.000  C
  C168     1.0000 0.65890  0.78470  0.11797  Biso   1.000  C
  H133     1.0000 0.60330  0.78200  0.03830  Biso   1.000  H
  H134     1.0000 0.21800  0.82130  0.37163  Biso   1.000  H
  H135     1.0000 0.17870  0.39670  0.70497  Biso   1.000  H
  H136     1.0000 0.39670  0.21800  0.53830  Biso   1.000  H
  H137     1.0000 0.78200  0.17870  0.87163  Biso   1.000  H
  H138     1.0000 0.82130  0.60330  0.20497  Biso   1.000  H
  H139     1.0000 0.78200  0.60330  0.29503  Biso   1.000  H
  H140     1.0000 0.82130  0.21800  0.96170  Biso   1.000  H
  H141     1.0000 0.39670  0.17870  0.62837  Biso   1.000  H
  H142     1.0000 0.21800  0.39670  0.79503  Biso   1.000  H
  H143     1.0000 0.17870  0.78200  0.46170  Biso   1.000  H
  H144     1.0000 0.60330  0.82130  0.12837  Biso   1.000  H
  H145     1.0000 0.71970  0.92860  0.02660  Biso   1.000  H
  H146     1.0000 0.07140  0.79110  0.35993  Biso   1.000  H
  H147     1.0000 0.20890  0.28030  0.69327  Biso   1.000  H
  H148     1.0000 0.28030  0.07140  0.52660  Biso   1.000  H
  H149     1.0000 0.92860  0.20890  0.85993  Biso   1.000  H
  H150     1.0000 0.79110  0.71970  0.19327  Biso   1.000  H
  H151     1.0000 0.92860  0.71970  0.30673  Biso   1.000  H
  H152     1.0000 0.79110  0.07140  0.97340  Biso   1.000  H
  H153     1.0000 0.28030  0.20890  0.64007  Biso   1.000  H
  H154     1.0000 0.07140  0.28030  0.80673  Biso   1.000  H
  H155     1.0000 0.20890  0.92860  0.47340  Biso   1.000  H
  H156     1.0000 0.71970  0.79110  0.14007  Biso   1.000  H
  C169     1.0000 0.74210  0.87110  0.08330  Biso   1.000  C
  C170     1.0000 0.12890  0.87100  0.41663  Biso   1.000  C
  C171     1.0000 0.12900  0.25790  0.74997  Biso   1.000  C
  C172     1.0000 0.25790  0.12890  0.58330  Biso   1.000  C
  C173     1.0000 0.87110  0.12900  0.91663  Biso   1.000  C
  C174     1.0000 0.87100  0.74210  0.24997  Biso   1.000  C
  H157     1.0000 0.80400  0.96120  0.09420  Biso   1.000  H
  H158     1.0000 0.03880  0.84280  0.42753  Biso   1.000  H
  H159     1.0000 0.15720  0.19600  0.76087  Biso   1.000  H
  H160     1.0000 0.19600  0.03880  0.59420  Biso   1.000  H
  H161     1.0000 0.96120  0.15720  0.92753  Biso   1.000  H
  H162     1.0000 0.84280  0.80400  0.26087  Biso   1.000  H
  H163     1.0000 0.96120  0.80400  0.23913  Biso   1.000  H
  H164     1.0000 0.84280  0.03880  0.90580  Biso   1.000  H
  H165     1.0000 0.19600  0.15720  0.57247  Biso   1.000  H
  H166     1.0000 0.03880  0.19600  0.73913  Biso   1.000  H
  H167     1.0000 0.15720  0.96120  0.40580  Biso   1.000  H
  H168     1.0000 0.80400  0.84280  0.07247  Biso   1.000  H
  C175     1.0000 0.46880  0.95210  0.04680  Biso   1.000  C
  C176     1.0000 0.04790  0.51670  0.38013  Biso   1.000  C
  C177     1.0000 0.48330  0.53120  0.71347  Biso   1.000  C
  C178     1.0000 0.53120  0.04790  0.54680  Biso   1.000  C
  C179     1.0000 0.95210  0.48330  0.88013  Biso   1.000  C
  C180     1.0000 0.51670  0.46880  0.21347  Biso   1.000  C
  C181     1.0000 0.95210  0.46880  0.28653  Biso   1.000  C
  C182     1.0000 0.51670  0.04790  0.95320  Biso   1.000  C
  C183     1.0000 0.53120  0.48330  0.61987  Biso   1.000  C
  C184     1.0000 0.04790  0.53120  0.78653  Biso   1.000  C
  C185     1.0000 0.48330  0.95210  0.45320  Biso   1.000  C
  C186     1.0000 0.46880  0.51670  0.11987  Biso   1.000  C
  C187     1.0000 0.57960  0.00280  0.07230  Biso   1.000  C
  C188     1.0000 0.99720  0.57680  0.40563  Biso   1.000  C
  C189     1.0000 0.42320  0.42040  0.73897  Biso   1.000  C
  C190     1.0000 0.42040  0.99720  0.57230  Biso   1.000  C
  C191     1.0000 0.00280  0.42320  0.90563  Biso   1.000  C
  C192     1.0000 0.57680  0.57960  0.23897  Biso   1.000  C
  C193     1.0000 0.00280  0.57960  0.26103  Biso   1.000  C
  C194     1.0000 0.57680  0.99720  0.92770  Biso   1.000  C
  C195     1.0000 0.42040  0.42320  0.59437  Biso   1.000  C
  C196     1.0000 0.99720  0.42040  0.76103  Biso   1.000  C
  C197     1.0000 0.42320  0.00280  0.42770  Biso   1.000  C
  C198     1.0000 0.57960  0.57680  0.09437  Biso   1.000  C
  C199     1.0000 0.59910  0.10170  0.09950  Biso   1.000  C
  C200     1.0000 0.89830  0.49740  0.43283  Biso   1.000  C
  C201     1.0000 0.50260  0.40090  0.76617  Biso   1.000  C
  C202     1.0000 0.40090  0.89830  0.59950  Biso   1.000  C
  C203     1.0000 0.10170  0.50260  0.93283  Biso   1.000  C
  C204     1.0000 0.49740  0.59910  0.26617  Biso   1.000  C
  C205     1.0000 0.10170  0.59910  0.23383  Biso   1.000  C
  C206     1.0000 0.49740  0.89830  0.90050  Biso   1.000  C
  C207     1.0000 0.40090  0.50260  0.56717  Biso   1.000  C
  C208     1.0000 0.89830  0.40090  0.73383  Biso   1.000  C
  C209     1.0000 0.50260  0.10170  0.40050  Biso   1.000  C
  C210     1.0000 0.59910  0.49740  0.06717  Biso   1.000  C
  C211     1.0000 0.50760  0.14610  0.10090  Biso   1.000  C
  C212     1.0000 0.85390  0.36150  0.43423  Biso   1.000  C
  C213     1.0000 0.63850  0.49240  0.76757  Biso   1.000  C
  C214     1.0000 0.49240  0.85390  0.60090  Biso   1.000  C
  C215     1.0000 0.14610  0.63850  0.93423  Biso   1.000  C
  C216     1.0000 0.36150  0.50760  0.26757  Biso   1.000  C
  C217     1.0000 0.14610  0.50760  0.23243  Biso   1.000  C
  C218     1.0000 0.36150  0.85390  0.89910  Biso   1.000  C
  C219     1.0000 0.49240  0.63850  0.56577  Biso   1.000  C
  C220     1.0000 0.85390  0.49240  0.73243  Biso   1.000  C
  C221     1.0000 0.63850  0.14610  0.39910  Biso   1.000  C
  C222     1.0000 0.50760  0.36150  0.06577  Biso   1.000  C
  C223     1.0000 0.66650  0.93920  0.07270  Biso   1.000  C
  C224     1.0000 0.06080  0.72730  0.40603  Biso   1.000  C
  C225     1.0000 0.27270  0.33350  0.73937  Biso   1.000  C
  C226     1.0000 0.33350  0.06080  0.57270  Biso   1.000  C
  C227     1.0000 0.93920  0.27270  0.90603  Biso   1.000  C
  C228     1.0000 0.72730  0.66650  0.23937  Biso   1.000  C
  C229     1.0000 0.93920  0.66650  0.26063  Biso   1.000  C
  C230     1.0000 0.72730  0.06080  0.92730  Biso   1.000  C
  C231     1.0000 0.33350  0.27270  0.59397  Biso   1.000  C
  C232     1.0000 0.06080  0.33350  0.76063  Biso   1.000  C
  C233     1.0000 0.27270  0.93920  0.42730  Biso   1.000  C
  C234     1.0000 0.66650  0.72730  0.09397  Biso   1.000  C
  C235     1.0000 0.58430  0.79220  0.08330  Biso   1.000  C
  C236     1.0000 0.20780  0.79210  0.41663  Biso   1.000  C
  C237     1.0000 0.20790  0.41570  0.74997  Biso   1.000  C
  C238     1.0000 0.41570  0.20780  0.58330  Biso   1.000  C
  C239     1.0000 0.79220  0.20790  0.91663  Biso   1.000  C
  C240     1.0000 0.79210  0.58430  0.24997  Biso   1.000  C
  C241     1.0000 0.38090  0.00000  0.04980  Biso   1.000  C
  C242     1.0000 0.00000  0.38090  0.38313  Biso   1.000  C
  C243     1.0000 0.61910  0.61910  0.71647  Biso   1.000  C
  C244     1.0000 0.61910  0.00000  0.54980  Biso   1.000  C
  C245     1.0000 0.00000  0.61910  0.88313  Biso   1.000  C
  C246     1.0000 0.38090  0.38090  0.21647  Biso   1.000  C
  C247     1.0000 0.00000  0.38090  0.28353  Biso   1.000  C
  C248     1.0000 0.38090  0.00000  0.95020  Biso   1.000  C
  C249     1.0000 0.61910  0.61910  0.61687  Biso   1.000  C
  C250     1.0000 0.00000  0.61910  0.78353  Biso   1.000  C
  C251     1.0000 0.61910  0.00000  0.45020  Biso   1.000  C
  C252     1.0000 0.38090  0.38090  0.11687  Biso   1.000  C
  H169     1.0000 0.45370  0.88500  0.02750  Biso   1.000  H
  H170     1.0000 0.11500  0.56870  0.36083  Biso   1.000  H
  H171     1.0000 0.43130  0.54630  0.69417  Biso   1.000  H
  H172     1.0000 0.54630  0.11500  0.52750  Biso   1.000  H
  H173     1.0000 0.88500  0.43130  0.86083  Biso   1.000  H
  H174     1.0000 0.56870  0.45370  0.19417  Biso   1.000  H
  H175     1.0000 0.88500  0.45370  0.30583  Biso   1.000  H
  H176     1.0000 0.56870  0.11500  0.97250  Biso   1.000  H
  H177     1.0000 0.54630  0.43130  0.63917  Biso   1.000  H
  H178     1.0000 0.11500  0.54630  0.80583  Biso   1.000  H
  H179     1.0000 0.43130  0.88500  0.47250  Biso   1.000  H
  H180     1.0000 0.45370  0.56870  0.13917  Biso   1.000  H
  H181     1.0000 0.67450  0.13910  0.11700  Biso   1.000  H
  H182     1.0000 0.86090  0.53540  0.45033  Biso   1.000  H
  H183     1.0000 0.46460  0.32550  0.78367  Biso   1.000  H
  H184     1.0000 0.32550  0.86090  0.61700  Biso   1.000  H
  H185     1.0000 0.13910  0.46460  0.95033  Biso   1.000  H
  H186     1.0000 0.53540  0.67450  0.28367  Biso   1.000  H
  H187     1.0000 0.13910  0.67450  0.21633  Biso   1.000  H
  H188     1.0000 0.53540  0.86090  0.88300  Biso   1.000  H
  H189     1.0000 0.32550  0.46460  0.54967  Biso   1.000  H
  H190     1.0000 0.86090  0.32550  0.71633  Biso   1.000  H
  H191     1.0000 0.46460  0.13910  0.38300  Biso   1.000  H
  H192     1.0000 0.67450  0.53540  0.04967  Biso   1.000  H
  H193     1.0000 0.51940  0.21210  0.12030  Biso   1.000  H
  H194     1.0000 0.78790  0.30730  0.45363  Biso   1.000  H
  H195     1.0000 0.69270  0.48060  0.78697  Biso   1.000  H
  H196     1.0000 0.48060  0.78790  0.62030  Biso   1.000  H
  H197     1.0000 0.21210  0.69270  0.95363  Biso   1.000  H
  H198     1.0000 0.30730  0.51940  0.28697  Biso   1.000  H
  H199     1.0000 0.21210  0.51940  0.21303  Biso   1.000  H
  H200     1.0000 0.30730  0.78790  0.87970  Biso   1.000  H
  H201     1.0000 0.48060  0.69270  0.54637  Biso   1.000  H
  H202     1.0000 0.78790  0.48060  0.71303  Biso   1.000  H
  H203     1.0000 0.69270  0.21210  0.37970  Biso   1.000  H
  H204     1.0000 0.51940  0.30730  0.04637  Biso   1.000  H
  H205     1.0000 0.73920  0.98530  0.09270  Biso   1.000  H
  H206     1.0000 0.01470  0.75390  0.42603  Biso   1.000  H
  H207     1.0000 0.24610  0.26080  0.75937  Biso   1.000  H
  H208     1.0000 0.26080  0.01470  0.59270  Biso   1.000  H
  H209     1.0000 0.98530  0.24610  0.92603  Biso   1.000  H
  H210     1.0000 0.75390  0.73920  0.25937  Biso   1.000  H
  H211     1.0000 0.98530  0.73920  0.24063  Biso   1.000  H
  H212     1.0000 0.75390  0.01470  0.90730  Biso   1.000  H
  H213     1.0000 0.26080  0.24610  0.57397  Biso   1.000  H
  H214     1.0000 0.01470  0.26080  0.74063  Biso   1.000  H
  H215     1.0000 0.24610  0.98530  0.40730  Biso   1.000  H
  H216     1.0000 0.73920  0.75390  0.07397  Biso   1.000  H
  H217     1.0000 0.70770  0.94920  0.04560  Biso   1.000  H
  H218     1.0000 0.05080  0.75850  0.37893  Biso   1.000  H
  H219     1.0000 0.24150  0.29230  0.71227  Biso   1.000  H
  H220     1.0000 0.29230  0.05080  0.54560  Biso   1.000  H
  H221     1.0000 0.94920  0.24150  0.87893  Biso   1.000  H
  H222     1.0000 0.75850  0.70770  0.21227  Biso   1.000  H
  H223     1.0000 0.94920  0.70770  0.28773  Biso   1.000  H
  H224     1.0000 0.75850  0.05080  0.95440  Biso   1.000  H
  H225     1.0000 0.29230  0.24150  0.62107  Biso   1.000  H
  H226     1.0000 0.05080  0.29230  0.78773  Biso   1.000  H
  H227     1.0000 0.24150  0.94920  0.45440  Biso   1.000  H
  H228     1.0000 0.70770  0.75850  0.12107  Biso   1.000  H
  H229     1.0000 0.52580  0.74420  0.06000  Biso   1.000  H
  H230     1.0000 0.25580  0.78160  0.39333  Biso   1.000  H
  H231     1.0000 0.21840  0.47420  0.72667  Biso   1.000  H
  H232     1.0000 0.47420  0.25580  0.56000  Biso   1.000  H
  H233     1.0000 0.74420  0.21840  0.89333  Biso   1.000  H
  H234     1.0000 0.78160  0.52580  0.22667  Biso   1.000  H
  H235     1.0000 0.74420  0.52580  0.27333  Biso   1.000  H
  H236     1.0000 0.78160  0.25580  0.94000  Biso   1.000  H
  H237     1.0000 0.47420  0.21840  0.60667  Biso   1.000  H
  H238     1.0000 0.25580  0.47420  0.77333  Biso   1.000  H
  H239     1.0000 0.21840  0.74420  0.44000  Biso   1.000  H
  H240     1.0000 0.52580  0.78160  0.10667  Biso   1.000  H
  H241     1.0000 0.30320  0.96320  0.03320  Biso   1.000  H
  H242     1.0000 0.03680  0.34000  0.36653  Biso   1.000  H
  H243     1.0000 0.66000  0.69680  0.69987  Biso   1.000  H
  H244     1.0000 0.69680  0.03680  0.53320  Biso   1.000  H
  H245     1.0000 0.96320  0.66000  0.86653  Biso   1.000  H
  H246     1.0000 0.34000  0.30320  0.19987  Biso   1.000  H
  H247     1.0000 0.96320  0.30320  0.30013  Biso   1.000  H
  H248     1.0000 0.34000  0.03680  0.96680  Biso   1.000  H
  H249     1.0000 0.69680  0.66000  0.63347  Biso   1.000  H
  H250     1.0000 0.03680  0.69680  0.80013  Biso   1.000  H
  H251     1.0000 0.66000  0.96320  0.46680  Biso   1.000  H
  H252     1.0000 0.30320  0.34000  0.13347  Biso   1.000  H
  N13      1.0000 0.40490  0.09870  0.07610  Biso   1.000  N
  N14      1.0000 0.90130  0.30620  0.40943  Biso   1.000  N
  N15      1.0000 0.69380  0.59510  0.74277  Biso   1.000  N
  N16      1.0000 0.59510  0.90130  0.57610  Biso   1.000  N
  N17      1.0000 0.09870  0.69380  0.90943  Biso   1.000  N
  N18      1.0000 0.30620  0.40490  0.24277  Biso   1.000  N
  N19      1.0000 0.09870  0.40490  0.25723  Biso   1.000  N
  N20      1.0000 0.30620  0.90130  0.92390  Biso   1.000  N
  N21      1.0000 0.59510  0.69380  0.59057  Biso   1.000  N
  N22      1.0000 0.90130  0.59510  0.75723  Biso   1.000  N
  N23      1.0000 0.69380  0.09870  0.42390  Biso   1.000  N
  N24      1.0000 0.40490  0.30620  0.09057  Biso   1.000  N
