data_image0
_cell_length_a       11.1531
_cell_length_b       9.9944
_cell_length_c       24.0449
_cell_angle_alpha    90
_cell_angle_beta     90
_cell_angle_gamma    90

_symmetry_space_group_name_H-M    "P 1"
_symmetry_int_tables_number       1

loop_
  _symmetry_equiv_pos_as_xyz
  'x, y, z'

loop_
  _atom_site_label
  _atom_site_occupancy
  _atom_site_fract_x
  _atom_site_fract_y
  _atom_site_fract_z
  _atom_site_thermal_displace_type
  _atom_site_B_iso_or_equiv
  _atom_site_type_symbol
  Cu1      1.0000 0.31716  0.49915  0.78756  Biso   1.000  Cu
  Cu2      1.0000 0.68284  0.50085  0.28756  Biso   1.000  Cu
  Cu3      1.0000 0.18284  0.99915  0.28756  Biso   1.000  Cu
  Cu4      1.0000 0.81716  0.00085  0.78756  Biso   1.000  Cu
  O1       1.0000 0.45510  0.35340  0.82640  Biso   1.000  O
  O2       1.0000 0.54490  0.64660  0.32640  Biso   1.000  O
  O3       1.0000 0.04490  0.85340  0.32640  Biso   1.000  O
  O4       1.0000 0.95510  0.14660  0.82640  Biso   1.000  O
  H1       1.0000 0.45360  0.27810  0.81000  Biso   1.000  H
  H2       1.0000 0.54640  0.72190  0.31000  Biso   1.000  H
  H3       1.0000 0.04640  0.77810  0.31000  Biso   1.000  H
  H4       1.0000 0.95360  0.22190  0.81000  Biso   1.000  H
  O5       1.0000 0.46160  0.60840  0.79340  Biso   1.000  O
  O6       1.0000 0.53840  0.39160  0.29340  Biso   1.000  O
  O7       1.0000 0.03840  0.10840  0.29340  Biso   1.000  O
  O8       1.0000 0.96160  0.89160  0.79340  Biso   1.000  O
  O9       1.0000 0.66140  0.61570  0.79870  Biso   1.000  O
  O10      1.0000 0.33860  0.38430  0.29870  Biso   1.000  O
  O11      1.0000 0.83860  0.11570  0.29870  Biso   1.000  O
  O12      1.0000 0.16140  0.88430  0.79870  Biso   1.000  O
  O13      1.0000 0.17850  0.64770  0.75150  Biso   1.000  O
  O14      1.0000 0.82150  0.35230  0.25150  Biso   1.000  O
  O15      1.0000 0.32150  0.14770  0.25150  Biso   1.000  O
  O16      1.0000 0.67850  0.85230  0.75150  Biso   1.000  O
  H5       1.0000 0.18260  0.72190  0.76860  Biso   1.000  H
  H6       1.0000 0.81740  0.27810  0.26860  Biso   1.000  H
  H7       1.0000 0.31740  0.22190  0.26860  Biso   1.000  H
  H8       1.0000 0.68260  0.77810  0.76860  Biso   1.000  H
  O17      1.0000 0.17110  0.38940  0.78230  Biso   1.000  O
  O18      1.0000 0.82890  0.61060  0.28230  Biso   1.000  O
  O19      1.0000 0.32890  0.88940  0.28230  Biso   1.000  O
  O20      1.0000 0.67110  0.11060  0.78230  Biso   1.000  O
  O21      1.0000 0.97300  0.38980  0.78670  Biso   1.000  O
  O22      1.0000 0.02700  0.61020  0.28670  Biso   1.000  O
  O23      1.0000 0.52700  0.88980  0.28670  Biso   1.000  O
  O24      1.0000 0.47300  0.11020  0.78670  Biso   1.000  O
  N1       1.0000 0.26590  0.55530  0.86520  Biso   1.000  N
  N2       1.0000 0.73410  0.44470  0.36520  Biso   1.000  N
  N3       1.0000 0.23410  0.05530  0.36520  Biso   1.000  N
  N4       1.0000 0.76590  0.94470  0.86520  Biso   1.000  N
  N5       1.0000 0.13040  0.93860  0.21090  Biso   1.000  N
  N6       1.0000 0.86960  0.06140  0.71090  Biso   1.000  N
  N7       1.0000 0.36960  0.43860  0.71090  Biso   1.000  N
  N8       1.0000 0.63040  0.56140  0.21090  Biso   1.000  N
  C1       1.0000 0.63420  0.40410  0.88030  Biso   1.000  C
  C2       1.0000 0.36580  0.59590  0.38030  Biso   1.000  C
  C3       1.0000 0.86580  0.90410  0.38030  Biso   1.000  C
  C4       1.0000 0.13420  0.09590  0.88030  Biso   1.000  C
  C5       1.0000 0.56780  0.38440  0.92910  Biso   1.000  C
  C6       1.0000 0.43220  0.61560  0.42910  Biso   1.000  C
  C7       1.0000 0.93220  0.88440  0.42910  Biso   1.000  C
  C8       1.0000 0.06780  0.11560  0.92910  Biso   1.000  C
  H9       1.0000 0.48310  0.37520  0.92710  Biso   1.000  H
  H10      1.0000 0.51690  0.62480  0.42710  Biso   1.000  H
  H11      1.0000 0.01690  0.87520  0.42710  Biso   1.000  H
  H12      1.0000 0.98310  0.12480  0.92710  Biso   1.000  H
  C9       1.0000 0.62430  0.37830  0.97950  Biso   1.000  C
  C10      1.0000 0.37570  0.62170  0.47950  Biso   1.000  C
  C11      1.0000 0.87570  0.87830  0.47950  Biso   1.000  C
  C12      1.0000 0.12430  0.12170  0.97950  Biso   1.000  C
  H13      1.0000 0.57820  0.36680  0.01240  Biso   1.000  H
  H14      1.0000 0.42180  0.63320  0.51240  Biso   1.000  H
  H15      1.0000 0.92180  0.86680  0.51240  Biso   1.000  H
  H16      1.0000 0.07820  0.13320  0.01240  Biso   1.000  H
  C13      1.0000 0.74980  0.38890  0.98320  Biso   1.000  C
  C14      1.0000 0.25020  0.61110  0.48320  Biso   1.000  C
  C15      1.0000 0.75020  0.88890  0.48320  Biso   1.000  C
  C16      1.0000 0.24980  0.11110  0.98320  Biso   1.000  C
  H17      1.0000 0.78880  0.38550  0.01830  Biso   1.000  H
  H18      1.0000 0.21120  0.61450  0.51830  Biso   1.000  H
  H19      1.0000 0.71120  0.88550  0.51830  Biso   1.000  H
  H20      1.0000 0.28880  0.11450  0.01830  Biso   1.000  H
  C17      1.0000 0.81510  0.40450  0.93510  Biso   1.000  C
  C18      1.0000 0.18490  0.59550  0.43510  Biso   1.000  C
  C19      1.0000 0.68490  0.90450  0.43510  Biso   1.000  C
  C20      1.0000 0.31510  0.09550  0.93510  Biso   1.000  C
  H21      1.0000 0.90000  0.41030  0.93690  Biso   1.000  H
  H22      1.0000 0.10000  0.58970  0.43690  Biso   1.000  H
  H23      1.0000 0.60000  0.91030  0.43690  Biso   1.000  H
  H24      1.0000 0.40000  0.08970  0.93690  Biso   1.000  H
  C21      1.0000 0.75830  0.41160  0.88450  Biso   1.000  C
  C22      1.0000 0.24170  0.58840  0.38450  Biso   1.000  C
  C23      1.0000 0.74170  0.91160  0.38450  Biso   1.000  C
  C24      1.0000 0.25830  0.08840  0.88450  Biso   1.000  C
  H25      1.0000 0.80490  0.42180  0.85170  Biso   1.000  H
  H26      1.0000 0.19510  0.57820  0.35170  Biso   1.000  H
  H27      1.0000 0.69510  0.92180  0.35170  Biso   1.000  H
  H28      1.0000 0.30490  0.07820  0.85170  Biso   1.000  H
  C25      1.0000 0.57230  0.40990  0.82430  Biso   1.000  C
  C26      1.0000 0.42770  0.59010  0.32430  Biso   1.000  C
  C27      1.0000 0.92770  0.90990  0.32430  Biso   1.000  C
  C28      1.0000 0.07230  0.09010  0.82430  Biso   1.000  C
  H29      1.0000 0.62110  0.35800  0.79690  Biso   1.000  H
  H30      1.0000 0.37890  0.64200  0.29690  Biso   1.000  H
  H31      1.0000 0.87890  0.85800  0.29690  Biso   1.000  H
  H32      1.0000 0.12110  0.14200  0.79690  Biso   1.000  H
  C29      1.0000 0.56420  0.55680  0.80420  Biso   1.000  C
  C30      1.0000 0.43580  0.44320  0.30420  Biso   1.000  C
  C31      1.0000 0.93580  0.05680  0.30420  Biso   1.000  C
  C32      1.0000 0.06420  0.94320  0.80420  Biso   1.000  C
  C33      1.0000 0.99230  0.60470  0.70370  Biso   1.000  C
  C34      1.0000 0.00770  0.39530  0.20370  Biso   1.000  C
  C35      1.0000 0.50770  0.10470  0.20370  Biso   1.000  C
  C36      1.0000 0.49230  0.89530  0.70370  Biso   1.000  C
  C37      1.0000 0.86730  0.59430  0.70450  Biso   1.000  C
  C38      1.0000 0.13270  0.40570  0.20450  Biso   1.000  C
  C39      1.0000 0.63270  0.09430  0.20450  Biso   1.000  C
  C40      1.0000 0.36730  0.90570  0.70450  Biso   1.000  C
  H33      1.0000 0.82740  0.57710  0.73870  Biso   1.000  H
  H34      1.0000 0.17260  0.42290  0.23870  Biso   1.000  H
  H35      1.0000 0.67260  0.07710  0.23870  Biso   1.000  H
  H36      1.0000 0.32740  0.92290  0.73870  Biso   1.000  H
  C41      1.0000 0.80210  0.60830  0.65720  Biso   1.000  C
  C42      1.0000 0.19790  0.39170  0.15720  Biso   1.000  C
  C43      1.0000 0.69790  0.10830  0.15720  Biso   1.000  C
  C44      1.0000 0.30210  0.89170  0.65720  Biso   1.000  C
  H37      1.0000 0.71710  0.60180  0.65840  Biso   1.000  H
  H38      1.0000 0.28290  0.39820  0.15840  Biso   1.000  H
  H39      1.0000 0.78290  0.10180  0.15840  Biso   1.000  H
  H40      1.0000 0.21710  0.89820  0.65840  Biso   1.000  H
  C45      1.0000 0.85900  0.63180  0.60790  Biso   1.000  C
  C46      1.0000 0.14100  0.36820  0.10790  Biso   1.000  C
  C47      1.0000 0.64100  0.13180  0.10790  Biso   1.000  C
  C48      1.0000 0.35900  0.86820  0.60790  Biso   1.000  C
  H41      1.0000 0.81300  0.64360  0.57500  Biso   1.000  H
  H42      1.0000 0.18700  0.35640  0.07500  Biso   1.000  H
  H43      1.0000 0.68700  0.14360  0.07500  Biso   1.000  H
  H44      1.0000 0.31300  0.85640  0.57500  Biso   1.000  H
  C49      1.0000 0.98090  0.63880  0.60520  Biso   1.000  C
  C50      1.0000 0.01910  0.36120  0.10520  Biso   1.000  C
  C51      1.0000 0.51910  0.13880  0.10520  Biso   1.000  C
  C52      1.0000 0.48090  0.86120  0.60520  Biso   1.000  C
  H45      1.0000 0.01980  0.65270  0.57050  Biso   1.000  H
  H46      1.0000 0.98020  0.34730  0.07050  Biso   1.000  H
  H47      1.0000 0.48020  0.15270  0.07050  Biso   1.000  H
  H48      1.0000 0.51980  0.84730  0.57050  Biso   1.000  H
  C53      1.0000 0.04760  0.62520  0.65350  Biso   1.000  C
  C54      1.0000 0.95240  0.37480  0.15350  Biso   1.000  C
  C55      1.0000 0.45240  0.12520  0.15350  Biso   1.000  C
  C56      1.0000 0.54760  0.87480  0.65350  Biso   1.000  C
  H49      1.0000 0.13250  0.63020  0.65180  Biso   1.000  H
  H50      1.0000 0.86750  0.36980  0.15180  Biso   1.000  H
  H51      1.0000 0.36750  0.13020  0.15180  Biso   1.000  H
  H52      1.0000 0.63250  0.86980  0.65180  Biso   1.000  H
  C57      1.0000 0.06230  0.59320  0.75700  Biso   1.000  C
  C58      1.0000 0.93770  0.40680  0.25700  Biso   1.000  C
  C59      1.0000 0.43770  0.09320  0.25700  Biso   1.000  C
  C60      1.0000 0.56230  0.90680  0.75700  Biso   1.000  C
  H53      1.0000 0.01910  0.64580  0.78610  Biso   1.000  H
  H54      1.0000 0.98090  0.35420  0.28610  Biso   1.000  H
  H55      1.0000 0.48090  0.14580  0.28610  Biso   1.000  H
  H56      1.0000 0.51910  0.85420  0.78610  Biso   1.000  H
  C61      1.0000 0.06950  0.44190  0.77750  Biso   1.000  C
  C62      1.0000 0.93050  0.55810  0.27750  Biso   1.000  C
  C63      1.0000 0.43050  0.94190  0.27750  Biso   1.000  C
  C64      1.0000 0.56950  0.05810  0.77750  Biso   1.000  C
  C65      1.0000 0.26970  0.68400  0.88190  Biso   1.000  C
  C66      1.0000 0.73030  0.31600  0.38190  Biso   1.000  C
  C67      1.0000 0.23030  0.18400  0.38190  Biso   1.000  C
  C68      1.0000 0.76970  0.81600  0.88190  Biso   1.000  C
  H57      1.0000 0.30800  0.74780  0.85850  Biso   1.000  H
  H58      1.0000 0.69200  0.25220  0.35850  Biso   1.000  H
  H59      1.0000 0.19200  0.24780  0.35850  Biso   1.000  H
  H60      1.0000 0.80800  0.75220  0.85850  Biso   1.000  H
  C69      1.0000 0.22040  0.72690  0.93100  Biso   1.000  C
  C70      1.0000 0.77960  0.27310  0.43100  Biso   1.000  C
  C71      1.0000 0.27960  0.22690  0.43100  Biso   1.000  C
  C72      1.0000 0.72040  0.77310  0.93100  Biso   1.000  C
  H61      1.0000 0.22390  0.81910  0.94040  Biso   1.000  H
  H62      1.0000 0.77610  0.18090  0.44040  Biso   1.000  H
  H63      1.0000 0.27610  0.31910  0.44040  Biso   1.000  H
  H64      1.0000 0.72390  0.68090  0.94040  Biso   1.000  H
  C73      1.0000 0.16560  0.63770  0.96740  Biso   1.000  C
  C74      1.0000 0.83440  0.36230  0.46740  Biso   1.000  C
  C75      1.0000 0.33440  0.13770  0.46740  Biso   1.000  C
  C76      1.0000 0.66560  0.86230  0.96740  Biso   1.000  C
  C77      1.0000 0.16700  0.50250  0.95070  Biso   1.000  C
  C78      1.0000 0.83300  0.49750  0.45070  Biso   1.000  C
  C79      1.0000 0.33300  0.00250  0.45070  Biso   1.000  C
  C80      1.0000 0.66700  0.99750  0.95070  Biso   1.000  C
  H65      1.0000 0.13410  0.43560  0.97430  Biso   1.000  H
  H66      1.0000 0.86590  0.56440  0.47430  Biso   1.000  H
  H67      1.0000 0.36590  0.93560  0.47430  Biso   1.000  H
  H68      1.0000 0.63410  0.06440  0.97430  Biso   1.000  H
  C81      1.0000 0.21530  0.46820  0.90110  Biso   1.000  C
  C82      1.0000 0.78470  0.53180  0.40110  Biso   1.000  C
  C83      1.0000 0.28470  0.96820  0.40110  Biso   1.000  C
  C84      1.0000 0.71530  0.03180  0.90110  Biso   1.000  C
  H69      1.0000 0.21350  0.37640  0.89080  Biso   1.000  H
  H70      1.0000 0.78650  0.62360  0.39080  Biso   1.000  H
  H71      1.0000 0.28650  0.87640  0.39080  Biso   1.000  H
  H72      1.0000 0.71350  0.12360  0.89080  Biso   1.000  H
  C85      1.0000 0.10810  0.67970  0.02080  Biso   1.000  C
  C86      1.0000 0.89190  0.32030  0.52080  Biso   1.000  C
  C87      1.0000 0.39190  0.17970  0.52080  Biso   1.000  C
  C88      1.0000 0.60810  0.82030  0.02080  Biso   1.000  C
  H73      1.0000 0.07980  0.59870  0.04050  Biso   1.000  H
  H74      1.0000 0.92020  0.40130  0.54050  Biso   1.000  H
  H75      1.0000 0.42020  0.09870  0.54050  Biso   1.000  H
  H76      1.0000 0.57980  0.90130  0.04050  Biso   1.000  H
  H77      1.0000 0.16970  0.72270  0.04440  Biso   1.000  H
  H78      1.0000 0.83030  0.27730  0.54440  Biso   1.000  H
  H79      1.0000 0.33030  0.22270  0.54440  Biso   1.000  H
  H80      1.0000 0.66970  0.77730  0.04440  Biso   1.000  H
  C89      1.0000 0.00590  0.77310  0.01460  Biso   1.000  C
  C90      1.0000 0.99410  0.22690  0.51460  Biso   1.000  C
  C91      1.0000 0.49410  0.27310  0.51460  Biso   1.000  C
  C92      1.0000 0.50590  0.72690  0.01460  Biso   1.000  C
  H81      1.0000 0.95130  0.73840  0.98550  Biso   1.000  H
  H82      1.0000 0.04870  0.26160  0.48550  Biso   1.000  H
  H83      1.0000 0.54870  0.23840  0.48550  Biso   1.000  H
  H84      1.0000 0.45130  0.76160  0.98550  Biso   1.000  H
  H85      1.0000 0.03650  0.86090  0.00190  Biso   1.000  H
  H86      1.0000 0.96350  0.13910  0.50190  Biso   1.000  H
  H87      1.0000 0.46350  0.36090  0.50190  Biso   1.000  H
  H88      1.0000 0.53650  0.63910  0.00190  Biso   1.000  H
  C93      1.0000 0.93500  0.79310  0.06810  Biso   1.000  C
  C94      1.0000 0.06500  0.20690  0.56810  Biso   1.000  C
  C95      1.0000 0.56500  0.29310  0.56810  Biso   1.000  C
  C96      1.0000 0.43500  0.70690  0.06810  Biso   1.000  C
  H89      1.0000 0.86930  0.85730  0.06060  Biso   1.000  H
  H90      1.0000 0.13070  0.14270  0.56060  Biso   1.000  H
  H91      1.0000 0.63070  0.35730  0.56060  Biso   1.000  H
  H92      1.0000 0.36930  0.64270  0.06060  Biso   1.000  H
  H93      1.0000 0.89780  0.70670  0.07850  Biso   1.000  H
  H94      1.0000 0.10220  0.29330  0.57850  Biso   1.000  H
  H95      1.0000 0.60220  0.20670  0.57850  Biso   1.000  H
  H96      1.0000 0.39780  0.79330  0.07850  Biso   1.000  H
  C97      1.0000 0.00720  0.84400  0.11740  Biso   1.000  C
  C98      1.0000 0.99280  0.15600  0.61740  Biso   1.000  C
  C99      1.0000 0.49280  0.34400  0.61740  Biso   1.000  C
  C100     1.0000 0.50720  0.65600  0.11740  Biso   1.000  C
  C101     1.0000 0.01940  0.98010  0.12810  Biso   1.000  C
  C102     1.0000 0.98060  0.01990  0.62810  Biso   1.000  C
  C103     1.0000 0.48060  0.48010  0.62810  Biso   1.000  C
  C104     1.0000 0.51940  0.51990  0.12810  Biso   1.000  C
  H97      1.0000 0.98720  0.04310  0.10260  Biso   1.000  H
  H98      1.0000 0.01280  0.95690  0.60260  Biso   1.000  H
  H99      1.0000 0.51280  0.54310  0.60260  Biso   1.000  H
  H100     1.0000 0.48720  0.45690  0.10260  Biso   1.000  H
  C105     1.0000 0.07690  0.02440  0.17470  Biso   1.000  C
  C106     1.0000 0.92310  0.97560  0.67470  Biso   1.000  C
  C107     1.0000 0.42310  0.52440  0.67470  Biso   1.000  C
  C108     1.0000 0.57690  0.47560  0.17470  Biso   1.000  C
  H101     1.0000 0.07960  0.11780  0.18200  Biso   1.000  H
  H102     1.0000 0.92040  0.88220  0.68200  Biso   1.000  H
  H103     1.0000 0.42040  0.61780  0.68200  Biso   1.000  H
  H104     1.0000 0.57960  0.38220  0.18200  Biso   1.000  H
  C109     1.0000 0.12440  0.80670  0.19860  Biso   1.000  C
  C110     1.0000 0.87560  0.19330  0.69860  Biso   1.000  C
  C111     1.0000 0.37560  0.30670  0.69860  Biso   1.000  C
  C112     1.0000 0.62440  0.69330  0.19860  Biso   1.000  C
  H105     1.0000 0.16360  0.74520  0.22270  Biso   1.000  H
  H106     1.0000 0.83640  0.25480  0.72270  Biso   1.000  H
  H107     1.0000 0.33640  0.24520  0.72270  Biso   1.000  H
  H108     1.0000 0.66360  0.75480  0.22270  Biso   1.000  H
  C113     1.0000 0.06490  0.75760  0.15340  Biso   1.000  C
  C114     1.0000 0.93510  0.24240  0.65340  Biso   1.000  C
  C115     1.0000 0.43510  0.25760  0.65340  Biso   1.000  C
  C116     1.0000 0.56490  0.74240  0.15340  Biso   1.000  C
  H109     1.0000 0.06320  0.66390  0.14670  Biso   1.000  H
  H110     1.0000 0.93680  0.33610  0.64670  Biso   1.000  H
  H111     1.0000 0.43680  0.16390  0.64670  Biso   1.000  H
  H112     1.0000 0.56320  0.83610  0.14670  Biso   1.000  H
