data_image0
_cell_length_a       12.9207
_cell_length_b       12.9207
_cell_length_c       19.932
_cell_angle_alpha    90
_cell_angle_beta     90
_cell_angle_gamma    120

_symmetry_space_group_name_H-M    "P 1"
_symmetry_int_tables_number       1

loop_
  _symmetry_equiv_pos_as_xyz
  'x, y, z'

loop_
  _atom_site_label
  _atom_site_occupancy
  _atom_site_fract_x
  _atom_site_fract_y
  _atom_site_fract_z
  _atom_site_thermal_displace_type
  _atom_site_B_iso_or_equiv
  _atom_site_type_symbol
  Cu1      1.0000 0.62121  0.00000  0.16670  Biso   1.000  Cu
  Cu2      1.0000 0.00000  0.62121  0.83337  Biso   1.000  Cu
  Cu3      1.0000 0.37879  0.37879  0.50003  Biso   1.000  Cu
  Cl1      1.0000 0.74236  0.24402  0.13973  Biso   1.000  Cl
  Cl2      1.0000 0.75598  0.49834  0.80639  Biso   1.000  Cl
  Cl3      1.0000 0.50166  0.25764  0.47306  Biso   1.000  Cl
  Cl4      1.0000 0.24402  0.74236  0.86027  Biso   1.000  Cl
  Cl5      1.0000 0.49834  0.75598  0.19361  Biso   1.000  Cl
  Cl6      1.0000 0.25764  0.50166  0.52694  Biso   1.000  Cl
  N1       1.0000 0.49621  0.97701  0.09642  Biso   1.000  N
  N2       1.0000 0.02299  0.51920  0.76309  Biso   1.000  N
  N3       1.0000 0.48080  0.50379  0.42975  Biso   1.000  N
  N4       1.0000 0.97701  0.49621  0.90358  Biso   1.000  N
  N5       1.0000 0.51920  0.02299  0.23691  Biso   1.000  N
  N6       1.0000 0.50379  0.48080  0.57025  Biso   1.000  N
  C1       1.0000 0.52791  0.03898  0.03853  Biso   1.000  C
  C2       1.0000 0.96102  0.48893  0.70520  Biso   1.000  C
  C3       1.0000 0.51107  0.47209  0.37186  Biso   1.000  C
  C4       1.0000 0.03898  0.52791  0.96147  Biso   1.000  C
  C5       1.0000 0.48893  0.96102  0.29480  Biso   1.000  C
  C6       1.0000 0.47209  0.51107  0.62814  Biso   1.000  C
  H1       1.0000 0.60690  0.09890  0.03280  Biso   1.000  H
  H2       1.0000 0.90110  0.50800  0.69947  Biso   1.000  H
  H3       1.0000 0.49200  0.39310  0.36613  Biso   1.000  H
  H4       1.0000 0.09890  0.60690  0.96720  Biso   1.000  H
  H5       1.0000 0.50800  0.90110  0.30053  Biso   1.000  H
  H6       1.0000 0.39310  0.49200  0.63387  Biso   1.000  H
  C7       1.0000 0.44710  0.01675  0.98713  Biso   1.000  C
  C8       1.0000 0.98325  0.43035  0.65380  Biso   1.000  C
  C9       1.0000 0.56965  0.55290  0.32046  Biso   1.000  C
  C10      1.0000 0.01675  0.44710  0.01287  Biso   1.000  C
  C11      1.0000 0.43035  0.98325  0.34620  Biso   1.000  C
  C12      1.0000 0.55290  0.56965  0.67954  Biso   1.000  C
  C13      1.0000 0.32806  0.92952  0.99715  Biso   1.000  C
  C14      1.0000 0.07048  0.39854  0.66382  Biso   1.000  C
  C15      1.0000 0.60146  0.67194  0.33048  Biso   1.000  C
  C16      1.0000 0.92952  0.32806  0.00285  Biso   1.000  C
  C17      1.0000 0.39854  0.07048  0.33618  Biso   1.000  C
  C18      1.0000 0.67194  0.60146  0.66952  Biso   1.000  C
  H7       1.0000 0.27180  0.91270  0.96360  Biso   1.000  H
  H8       1.0000 0.08730  0.35910  0.63027  Biso   1.000  H
  H9       1.0000 0.64090  0.72820  0.29693  Biso   1.000  H
  H10      1.0000 0.91270  0.27180  0.03640  Biso   1.000  H
  H11      1.0000 0.35910  0.08730  0.36973  Biso   1.000  H
  H12      1.0000 0.72820  0.64090  0.70307  Biso   1.000  H
  C19      1.0000 0.29451  0.86843  0.05710  Biso   1.000  C
  C20      1.0000 0.13157  0.42608  0.72377  Biso   1.000  C
  C21      1.0000 0.57392  0.70549  0.39043  Biso   1.000  C
  C22      1.0000 0.86843  0.29451  0.94290  Biso   1.000  C
  C23      1.0000 0.42608  0.13157  0.27623  Biso   1.000  C
  C24      1.0000 0.70549  0.57392  0.60957  Biso   1.000  C
  H13      1.0000 0.21500  0.81190  0.06520  Biso   1.000  H
  H14      1.0000 0.18810  0.40310  0.73187  Biso   1.000  H
  H15      1.0000 0.59690  0.78500  0.39853  Biso   1.000  H
  H16      1.0000 0.81190  0.21500  0.93480  Biso   1.000  H
  H17      1.0000 0.40310  0.18810  0.26813  Biso   1.000  H
  H18      1.0000 0.78500  0.59690  0.60147  Biso   1.000  H
  C25      1.0000 0.38126  0.89259  0.10515  Biso   1.000  C
  C26      1.0000 0.10741  0.48867  0.77182  Biso   1.000  C
  C27      1.0000 0.51133  0.61874  0.43848  Biso   1.000  C
  C28      1.0000 0.89259  0.38126  0.89485  Biso   1.000  C
  C29      1.0000 0.48867  0.10741  0.22818  Biso   1.000  C
  C30      1.0000 0.61874  0.51133  0.56152  Biso   1.000  C
  H19      1.0000 0.35910  0.84880  0.14480  Biso   1.000  H
  H20      1.0000 0.15120  0.51030  0.81147  Biso   1.000  H
  H21      1.0000 0.48970  0.64090  0.47813  Biso   1.000  H
  H22      1.0000 0.84880  0.35910  0.85520  Biso   1.000  H
  H23      1.0000 0.51030  0.15120  0.18853  Biso   1.000  H
  H24      1.0000 0.64090  0.48970  0.52187  Biso   1.000  H
  C31      1.0000 0.49279  0.08801  0.92383  Biso   1.000  C
  C32      1.0000 0.91199  0.40478  0.59050  Biso   1.000  C
  C33      1.0000 0.59522  0.50721  0.25716  Biso   1.000  C
  C34      1.0000 0.08801  0.49279  0.07617  Biso   1.000  C
  C35      1.0000 0.40478  0.91199  0.40950  Biso   1.000  C
  C36      1.0000 0.50721  0.59522  0.74284  Biso   1.000  C
  O1       1.0000 0.57806  0.19116  0.92468  Biso   1.000  O
  O2       1.0000 0.80884  0.38690  0.59135  Biso   1.000  O
  O3       1.0000 0.61310  0.42194  0.25801  Biso   1.000  O
  O4       1.0000 0.19116  0.57806  0.07532  Biso   1.000  O
  O5       1.0000 0.38690  0.80884  0.40865  Biso   1.000  O
  O6       1.0000 0.42194  0.61310  0.74199  Biso   1.000  O
  N7       1.0000 0.43408  0.03095  0.86797  Biso   1.000  N
  N8       1.0000 0.96905  0.40313  0.53464  Biso   1.000  N
  N9       1.0000 0.59687  0.56592  0.20130  Biso   1.000  N
  N10      1.0000 0.03095  0.43408  0.13203  Biso   1.000  N
  N11      1.0000 0.40313  0.96905  0.46536  Biso   1.000  N
  N12      1.0000 0.56592  0.59687  0.79870  Biso   1.000  N
  H25      1.0000 0.37670  0.95820  0.87110  Biso   1.000  H
  H26      1.0000 0.04180  0.41850  0.53777  Biso   1.000  H
  H27      1.0000 0.58150  0.62330  0.20443  Biso   1.000  H
  H28      1.0000 0.95820  0.37670  0.12890  Biso   1.000  H
  H29      1.0000 0.41850  0.04180  0.46223  Biso   1.000  H
  H30      1.0000 0.62330  0.58150  0.79557  Biso   1.000  H
  C37      1.0000 0.46392  0.08769  0.80237  Biso   1.000  C
  C38      1.0000 0.91231  0.37623  0.46904  Biso   1.000  C
  C39      1.0000 0.62377  0.53608  0.13570  Biso   1.000  C
  C40      1.0000 0.08769  0.46392  0.19763  Biso   1.000  C
  C41      1.0000 0.37623  0.91231  0.53096  Biso   1.000  C
  C42      1.0000 0.53608  0.62377  0.86430  Biso   1.000  C
  H31      1.0000 0.52800  0.17090  0.80700  Biso   1.000  H
  H32      1.0000 0.82910  0.35710  0.47367  Biso   1.000  H
  H33      1.0000 0.64290  0.47200  0.14033  Biso   1.000  H
  H34      1.0000 0.17090  0.52800  0.19300  Biso   1.000  H
  H35      1.0000 0.35710  0.82910  0.52633  Biso   1.000  H
  H36      1.0000 0.47200  0.64290  0.85967  Biso   1.000  H
  C43      1.0000 0.50374  0.02229  0.75396  Biso   1.000  C
  C44      1.0000 0.97771  0.48145  0.42063  Biso   1.000  C
  C45      1.0000 0.51855  0.49626  0.08729  Biso   1.000  C
  C46      1.0000 0.02229  0.50374  0.24604  Biso   1.000  C
  C47      1.0000 0.48145  0.97771  0.57937  Biso   1.000  C
  C48      1.0000 0.49626  0.51855  0.91271  Biso   1.000  C
  H37      1.0000 0.44300  0.93830  0.75410  Biso   1.000  H
  H38      1.0000 0.06170  0.50470  0.42077  Biso   1.000  H
  H39      1.0000 0.49530  0.55700  0.08743  Biso   1.000  H
  H40      1.0000 0.93830  0.44300  0.24590  Biso   1.000  H
  H41      1.0000 0.50470  0.06170  0.57923  Biso   1.000  H
  H42      1.0000 0.55700  0.49530  0.91257  Biso   1.000  H
  H43      1.0000 0.50560  0.05240  0.70910  Biso   1.000  H
  H44      1.0000 0.94760  0.45320  0.37577  Biso   1.000  H
  H45      1.0000 0.54680  0.49440  0.04243  Biso   1.000  H
  H46      1.0000 0.05240  0.50560  0.29090  Biso   1.000  H
  H47      1.0000 0.45320  0.94760  0.62423  Biso   1.000  H
  H48      1.0000 0.49440  0.54680  0.95757  Biso   1.000  H
  C49      1.0000 0.62204  0.03096  0.76680  Biso   1.000  C
  C50      1.0000 0.96904  0.59108  0.43347  Biso   1.000  C
  C51      1.0000 0.40892  0.37796  0.10013  Biso   1.000  C
  C52      1.0000 0.03096  0.62204  0.23320  Biso   1.000  C
  C53      1.0000 0.59108  0.96904  0.56653  Biso   1.000  C
  C54      1.0000 0.37796  0.40892  0.89987  Biso   1.000  C
  C55      1.0000 0.63230  0.92900  0.76369  Biso   1.000  C
  C56      1.0000 0.07100  0.70330  0.43036  Biso   1.000  C
  C57      1.0000 0.29670  0.36770  0.09702  Biso   1.000  C
  C58      1.0000 0.92900  0.63230  0.23631  Biso   1.000  C
  C59      1.0000 0.70330  0.07100  0.56964  Biso   1.000  C
  C60      1.0000 0.36770  0.29670  0.90298  Biso   1.000  C
  H49      1.0000 0.56380  0.85480  0.75850  Biso   1.000  H
  H50      1.0000 0.14520  0.70900  0.42517  Biso   1.000  H
  H51      1.0000 0.29100  0.43620  0.09183  Biso   1.000  H
  H52      1.0000 0.85480  0.56380  0.24150  Biso   1.000  H
  H53      1.0000 0.70900  0.14520  0.57483  Biso   1.000  H
  H54      1.0000 0.43620  0.29100  0.90817  Biso   1.000  H
  C61      1.0000 0.74140  0.93540  0.76808  Biso   1.000  C
  C62      1.0000 0.06460  0.80600  0.43475  Biso   1.000  C
  C63      1.0000 0.19400  0.25860  0.10141  Biso   1.000  C
  C64      1.0000 0.93540  0.74140  0.23192  Biso   1.000  C
  C65      1.0000 0.80600  0.06460  0.56525  Biso   1.000  C
  C66      1.0000 0.25860  0.19400  0.89859  Biso   1.000  C
  H55      1.0000 0.74580  0.86590  0.76510  Biso   1.000  H
  H56      1.0000 0.13410  0.87990  0.43177  Biso   1.000  H
  H57      1.0000 0.12010  0.25420  0.09843  Biso   1.000  H
  H58      1.0000 0.86590  0.74580  0.23490  Biso   1.000  H
  H59      1.0000 0.87990  0.13410  0.56823  Biso   1.000  H
  H60      1.0000 0.25420  0.12010  0.90157  Biso   1.000  H
  C67      1.0000 0.84460  0.04390  0.77694  Biso   1.000  C
  C68      1.0000 0.95610  0.80070  0.44361  Biso   1.000  C
  C69      1.0000 0.19930  0.15540  0.11027  Biso   1.000  C
  C70      1.0000 0.04390  0.84460  0.22306  Biso   1.000  C
  C71      1.0000 0.80070  0.95610  0.55639  Biso   1.000  C
  C72      1.0000 0.15540  0.19930  0.88973  Biso   1.000  C
  H61      1.0000 0.91810  0.04790  0.78140  Biso   1.000  H
  H62      1.0000 0.95210  0.87020  0.44807  Biso   1.000  H
  H63      1.0000 0.12980  0.08190  0.11473  Biso   1.000  H
  H64      1.0000 0.04790  0.91810  0.21860  Biso   1.000  H
  H65      1.0000 0.87020  0.95210  0.55193  Biso   1.000  H
  H66      1.0000 0.08190  0.12980  0.88527  Biso   1.000  H
  C73      1.0000 0.83640  0.14650  0.77904  Biso   1.000  C
  C74      1.0000 0.85350  0.68990  0.44571  Biso   1.000  C
  C75      1.0000 0.31010  0.16360  0.11237  Biso   1.000  C
  C76      1.0000 0.14650  0.83640  0.22096  Biso   1.000  C
  C77      1.0000 0.68990  0.85350  0.55429  Biso   1.000  C
  C78      1.0000 0.16360  0.31010  0.88763  Biso   1.000  C
  H67      1.0000 0.90510  0.22050  0.78410  Biso   1.000  H
  H68      1.0000 0.77950  0.68460  0.45077  Biso   1.000  H
  H69      1.0000 0.31540  0.09490  0.11743  Biso   1.000  H
  H70      1.0000 0.22050  0.90510  0.21590  Biso   1.000  H
  H71      1.0000 0.68460  0.77950  0.54923  Biso   1.000  H
  H72      1.0000 0.09490  0.31540  0.88257  Biso   1.000  H
  C79      1.0000 0.72620  0.13960  0.77364  Biso   1.000  C
  C80      1.0000 0.86040  0.58660  0.44031  Biso   1.000  C
  C81      1.0000 0.41340  0.27380  0.10697  Biso   1.000  C
  C82      1.0000 0.13960  0.72620  0.22636  Biso   1.000  C
  C83      1.0000 0.58660  0.86040  0.55969  Biso   1.000  C
  C84      1.0000 0.27380  0.41340  0.89303  Biso   1.000  C
  H73      1.0000 0.72230  0.20950  0.77460  Biso   1.000  H
  H74      1.0000 0.79050  0.51280  0.44127  Biso   1.000  H
  H75      1.0000 0.48720  0.27770  0.10793  Biso   1.000  H
  H76      1.0000 0.20950  0.72230  0.22540  Biso   1.000  H
  H77      1.0000 0.51280  0.79050  0.55873  Biso   1.000  H
  H78      1.0000 0.27770  0.48720  0.89207  Biso   1.000  H
  C85      1.0000 0.35279  0.08417  0.77218  Biso   1.000  C
  C86      1.0000 0.91583  0.26862  0.43885  Biso   1.000  C
  C87      1.0000 0.73138  0.64721  0.10551  Biso   1.000  C
  C88      1.0000 0.08417  0.35279  0.22782  Biso   1.000  C
  C89      1.0000 0.26862  0.91583  0.56115  Biso   1.000  C
  C90      1.0000 0.64721  0.73138  0.89449  Biso   1.000  C
  N13      1.0000 0.38172  0.16388  0.72075  Biso   1.000  N
  N14      1.0000 0.83612  0.21784  0.38742  Biso   1.000  N
  N15      1.0000 0.78216  0.61828  0.05408  Biso   1.000  N
  N16      1.0000 0.16388  0.38172  0.27925  Biso   1.000  N
  N17      1.0000 0.21784  0.83612  0.61258  Biso   1.000  N
  N18      1.0000 0.61828  0.78216  0.94592  Biso   1.000  N
  H79      1.0000 0.45660  0.21220  0.71410  Biso   1.000  H
  H80      1.0000 0.78780  0.24440  0.38077  Biso   1.000  H
  H81      1.0000 0.75560  0.54340  0.04743  Biso   1.000  H
  H82      1.0000 0.21220  0.45660  0.28590  Biso   1.000  H
  H83      1.0000 0.24440  0.78780  0.61923  Biso   1.000  H
  H84      1.0000 0.54340  0.75560  0.95257  Biso   1.000  H
  C91      1.0000 0.30221  0.17516  0.67773  Biso   1.000  C
  C92      1.0000 0.82484  0.12705  0.34440  Biso   1.000  C
  C93      1.0000 0.87295  0.69779  0.01106  Biso   1.000  C
  C94      1.0000 0.17516  0.30221  0.32227  Biso   1.000  C
  C95      1.0000 0.12705  0.82484  0.65560  Biso   1.000  C
  C96      1.0000 0.69779  0.87295  0.98894  Biso   1.000  C
  C97      1.0000 0.35001  0.23335  0.61703  Biso   1.000  C
  C98      1.0000 0.76665  0.11666  0.28370  Biso   1.000  C
  C99      1.0000 0.88334  0.64999  0.95036  Biso   1.000  C
  C100     1.0000 0.23335  0.35001  0.38297  Biso   1.000  C
  C101     1.0000 0.11666  0.76665  0.71630  Biso   1.000  C
  C102     1.0000 0.64999  0.88334  0.04964  Biso   1.000  C
  H85      1.0000 0.42910  0.25680  0.60710  Biso   1.000  H
  H86      1.0000 0.74320  0.17230  0.27377  Biso   1.000  H
  H87      1.0000 0.82770  0.57090  0.94043  Biso   1.000  H
  H88      1.0000 0.25680  0.42910  0.39290  Biso   1.000  H
  H89      1.0000 0.17230  0.74320  0.72623  Biso   1.000  H
  H90      1.0000 0.57090  0.82770  0.05957  Biso   1.000  H
  N19      1.0000 0.74320  0.02996  0.23915  Biso   1.000  N
  N20      1.0000 0.97004  0.71324  0.90582  Biso   1.000  N
  N21      1.0000 0.28676  0.25680  0.57248  Biso   1.000  N
  N22      1.0000 0.02996  0.74320  0.76085  Biso   1.000  N
  N23      1.0000 0.71324  0.97004  0.09418  Biso   1.000  N
  N24      1.0000 0.25680  0.28676  0.42752  Biso   1.000  N
  C103     1.0000 0.78410  0.95428  0.25106  Biso   1.000  C
  C104     1.0000 0.04572  0.82982  0.91773  Biso   1.000  C
  C105     1.0000 0.17018  0.21590  0.58439  Biso   1.000  C
  C106     1.0000 0.95428  0.78410  0.74894  Biso   1.000  C
  C107     1.0000 0.82982  0.04572  0.08227  Biso   1.000  C
  C108     1.0000 0.21590  0.17018  0.41561  Biso   1.000  C
  H91      1.0000 0.77200  0.89670  0.21920  Biso   1.000  H
  H92      1.0000 0.10330  0.87530  0.88587  Biso   1.000  H
  H93      1.0000 0.12470  0.22800  0.55253  Biso   1.000  H
  H94      1.0000 0.89670  0.77200  0.78080  Biso   1.000  H
  H95      1.0000 0.87530  0.10330  0.11413  Biso   1.000  H
  H96      1.0000 0.22800  0.12470  0.44747  Biso   1.000  H
  C109     1.0000 0.84418  0.96064  0.31015  Biso   1.000  C
  C110     1.0000 0.03936  0.88354  0.97682  Biso   1.000  C
  C111     1.0000 0.11646  0.15582  0.64348  Biso   1.000  C
  C112     1.0000 0.96064  0.84418  0.68985  Biso   1.000  C
  C113     1.0000 0.88354  0.03936  0.02318  Biso   1.000  C
  C114     1.0000 0.15582  0.11646  0.35652  Biso   1.000  C
  H97      1.0000 0.87190  0.90760  0.31750  Biso   1.000  H
  H98      1.0000 0.09240  0.96430  0.98417  Biso   1.000  H
  H99      1.0000 0.03570  0.12810  0.65083  Biso   1.000  H
  H100     1.0000 0.90760  0.87190  0.68250  Biso   1.000  H
  H101     1.0000 0.96430  0.09240  0.01583  Biso   1.000  H
  H102     1.0000 0.12810  0.03570  0.34917  Biso   1.000  H
  C115     1.0000 0.18312  0.13703  0.69166  Biso   1.000  C
  C116     1.0000 0.86297  0.04609  0.35833  Biso   1.000  C
  C117     1.0000 0.95391  0.81688  0.02499  Biso   1.000  C
  C118     1.0000 0.13703  0.18312  0.30834  Biso   1.000  C
  C119     1.0000 0.04609  0.86297  0.64167  Biso   1.000  C
  C120     1.0000 0.81688  0.95391  0.97501  Biso   1.000  C
  H103     1.0000 0.14890  0.09990  0.73220  Biso   1.000  H
  H104     1.0000 0.90010  0.04900  0.39887  Biso   1.000  H
  H105     1.0000 0.95100  0.85110  0.06553  Biso   1.000  H
  H106     1.0000 0.09990  0.14890  0.26780  Biso   1.000  H
  H107     1.0000 0.04900  0.90010  0.60113  Biso   1.000  H
  H108     1.0000 0.85110  0.95100  0.93447  Biso   1.000  H
  O7       1.0000 0.37489  0.68746  0.97706  Biso   1.000  O
  O8       1.0000 0.31254  0.68743  0.64373  Biso   1.000  O
  O9       1.0000 0.31257  0.62511  0.31039  Biso   1.000  O
  O10      1.0000 0.68746  0.37489  0.02294  Biso   1.000  O
  O11      1.0000 0.68743  0.31254  0.35627  Biso   1.000  O
  O12      1.0000 0.62511  0.31257  0.68961  Biso   1.000  O
  O13      1.0000 0.25163  0.01458  0.79023  Biso   1.000  O
  O14      1.0000 0.98542  0.23705  0.45690  Biso   1.000  O
  O15      1.0000 0.76295  0.74837  0.12356  Biso   1.000  O
  O16      1.0000 0.01458  0.25163  0.20977  Biso   1.000  O
  O17      1.0000 0.23705  0.98542  0.54310  Biso   1.000  O
  O18      1.0000 0.74837  0.76295  0.87644  Biso   1.000  O
  H109     1.0000 0.32900  0.65100  0.01550  Biso   1.000  H
  H110     1.0000 0.34900  0.67800  0.68217  Biso   1.000  H
  H111     1.0000 0.32200  0.67100  0.34883  Biso   1.000  H
  H112     1.0000 0.65100  0.32900  0.98450  Biso   1.000  H
  H113     1.0000 0.67800  0.34900  0.31783  Biso   1.000  H
  H114     1.0000 0.67100  0.32200  0.65117  Biso   1.000  H
  H115     1.0000 0.33200  0.70600  0.94270  Biso   1.000  H
  H116     1.0000 0.29400  0.62600  0.60937  Biso   1.000  H
  H117     1.0000 0.37400  0.66800  0.27603  Biso   1.000  H
  H118     1.0000 0.70600  0.33200  0.05730  Biso   1.000  H
  H119     1.0000 0.62600  0.29400  0.39063  Biso   1.000  H
  H120     1.0000 0.66800  0.37400  0.72397  Biso   1.000  H
