data_image0
_cell_length_a       4.8414
_cell_length_b       32.557
_cell_length_c       5.7845
_cell_angle_alpha    90
_cell_angle_beta     96.016
_cell_angle_gamma    90

_symmetry_space_group_name_H-M    "P 1"
_symmetry_int_tables_number       1

loop_
  _symmetry_equiv_pos_as_xyz
  'x, y, z'

loop_
  _atom_site_label
  _atom_site_occupancy
  _atom_site_fract_x
  _atom_site_fract_y
  _atom_site_fract_z
  _atom_site_thermal_displace_type
  _atom_site_B_iso_or_equiv
  _atom_site_type_symbol
  Cu1      1.0000 0.17857  0.24241  0.06000  Biso   1.000  Cu
  Cu2      1.0000 0.32143  0.74241  0.44000  Biso   1.000  Cu
  Cu3      1.0000 0.82143  0.75759  0.94000  Biso   1.000  Cu
  Cu4      1.0000 0.67857  0.25759  0.56000  Biso   1.000  Cu
  P1       1.0000 0.72964  0.30096  0.06523  Biso   1.000  P
  P2       1.0000 0.77036  0.80096  0.43477  Biso   1.000  P
  P3       1.0000 0.27036  0.69904  0.93477  Biso   1.000  P
  P4       1.0000 0.22964  0.19904  0.56523  Biso   1.000  P
  O1       1.0000 0.41673  0.29125  0.04942  Biso   1.000  O
  O2       1.0000 0.08327  0.79125  0.45058  Biso   1.000  O
  O3       1.0000 0.58327  0.70875  0.95058  Biso   1.000  O
  O4       1.0000 0.91673  0.20875  0.54942  Biso   1.000  O
  O5       1.0000 0.88452  0.28947  0.30252  Biso   1.000  O
  O6       1.0000 0.61548  0.78947  0.19748  Biso   1.000  O
  O7       1.0000 0.11548  0.71053  0.69748  Biso   1.000  O
  O8       1.0000 0.38452  0.21053  0.80252  Biso   1.000  O
  O9       1.0000 0.87168  0.27788  0.87013  Biso   1.000  O
  O10      1.0000 0.62832  0.77788  0.62987  Biso   1.000  O
  O11      1.0000 0.12832  0.72212  0.12987  Biso   1.000  O
  O12      1.0000 0.37168  0.22212  0.37013  Biso   1.000  O
  O13      1.0000 0.42940  0.44776  0.42030  Biso   1.000  O
  O14      1.0000 0.07060  0.94776  0.07970  Biso   1.000  O
  O15      1.0000 0.57060  0.55224  0.57970  Biso   1.000  O
  O16      1.0000 0.92940  0.05224  0.92030  Biso   1.000  O
  O17      1.0000 0.70810  0.49457  0.28320  Biso   1.000  O
  O18      1.0000 0.79190  0.99457  0.21680  Biso   1.000  O
  O19      1.0000 0.29190  0.50543  0.71680  Biso   1.000  O
  O20      1.0000 0.20810  0.00543  0.78320  Biso   1.000  O
  O21      1.0000 0.89420  0.19765  0.06680  Biso   1.000  O
  O22      1.0000 0.60580  0.69765  0.43320  Biso   1.000  O
  O23      1.0000 0.10580  0.80235  0.93320  Biso   1.000  O
  O24      1.0000 0.39420  0.30235  0.56680  Biso   1.000  O
  C1       1.0000 0.76790  0.35549  0.01410  Biso   1.000  C
  C2       1.0000 0.73210  0.85549  0.48590  Biso   1.000  C
  C3       1.0000 0.23210  0.64451  0.98590  Biso   1.000  C
  C4       1.0000 0.26790  0.14451  0.51410  Biso   1.000  C
  C5       1.0000 0.66410  0.38486  0.16270  Biso   1.000  C
  C6       1.0000 0.83590  0.88486  0.33730  Biso   1.000  C
  C7       1.0000 0.33590  0.61514  0.83730  Biso   1.000  C
  C8       1.0000 0.16410  0.11514  0.66270  Biso   1.000  C
  C9       1.0000 0.71180  0.42677  0.12750  Biso   1.000  C
  C10      1.0000 0.78820  0.92677  0.37250  Biso   1.000  C
  C11      1.0000 0.28820  0.57323  0.87250  Biso   1.000  C
  C12      1.0000 0.21180  0.07323  0.62750  Biso   1.000  C
  C13      1.0000 0.86340  0.43979  0.94540  Biso   1.000  C
  C14      1.0000 0.63660  0.93979  0.55460  Biso   1.000  C
  C15      1.0000 0.13660  0.56021  0.05460  Biso   1.000  C
  C16      1.0000 0.36340  0.06021  0.44540  Biso   1.000  C
  C17      1.0000 0.95940  0.41089  0.79530  Biso   1.000  C
  C18      1.0000 0.54060  0.91089  0.70470  Biso   1.000  C
  C19      1.0000 0.04060  0.58911  0.20470  Biso   1.000  C
  C20      1.0000 0.45940  0.08911  0.29530  Biso   1.000  C
  C21      1.0000 0.91160  0.36908  0.82870  Biso   1.000  C
  C22      1.0000 0.58840  0.86908  0.67130  Biso   1.000  C
  C23      1.0000 0.08840  0.63092  0.17130  Biso   1.000  C
  C24      1.0000 0.41160  0.13092  0.32870  Biso   1.000  C
  C25      1.0000 0.61110  0.45867  0.28670  Biso   1.000  C
  C26      1.0000 0.88890  0.95867  0.21330  Biso   1.000  C
  C27      1.0000 0.38890  0.54133  0.71330  Biso   1.000  C
  C28      1.0000 0.11110  0.04133  0.78670  Biso   1.000  C
  H1       1.0000 0.57300  0.37620  0.29300  Biso   1.000  H
  H2       1.0000 0.92700  0.87620  0.20700  Biso   1.000  H
  H3       1.0000 0.42700  0.62380  0.70700  Biso   1.000  H
  H4       1.0000 0.07300  0.12380  0.79300  Biso   1.000  H
  H5       1.0000 0.89900  0.46740  0.92600  Biso   1.000  H
  H6       1.0000 0.60100  0.96740  0.57400  Biso   1.000  H
  H7       1.0000 0.10100  0.53260  0.07400  Biso   1.000  H
  H8       1.0000 0.39900  0.03260  0.42600  Biso   1.000  H
  H9       1.0000 0.04600  0.41950  0.66400  Biso   1.000  H
  H10      1.0000 0.45400  0.91950  0.83600  Biso   1.000  H
  H11      1.0000 0.95400  0.58050  0.33600  Biso   1.000  H
  H12      1.0000 0.54600  0.08050  0.16400  Biso   1.000  H
  H13      1.0000 0.97100  0.34980  0.71900  Biso   1.000  H
  H14      1.0000 0.52900  0.84980  0.78100  Biso   1.000  H
  H15      1.0000 0.02900  0.65020  0.28100  Biso   1.000  H
  H16      1.0000 0.47100  0.15020  0.21900  Biso   1.000  H
  H17      1.0000 0.38400  0.46790  0.50600  Biso   1.000  H
  H18      1.0000 0.11600  0.96790  0.99400  Biso   1.000  H
  H19      1.0000 0.61600  0.53210  0.49400  Biso   1.000  H
  H20      1.0000 0.88400  0.03210  0.00600  Biso   1.000  H
  H21      1.0000 0.76200  0.19900  0.97900  Biso   1.000  H
  H22      1.0000 0.73800  0.69900  0.52100  Biso   1.000  H
  H23      1.0000 0.23800  0.80100  0.02100  Biso   1.000  H
  H24      1.0000 0.26200  0.30100  0.47900  Biso   1.000  H
  H25      1.0000 0.82900  0.19780  0.17600  Biso   1.000  H
  H26      1.0000 0.67100  0.69780  0.32400  Biso   1.000  H
  H27      1.0000 0.17100  0.80220  0.82400  Biso   1.000  H
  H28      1.0000 0.32900  0.30220  0.67600  Biso   1.000  H
