data_image0
_cell_length_a       6.545
_cell_length_b       10.235
_cell_length_c       12.174
_cell_angle_alpha    74.4
_cell_angle_beta     85.02
_cell_angle_gamma    78.64

_symmetry_space_group_name_H-M    "P 1"
_symmetry_int_tables_number       1

loop_
  _symmetry_equiv_pos_as_xyz
  'x, y, z'

loop_
  _atom_site_label
  _atom_site_occupancy
  _atom_site_fract_x
  _atom_site_fract_y
  _atom_site_fract_z
  _atom_site_thermal_displace_type
  _atom_site_B_iso_or_equiv
  _atom_site_type_symbol
  Cu1      1.0000 0.86140  0.91660  0.53440  Biso   1.000  Cu
  Cu2      1.0000 0.13860  0.08340  0.46560  Biso   1.000  Cu
  O1       1.0000 0.06120  0.78670  0.46560  Biso   1.000  O
  O2       1.0000 0.93880  0.21330  0.53440  Biso   1.000  O
  O3       1.0000 0.70920  0.07070  0.59220  Biso   1.000  O
  O4       1.0000 0.29080  0.92930  0.40780  Biso   1.000  O
  O5       1.0000 0.02550  0.85170  0.67260  Biso   1.000  O
  O6       1.0000 0.97450  0.14830  0.32740  Biso   1.000  O
  O7       1.0000 0.74840  0.00260  0.38240  Biso   1.000  O
  O8       1.0000 0.25160  0.99740  0.61760  Biso   1.000  O
  N1       1.0000 0.33420  0.24010  0.39770  Biso   1.000  N
  N2       1.0000 0.66580  0.75990  0.60230  Biso   1.000  N
  N3       1.0000 0.12070  0.50210  0.13850  Biso   1.000  N
  N4       1.0000 0.87930  0.49790  0.86150  Biso   1.000  N
  C1       1.0000 0.23110  0.81660  0.41920  Biso   1.000  C
  C2       1.0000 0.76890  0.18340  0.58080  Biso   1.000  C
  C3       1.0000 0.37590  0.70660  0.37750  Biso   1.000  C
  C4       1.0000 0.62410  0.29340  0.62250  Biso   1.000  C
  C5       1.0000 0.31630  0.58090  0.38650  Biso   1.000  C
  C6       1.0000 0.68370  0.41910  0.61350  Biso   1.000  C
  C7       1.0000 0.45610  0.47430  0.35680  Biso   1.000  C
  C8       1.0000 0.54390  0.52570  0.64320  Biso   1.000  C
  C9       1.0000 0.65610  0.49200  0.31650  Biso   1.000  C
  C10      1.0000 0.34390  0.50800  0.68350  Biso   1.000  C
  C11      1.0000 0.71540  0.61670  0.30680  Biso   1.000  C
  C12      1.0000 0.28460  0.38330  0.69320  Biso   1.000  C
  C13      1.0000 0.57730  0.72310  0.33770  Biso   1.000  C
  C14      1.0000 0.42270  0.27690  0.66230  Biso   1.000  C
  C15      1.0000 0.39010  0.34290  0.37550  Biso   1.000  C
  C16      1.0000 0.60990  0.65710  0.62450  Biso   1.000  C
  C17      1.0000 0.17780  0.90230  0.68860  Biso   1.000  C
  C18      1.0000 0.82220  0.09770  0.31140  Biso   1.000  C
  C19      1.0000 0.27800  0.84180  0.80090  Biso   1.000  C
  C20      1.0000 0.72200  0.15820  0.19910  Biso   1.000  C
  C21      1.0000 0.19340  0.74260  0.88380  Biso   1.000  C
  C22      1.0000 0.80660  0.25740  0.11620  Biso   1.000  C
  C23      1.0000 0.28320  0.68520  0.98790  Biso   1.000  C
  C24      1.0000 0.71680  0.31480  0.01210  Biso   1.000  C
  C25      1.0000 0.46280  0.72710  0.01090  Biso   1.000  C
  C26      1.0000 0.53720  0.27290  0.98910  Biso   1.000  C
  C27      1.0000 0.54670  0.82490  0.93060  Biso   1.000  C
  C28      1.0000 0.45330  0.17510  0.06940  Biso   1.000  C
  C29      1.0000 0.45610  0.88320  0.82400  Biso   1.000  C
  C30      1.0000 0.54390  0.11680  0.17600  Biso   1.000  C
  C31      1.0000 0.19310  0.58230  0.07120  Biso   1.000  C
  C32      1.0000 0.80690  0.41770  0.92880  Biso   1.000  C
