data_image0
_cell_length_a       4.966
_cell_length_b       7.807
_cell_length_c       13.859
_cell_angle_alpha    77.819
_cell_angle_beta     75.709
_cell_angle_gamma    72.439

_symmetry_space_group_name_H-M    "P 1"
_symmetry_int_tables_number       1

loop_
  _symmetry_equiv_pos_as_xyz
  'x, y, z'

loop_
  _atom_site_label
  _atom_site_occupancy
  _atom_site_fract_x
  _atom_site_fract_y
  _atom_site_fract_z
  _atom_site_thermal_displace_type
  _atom_site_B_iso_or_equiv
  _atom_site_type_symbol
  C1       1.0000 0.03980  0.50230  0.35039  Biso   1.000  C
  C2       1.0000 0.96020  0.49770  0.64961  Biso   1.000  C
  C3       1.0000 0.18310  0.57490  0.24606  Biso   1.000  C
  C4       1.0000 0.81690  0.42510  0.75394  Biso   1.000  C
  C5       1.0000 0.46630  0.49230  0.20750  Biso   1.000  C
  C6       1.0000 0.53370  0.50770  0.79250  Biso   1.000  C
  C7       1.0000 0.59670  0.56240  0.11254  Biso   1.000  C
  C8       1.0000 0.40330  0.43760  0.88746  Biso   1.000  C
  C9       1.0000 0.43740  0.71310  0.06064  Biso   1.000  C
  C10      1.0000 0.56260  0.28690  0.93936  Biso   1.000  C
  C11      1.0000 0.56170  0.80730  0.95952  Biso   1.000  C
  C12      1.0000 0.43830  0.19270  0.04048  Biso   1.000  C
  C13      1.0000 0.03450  0.72540  0.18876  Biso   1.000  C
  C14      1.0000 0.96550  0.27460  0.81124  Biso   1.000  C
  N1       1.0000 0.73340  0.24650  0.52420  Biso   1.000  N
  N2       1.0000 0.26660  0.75350  0.47580  Biso   1.000  N
  N3       1.0000 0.16180  0.79300  0.09732  Biso   1.000  N
  N4       1.0000 0.83820  0.20700  0.90268  Biso   1.000  N
  O1       1.0000 0.77000  0.56040  0.37185  Biso   1.000  O
  O2       1.0000 0.23000  0.43960  0.62815  Biso   1.000  O
  O3       1.0000 0.19870  0.39500  0.40615  Biso   1.000  O
  O4       1.0000 0.80130  0.60500  0.59385  Biso   1.000  O
  O5       1.0000 0.37960  0.93610  0.91690  Biso   1.000  O
  O6       1.0000 0.62040  0.06390  0.08310  Biso   1.000  O
  O7       1.0000 0.82180  0.76110  0.92567  Biso   1.000  O
  O8       1.0000 0.17820  0.23890  0.07433  Biso   1.000  O
  O9       1.0000 0.92880  0.91890  0.72310  Biso   1.000  O
  O10      1.0000 0.07120  0.08110  0.27690  Biso   1.000  O
  O11      1.0000 0.53810  0.04950  0.36850  Biso   1.000  O
  O12      1.0000 0.46190  0.95050  0.63150  Biso   1.000  O
  Cu1      1.0000 0.50000  0.50000  0.50000  Biso   1.000  Cu
  Cu2      1.0000 0.00000  0.00000  0.00000  Biso   1.000  Cu
  H1       1.0000 0.62800  0.16800  0.54700  Biso   1.000  H
  H2       1.0000 0.37200  0.83200  0.45300  Biso   1.000  H
  H3       1.0000 0.78000  0.22000  0.46800  Biso   1.000  H
  H4       1.0000 0.22000  0.78000  0.53200  Biso   1.000  H
  H5       1.0000 0.85900  0.23600  0.54700  Biso   1.000  H
  H6       1.0000 0.14100  0.76400  0.45300  Biso   1.000  H
  H7       1.0000 0.56900  0.38700  0.24400  Biso   1.000  H
  H8       1.0000 0.43100  0.61300  0.75600  Biso   1.000  H
  H9       1.0000 0.75300  0.51500  0.09500  Biso   1.000  H
  H10      1.0000 0.24700  0.48500  0.90500  Biso   1.000  H
  H11      1.0000 0.84200  0.78400  0.21300  Biso   1.000  H
  H12      1.0000 0.15800  0.21600  0.78700  Biso   1.000  H
  H13      1.0000 0.77500  0.94200  0.70700  Biso   1.000  H
  H14      1.0000 0.22500  0.05800  0.29300  Biso   1.000  H
  H15      1.0000 0.91400  0.88100  0.77200  Biso   1.000  H
  H16      1.0000 0.08600  0.11900  0.22800  Biso   1.000  H
  H17      1.0000 0.75100  0.03400  0.35000  Biso   1.000  H
  H18      1.0000 0.24900  0.96600  0.65000  Biso   1.000  H
  H19      1.0000 0.40200  0.19000  0.40300  Biso   1.000  H
  H20      1.0000 0.59800  0.81000  0.59700  Biso   1.000  H
