data_image0
_cell_length_a       8.4858
_cell_length_b       9.9337
_cell_length_c       14.5512
_cell_angle_alpha    90
_cell_angle_beta     120.445
_cell_angle_gamma    90

_symmetry_space_group_name_H-M    "P 1"
_symmetry_int_tables_number       1

loop_
  _symmetry_equiv_pos_as_xyz
  'x, y, z'

loop_
  _atom_site_label
  _atom_site_occupancy
  _atom_site_fract_x
  _atom_site_fract_y
  _atom_site_fract_z
  _atom_site_thermal_displace_type
  _atom_site_B_iso_or_equiv
  _atom_site_type_symbol
  O1       1.0000 0.06170  0.40880  0.45170  Biso   1.000  O
  O2       1.0000 0.93830  0.90880  0.04830  Biso   1.000  O
  O3       1.0000 0.93830  0.59120  0.54830  Biso   1.000  O
  O4       1.0000 0.06170  0.09120  0.95170  Biso   1.000  O
  H1       1.0000 0.00970  0.32200  0.42470  Biso   1.000  H
  H2       1.0000 0.99030  0.82200  0.07530  Biso   1.000  H
  H3       1.0000 0.99030  0.67800  0.57530  Biso   1.000  H
  H4       1.0000 0.00970  0.17800  0.92470  Biso   1.000  H
  H5       1.0000 0.17920  0.39010  0.50780  Biso   1.000  H
  H6       1.0000 0.82080  0.89010  0.99220  Biso   1.000  H
  H7       1.0000 0.82080  0.60990  0.49220  Biso   1.000  H
  H8       1.0000 0.17920  0.10990  0.00780  Biso   1.000  H
  C1       1.0000 0.80460  0.39270  0.07530  Biso   1.000  C
  C2       1.0000 0.19540  0.89270  0.42470  Biso   1.000  C
  C3       1.0000 0.19540  0.60730  0.92470  Biso   1.000  C
  C4       1.0000 0.80460  0.10730  0.57530  Biso   1.000  C
  C5       1.0000 0.76670  0.51760  0.10440  Biso   1.000  C
  C6       1.0000 0.23330  0.01760  0.39560  Biso   1.000  C
  C7       1.0000 0.23330  0.48240  0.89560  Biso   1.000  C
  C8       1.0000 0.76670  0.98240  0.60440  Biso   1.000  C
  C9       1.0000 0.69130  0.62070  0.03000  Biso   1.000  C
  C10      1.0000 0.30870  0.12070  0.47000  Biso   1.000  C
  C11      1.0000 0.30870  0.37930  0.97000  Biso   1.000  C
  C12      1.0000 0.69130  0.87930  0.53000  Biso   1.000  C
  H9       1.0000 0.66470  0.70350  0.04890  Biso   1.000  H
  H10      1.0000 0.33530  0.20350  0.45110  Biso   1.000  H
  H11      1.0000 0.33530  0.29650  0.95110  Biso   1.000  H
  H12      1.0000 0.66470  0.79650  0.54890  Biso   1.000  H
  C13      1.0000 0.65610  0.59870  0.92720  Biso   1.000  C
  C14      1.0000 0.34390  0.09870  0.57280  Biso   1.000  C
  C15      1.0000 0.34390  0.40130  0.07280  Biso   1.000  C
  C16      1.0000 0.65610  0.90130  0.42720  Biso   1.000  C
  C17      1.0000 0.68910  0.47450  0.89670  Biso   1.000  C
  C18      1.0000 0.31090  0.97450  0.60330  Biso   1.000  C
  C19      1.0000 0.31090  0.52550  0.10330  Biso   1.000  C
  C20      1.0000 0.68910  0.02550  0.39670  Biso   1.000  C
  H13      1.0000 0.66280  0.46070  0.82720  Biso   1.000  H
  H14      1.0000 0.33720  0.96070  0.67280  Biso   1.000  H
  H15      1.0000 0.33720  0.53930  0.17280  Biso   1.000  H
  H16      1.0000 0.66280  0.03930  0.32720  Biso   1.000  H
  C21      1.0000 0.76090  0.37170  0.97020  Biso   1.000  C
  C22      1.0000 0.23910  0.87170  0.52980  Biso   1.000  C
  C23      1.0000 0.23910  0.62830  0.02980  Biso   1.000  C
  C24      1.0000 0.76090  0.12830  0.47020  Biso   1.000  C
  H17      1.0000 0.78040  0.28770  0.94960  Biso   1.000  H
  H18      1.0000 0.21960  0.78770  0.55040  Biso   1.000  H
  H19      1.0000 0.21960  0.71230  0.05040  Biso   1.000  H
  H20      1.0000 0.78040  0.21230  0.44960  Biso   1.000  H
  C25      1.0000 0.89580  0.28160  0.15480  Biso   1.000  C
  C26      1.0000 0.10420  0.78160  0.34520  Biso   1.000  C
  C27      1.0000 0.10420  0.71840  0.84520  Biso   1.000  C
  C28      1.0000 0.89580  0.21840  0.65480  Biso   1.000  C
  Cu1      1.0000 0.06908  0.49189  0.31066  Biso   1.000  Cu
  Cu2      1.0000 0.93092  0.99189  0.18934  Biso   1.000  Cu
  Cu3      1.0000 0.93092  0.50811  0.68934  Biso   1.000  Cu
  Cu4      1.0000 0.06908  0.00811  0.81066  Biso   1.000  Cu
  N1       1.0000 0.80750  0.53730  0.21220  Biso   1.000  N
  N2       1.0000 0.19250  0.03730  0.28780  Biso   1.000  N
  N3       1.0000 0.19250  0.46270  0.78780  Biso   1.000  N
  N4       1.0000 0.80750  0.96270  0.71220  Biso   1.000  N
  H21      1.0000 0.73570  0.48410  0.22560  Biso   1.000  H
  H22      1.0000 0.26430  0.98410  0.27440  Biso   1.000  H
  H23      1.0000 0.26430  0.51590  0.77440  Biso   1.000  H
  H24      1.0000 0.73570  0.01590  0.72560  Biso   1.000  H
  H25      1.0000 0.78630  0.62350  0.22180  Biso   1.000  H
  H26      1.0000 0.21370  0.12350  0.27820  Biso   1.000  H
  H27      1.0000 0.21370  0.37650  0.77820  Biso   1.000  H
  H28      1.0000 0.78630  0.87650  0.72180  Biso   1.000  H
  O5       1.0000 0.01020  0.30900  0.25030  Biso   1.000  O
  O6       1.0000 0.98980  0.80900  0.24970  Biso   1.000  O
  O7       1.0000 0.98980  0.69100  0.74970  Biso   1.000  O
  O8       1.0000 0.01020  0.19100  0.75030  Biso   1.000  O
  O9       1.0000 0.85350  0.16410  0.11850  Biso   1.000  O
  O10      1.0000 0.14650  0.66410  0.38150  Biso   1.000  O
  O11      1.0000 0.14650  0.83590  0.88150  Biso   1.000  O
  O12      1.0000 0.85350  0.33590  0.61850  Biso   1.000  O
  O13      1.0000 0.66080  0.72780  0.77470  Biso   1.000  O
  O14      1.0000 0.33920  0.22780  0.72530  Biso   1.000  O
  O15      1.0000 0.33920  0.27220  0.22530  Biso   1.000  O
  O16      1.0000 0.66080  0.77220  0.27470  Biso   1.000  O
  O17      1.0000 0.36810  0.69270  0.76040  Biso   1.000  O
  O18      1.0000 0.63190  0.19270  0.73960  Biso   1.000  O
  O19      1.0000 0.63190  0.30730  0.23960  Biso   1.000  O
  O20      1.0000 0.36810  0.80730  0.26040  Biso   1.000  O
  O21      1.0000 0.58170  0.85320  0.88730  Biso   1.000  O
  O22      1.0000 0.41830  0.35320  0.61270  Biso   1.000  O
  O23      1.0000 0.41830  0.14680  0.11270  Biso   1.000  O
  O24      1.0000 0.58170  0.64680  0.38730  Biso   1.000  O
  O25      1.0000 0.33030  0.45000  0.36430  Biso   1.000  O
  O26      1.0000 0.66970  0.95000  0.13570  Biso   1.000  O
  O27      1.0000 0.66970  0.55000  0.63570  Biso   1.000  O
  O28      1.0000 0.33030  0.05000  0.86430  Biso   1.000  O
  H29      1.0000 0.38490  0.52340  0.36870  Biso   1.000  H
  H30      1.0000 0.61510  0.02340  0.13130  Biso   1.000  H
  H31      1.0000 0.61510  0.47660  0.63130  Biso   1.000  H
  H32      1.0000 0.38490  0.97660  0.86870  Biso   1.000  H
  H33      1.0000 0.33320  0.40020  0.31730  Biso   1.000  H
  H34      1.0000 0.66680  0.90020  0.18270  Biso   1.000  H
  H35      1.0000 0.66680  0.59980  0.68270  Biso   1.000  H
  H36      1.0000 0.33320  0.09980  0.81730  Biso   1.000  H
  S1       1.0000 0.55818  0.72806  0.82943  Biso   1.000  S
  S2       1.0000 0.44182  0.22806  0.67057  Biso   1.000  S
  S3       1.0000 0.44182  0.27194  0.17057  Biso   1.000  S
  S4       1.0000 0.55818  0.77194  0.32943  Biso   1.000  S
