data_image0
_cell_length_a       11.467
_cell_length_b       11.467
_cell_length_c       36.974
_cell_angle_alpha    90
_cell_angle_beta     90
_cell_angle_gamma    120

_symmetry_space_group_name_H-M    "P 1"
_symmetry_int_tables_number       1

loop_
  _symmetry_equiv_pos_as_xyz
  'x, y, z'

loop_
  _atom_site_label
  _atom_site_occupancy
  _atom_site_fract_x
  _atom_site_fract_y
  _atom_site_fract_z
  _atom_site_thermal_displace_type
  _atom_site_B_iso_or_equiv
  _atom_site_type_symbol
  Cu1      1.0000 0.07071  0.00000  0.00000  Biso   1.000  Cu
  Cu2      1.0000 0.92929  0.00000  0.50000  Biso   1.000  Cu
  Cu3      1.0000 0.00000  0.92929  0.16667  Biso   1.000  Cu
  Cu4      1.0000 0.00000  0.07071  0.66667  Biso   1.000  Cu
  Cu5      1.0000 0.07071  0.07071  0.83333  Biso   1.000  Cu
  Cu6      1.0000 0.92929  0.92929  0.33333  Biso   1.000  Cu
  N1       1.0000 0.88260  0.00000  0.00000  Biso   1.000  N
  N2       1.0000 0.11740  0.00000  0.50000  Biso   1.000  N
  N3       1.0000 0.00000  0.11740  0.16667  Biso   1.000  N
  N4       1.0000 0.00000  0.88260  0.66667  Biso   1.000  N
  N5       1.0000 0.88260  0.88260  0.83333  Biso   1.000  N
  N6       1.0000 0.11740  0.11740  0.33333  Biso   1.000  N
  N7       1.0000 0.25800  0.00000  0.00000  Biso   1.000  N
  N8       1.0000 0.74200  0.00000  0.50000  Biso   1.000  N
  N9       1.0000 0.00000  0.74200  0.16667  Biso   1.000  N
  N10      1.0000 0.00000  0.25800  0.66667  Biso   1.000  N
  N11      1.0000 0.25800  0.25800  0.83333  Biso   1.000  N
  N12      1.0000 0.74200  0.74200  0.33333  Biso   1.000  N
  N13      1.0000 0.35800  0.82750  0.09502  Biso   1.000  N
  N14      1.0000 0.64200  0.17250  0.59502  Biso   1.000  N
  N15      1.0000 0.17250  0.64200  0.07165  Biso   1.000  N
  N16      1.0000 0.82750  0.35800  0.57165  Biso   1.000  N
  N17      1.0000 0.53050  0.17250  0.90498  Biso   1.000  N
  N18      1.0000 0.46950  0.82750  0.40498  Biso   1.000  N
  N19      1.0000 0.35800  0.53050  0.73831  Biso   1.000  N
  N20      1.0000 0.64200  0.46950  0.23831  Biso   1.000  N
  N21      1.0000 0.17250  0.53050  0.76169  Biso   1.000  N
  N22      1.0000 0.82750  0.46950  0.26169  Biso   1.000  N
  N23      1.0000 0.53050  0.35800  0.92835  Biso   1.000  N
  N24      1.0000 0.46950  0.64200  0.42835  Biso   1.000  N
  H1       1.0000 0.39690  0.91010  0.10200  Biso   1.000  H
  H2       1.0000 0.60310  0.08990  0.60200  Biso   1.000  H
  H3       1.0000 0.08990  0.60310  0.06467  Biso   1.000  H
  H4       1.0000 0.91010  0.39690  0.56467  Biso   1.000  H
  H5       1.0000 0.48680  0.08990  0.89800  Biso   1.000  H
  H6       1.0000 0.51320  0.91010  0.39800  Biso   1.000  H
  H7       1.0000 0.39690  0.48680  0.73133  Biso   1.000  H
  H8       1.0000 0.60310  0.51320  0.23133  Biso   1.000  H
  H9       1.0000 0.08990  0.48680  0.76867  Biso   1.000  H
  H10      1.0000 0.91010  0.51320  0.26867  Biso   1.000  H
  H11      1.0000 0.48680  0.39690  0.93533  Biso   1.000  H
  H12      1.0000 0.51320  0.60310  0.43533  Biso   1.000  H
  N25      1.0000 0.70670  0.10410  0.09369  Biso   1.000  N
  N26      1.0000 0.29330  0.89590  0.59369  Biso   1.000  N
  N27      1.0000 0.89590  0.29330  0.07298  Biso   1.000  N
  N28      1.0000 0.10410  0.70670  0.57298  Biso   1.000  N
  N29      1.0000 0.60260  0.89590  0.90631  Biso   1.000  N
  N30      1.0000 0.39740  0.10410  0.40631  Biso   1.000  N
  N31      1.0000 0.70670  0.60260  0.73964  Biso   1.000  N
  N32      1.0000 0.29330  0.39740  0.23964  Biso   1.000  N
  N33      1.0000 0.89590  0.60260  0.76036  Biso   1.000  N
  N34      1.0000 0.10410  0.39740  0.26036  Biso   1.000  N
  N35      1.0000 0.60260  0.70670  0.92702  Biso   1.000  N
  N36      1.0000 0.39740  0.29330  0.42702  Biso   1.000  N
  H13      1.0000 0.66670  0.02120  0.10040  Biso   1.000  H
  H14      1.0000 0.33330  0.97880  0.60040  Biso   1.000  H
  H15      1.0000 0.97880  0.33330  0.06627  Biso   1.000  H
  H16      1.0000 0.02120  0.66670  0.56627  Biso   1.000  H
  H17      1.0000 0.64550  0.97880  0.89960  Biso   1.000  H
  H18      1.0000 0.35450  0.02120  0.39960  Biso   1.000  H
  H19      1.0000 0.66670  0.64550  0.73293  Biso   1.000  H
  H20      1.0000 0.33330  0.35450  0.23293  Biso   1.000  H
  H21      1.0000 0.97880  0.64550  0.76707  Biso   1.000  H
  H22      1.0000 0.02120  0.35450  0.26707  Biso   1.000  H
  H23      1.0000 0.64550  0.66670  0.93373  Biso   1.000  H
  H24      1.0000 0.35450  0.33330  0.43373  Biso   1.000  H
  O1       1.0000 0.98670  0.83030  0.03203  Biso   1.000  O
  O2       1.0000 0.01330  0.16970  0.53203  Biso   1.000  O
  O3       1.0000 0.16970  0.01330  0.13464  Biso   1.000  O
  O4       1.0000 0.83030  0.98670  0.63464  Biso   1.000  O
  O5       1.0000 0.15640  0.16970  0.96797  Biso   1.000  O
  O6       1.0000 0.84360  0.83030  0.46797  Biso   1.000  O
  O7       1.0000 0.98670  0.15640  0.80130  Biso   1.000  O
  O8       1.0000 0.01330  0.84360  0.30130  Biso   1.000  O
  O9       1.0000 0.16970  0.15640  0.69870  Biso   1.000  O
  O10      1.0000 0.83030  0.84360  0.19870  Biso   1.000  O
  O11      1.0000 0.15640  0.98670  0.86536  Biso   1.000  O
  O12      1.0000 0.84360  0.01330  0.36536  Biso   1.000  O
  H25      1.0000 0.03720  0.83210  0.04930  Biso   1.000  H
  H26      1.0000 0.96280  0.16790  0.54930  Biso   1.000  H
  H27      1.0000 0.16790  0.96280  0.11737  Biso   1.000  H
  H28      1.0000 0.83210  0.03720  0.61737  Biso   1.000  H
  H29      1.0000 0.20510  0.16790  0.95070  Biso   1.000  H
  H30      1.0000 0.79490  0.83210  0.45070  Biso   1.000  H
  H31      1.0000 0.03720  0.20510  0.78403  Biso   1.000  H
  H32      1.0000 0.96280  0.79490  0.28403  Biso   1.000  H
  H33      1.0000 0.16790  0.20510  0.71597  Biso   1.000  H
  H34      1.0000 0.83210  0.79490  0.21597  Biso   1.000  H
  H35      1.0000 0.20510  0.03720  0.88263  Biso   1.000  H
  H36      1.0000 0.79490  0.96280  0.38263  Biso   1.000  H
  H37      1.0000 0.96340  0.76090  0.02040  Biso   1.000  H
  H38      1.0000 0.03660  0.23910  0.52040  Biso   1.000  H
  H39      1.0000 0.23910  0.03660  0.14627  Biso   1.000  H
  H40      1.0000 0.76090  0.96340  0.64627  Biso   1.000  H
  H41      1.0000 0.20250  0.23910  0.97960  Biso   1.000  H
  H42      1.0000 0.79750  0.76090  0.47960  Biso   1.000  H
  H43      1.0000 0.96340  0.20250  0.81293  Biso   1.000  H
  H44      1.0000 0.03660  0.79750  0.31293  Biso   1.000  H
  H45      1.0000 0.23910  0.20250  0.68707  Biso   1.000  H
  H46      1.0000 0.76090  0.79750  0.18707  Biso   1.000  H
  H47      1.0000 0.20250  0.96340  0.85373  Biso   1.000  H
  H48      1.0000 0.79750  0.03660  0.35373  Biso   1.000  H
  O13      1.0000 0.12400  0.11860  0.04616  Biso   1.000  O
  O14      1.0000 0.87600  0.88140  0.54616  Biso   1.000  O
  O15      1.0000 0.88140  0.87600  0.12051  Biso   1.000  O
  O16      1.0000 0.11860  0.12400  0.62051  Biso   1.000  O
  O17      1.0000 0.00540  0.88140  0.95384  Biso   1.000  O
  O18      1.0000 0.99460  0.11860  0.45384  Biso   1.000  O
  O19      1.0000 0.12400  0.00540  0.78717  Biso   1.000  O
  O20      1.0000 0.87600  0.99460  0.28717  Biso   1.000  O
  O21      1.0000 0.88140  0.00540  0.71283  Biso   1.000  O
  O22      1.0000 0.11860  0.99460  0.21283  Biso   1.000  O
  O23      1.0000 0.00540  0.12400  0.87949  Biso   1.000  O
  O24      1.0000 0.99460  0.87600  0.37949  Biso   1.000  O
  H49      1.0000 0.20320  0.17190  0.05270  Biso   1.000  H
  H50      1.0000 0.79680  0.82810  0.55270  Biso   1.000  H
  H51      1.0000 0.82810  0.79680  0.11397  Biso   1.000  H
  H52      1.0000 0.17190  0.20320  0.61397  Biso   1.000  H
  H53      1.0000 0.03130  0.82810  0.94730  Biso   1.000  H
  H54      1.0000 0.96870  0.17190  0.44730  Biso   1.000  H
  H55      1.0000 0.20320  0.03130  0.78063  Biso   1.000  H
  H56      1.0000 0.79680  0.96870  0.28063  Biso   1.000  H
  H57      1.0000 0.82810  0.03130  0.71937  Biso   1.000  H
  H58      1.0000 0.17190  0.96870  0.21937  Biso   1.000  H
  H59      1.0000 0.03130  0.20320  0.88603  Biso   1.000  H
  H60      1.0000 0.96870  0.79680  0.38603  Biso   1.000  H
  H61      1.0000 0.06200  0.12390  0.05590  Biso   1.000  H
  H62      1.0000 0.93800  0.87610  0.55590  Biso   1.000  H
  H63      1.0000 0.87610  0.93800  0.11077  Biso   1.000  H
  H64      1.0000 0.12390  0.06200  0.61077  Biso   1.000  H
  H65      1.0000 0.93810  0.87610  0.94410  Biso   1.000  H
  H66      1.0000 0.06190  0.12390  0.44410  Biso   1.000  H
  H67      1.0000 0.06200  0.93810  0.77743  Biso   1.000  H
  H68      1.0000 0.93800  0.06190  0.27743  Biso   1.000  H
  H69      1.0000 0.87610  0.93810  0.72257  Biso   1.000  H
  H70      1.0000 0.12390  0.06190  0.22257  Biso   1.000  H
  H71      1.0000 0.93810  0.06200  0.88923  Biso   1.000  H
  H72      1.0000 0.06190  0.93800  0.38923  Biso   1.000  H
  O25      1.0000 0.16640  0.83360  0.08330  Biso   1.000  O
  O26      1.0000 0.83360  0.16640  0.58330  Biso   1.000  O
  O27      1.0000 0.33280  0.16640  0.91670  Biso   1.000  O
  O28      1.0000 0.66720  0.83360  0.41670  Biso   1.000  O
  O29      1.0000 0.16640  0.33280  0.75003  Biso   1.000  O
  O30      1.0000 0.83360  0.66720  0.25003  Biso   1.000  O
  O31      1.0000 0.54970  0.82620  0.10961  Biso   1.000  O
  O32      1.0000 0.45030  0.17380  0.60961  Biso   1.000  O
  O33      1.0000 0.17380  0.45030  0.05706  Biso   1.000  O
  O34      1.0000 0.82620  0.54970  0.55706  Biso   1.000  O
  O35      1.0000 0.72350  0.17380  0.89039  Biso   1.000  O
  O36      1.0000 0.27650  0.82620  0.39039  Biso   1.000  O
  O37      1.0000 0.54970  0.72350  0.72372  Biso   1.000  O
  O38      1.0000 0.45030  0.27650  0.22372  Biso   1.000  O
  O39      1.0000 0.17380  0.72350  0.77628  Biso   1.000  O
  O40      1.0000 0.82620  0.27650  0.27628  Biso   1.000  O
  O41      1.0000 0.72350  0.54970  0.94294  Biso   1.000  O
  O42      1.0000 0.27650  0.45030  0.44294  Biso   1.000  O
  O43      1.0000 0.90066  0.09934  0.08330  Biso   1.000  O
  O44      1.0000 0.09934  0.90066  0.58330  Biso   1.000  O
  O45      1.0000 0.80132  0.90066  0.91670  Biso   1.000  O
  O46      1.0000 0.19868  0.09934  0.41670  Biso   1.000  O
  O47      1.0000 0.90066  0.80132  0.75003  Biso   1.000  O
  O48      1.0000 0.09934  0.19868  0.25003  Biso   1.000  O
  O49      1.0000 0.51140  0.10630  0.10448  Biso   1.000  O
  O50      1.0000 0.48860  0.89370  0.60448  Biso   1.000  O
  O51      1.0000 0.89370  0.48860  0.06219  Biso   1.000  O
  O52      1.0000 0.10630  0.51140  0.56219  Biso   1.000  O
  O53      1.0000 0.40510  0.89370  0.89552  Biso   1.000  O
  O54      1.0000 0.59490  0.10630  0.39552  Biso   1.000  O
  O55      1.0000 0.51140  0.40510  0.72885  Biso   1.000  O
  O56      1.0000 0.48860  0.59490  0.22885  Biso   1.000  O
  O57      1.0000 0.89370  0.40510  0.77115  Biso   1.000  O
  O58      1.0000 0.10630  0.59490  0.27115  Biso   1.000  O
  O59      1.0000 0.40510  0.51140  0.93781  Biso   1.000  O
  O60      1.0000 0.59490  0.48860  0.43781  Biso   1.000  O
  O61      1.0000 0.36970  0.25490  0.08017  Biso   1.000  O
  O62      1.0000 0.63030  0.74510  0.58017  Biso   1.000  O
  O63      1.0000 0.74510  0.63030  0.08650  Biso   1.000  O
  O64      1.0000 0.25490  0.36970  0.58650  Biso   1.000  O
  O65      1.0000 0.11480  0.74510  0.91983  Biso   1.000  O
  O66      1.0000 0.88520  0.25490  0.41983  Biso   1.000  O
  O67      1.0000 0.36970  0.11480  0.75316  Biso   1.000  O
  O68      1.0000 0.63030  0.88520  0.25316  Biso   1.000  O
  O69      1.0000 0.74510  0.11480  0.74684  Biso   1.000  O
  O70      1.0000 0.25490  0.88520  0.24684  Biso   1.000  O
  O71      1.0000 0.11480  0.36970  0.91350  Biso   1.000  O
  O72      1.0000 0.88520  0.63030  0.41350  Biso   1.000  O
  H73      1.0000 0.40450  0.21750  0.08650  Biso   1.000  H
  H74      1.0000 0.59550  0.78250  0.58650  Biso   1.000  H
  H75      1.0000 0.78250  0.59550  0.08017  Biso   1.000  H
  H76      1.0000 0.21750  0.40450  0.58017  Biso   1.000  H
  H77      1.0000 0.18700  0.78250  0.91350  Biso   1.000  H
  H78      1.0000 0.81300  0.21750  0.41350  Biso   1.000  H
  H79      1.0000 0.40450  0.18700  0.74683  Biso   1.000  H
  H80      1.0000 0.59550  0.81300  0.24683  Biso   1.000  H
  H81      1.0000 0.78250  0.18700  0.75317  Biso   1.000  H
  H82      1.0000 0.21750  0.81300  0.25317  Biso   1.000  H
  H83      1.0000 0.18700  0.40450  0.91983  Biso   1.000  H
  H84      1.0000 0.81300  0.59550  0.41983  Biso   1.000  H
  H85      1.0000 0.42140  0.31940  0.06660  Biso   1.000  H
  H86      1.0000 0.57860  0.68060  0.56660  Biso   1.000  H
  H87      1.0000 0.68060  0.57860  0.10007  Biso   1.000  H
  H88      1.0000 0.31940  0.42140  0.60007  Biso   1.000  H
  H89      1.0000 0.10200  0.68060  0.93340  Biso   1.000  H
  H90      1.0000 0.89800  0.31940  0.43340  Biso   1.000  H
  H91      1.0000 0.42140  0.10200  0.76673  Biso   1.000  H
  H92      1.0000 0.57860  0.89800  0.26673  Biso   1.000  H
  H93      1.0000 0.68060  0.10200  0.73327  Biso   1.000  H
  H94      1.0000 0.31940  0.89800  0.23327  Biso   1.000  H
  H95      1.0000 0.10200  0.42140  0.89993  Biso   1.000  H
  H96      1.0000 0.89800  0.57860  0.39993  Biso   1.000  H
  O73      1.0000 0.92000  0.59790  0.99571  Biso   1.000  O
  O74      1.0000 0.08000  0.40210  0.49571  Biso   1.000  O
  O75      1.0000 0.40210  0.08000  0.17096  Biso   1.000  O
  O76      1.0000 0.59790  0.92000  0.67096  Biso   1.000  O
  O77      1.0000 0.32210  0.40210  0.00429  Biso   1.000  O
  O78      1.0000 0.67790  0.59790  0.50429  Biso   1.000  O
  O79      1.0000 0.92000  0.32210  0.83762  Biso   1.000  O
  O80      1.0000 0.08000  0.67790  0.33762  Biso   1.000  O
  O81      1.0000 0.40210  0.32210  0.66238  Biso   1.000  O
  O82      1.0000 0.59790  0.67790  0.16238  Biso   1.000  O
  O83      1.0000 0.32210  0.92000  0.82904  Biso   1.000  O
  O84      1.0000 0.67790  0.08000  0.32904  Biso   1.000  O
  H97      1.0000 0.91600  0.57110  0.01190  Biso   1.000  H
  H98      1.0000 0.08400  0.42890  0.51190  Biso   1.000  H
  H99      1.0000 0.42890  0.08400  0.15477  Biso   1.000  H
  H100     1.0000 0.57110  0.91600  0.65477  Biso   1.000  H
  H101     1.0000 0.34490  0.42890  0.98810  Biso   1.000  H
  H102     1.0000 0.65510  0.57110  0.48810  Biso   1.000  H
  H103     1.0000 0.91600  0.34490  0.82143  Biso   1.000  H
  H104     1.0000 0.08400  0.65510  0.32143  Biso   1.000  H
  H105     1.0000 0.42890  0.34490  0.67857  Biso   1.000  H
  H106     1.0000 0.57110  0.65510  0.17857  Biso   1.000  H
  H107     1.0000 0.34490  0.91600  0.84523  Biso   1.000  H
  H108     1.0000 0.65510  0.08400  0.34523  Biso   1.000  H
  H109     1.0000 0.87340  0.58630  0.98210  Biso   1.000  H
  H110     1.0000 0.12660  0.41370  0.48210  Biso   1.000  H
  H111     1.0000 0.41370  0.12660  0.18457  Biso   1.000  H
  H112     1.0000 0.58630  0.87340  0.68457  Biso   1.000  H
  H113     1.0000 0.28710  0.41370  0.01790  Biso   1.000  H
  H114     1.0000 0.71290  0.58630  0.51790  Biso   1.000  H
  H115     1.0000 0.87340  0.28710  0.85123  Biso   1.000  H
  H116     1.0000 0.12660  0.71290  0.35123  Biso   1.000  H
  H117     1.0000 0.41370  0.28710  0.64877  Biso   1.000  H
  H118     1.0000 0.58630  0.71290  0.14877  Biso   1.000  H
  H119     1.0000 0.28710  0.87340  0.81543  Biso   1.000  H
  H120     1.0000 0.71290  0.12660  0.31543  Biso   1.000  H
  O85      1.0000 0.58370  0.51390  0.02480  Biso   1.000  O
  O86      1.0000 0.41630  0.48610  0.52480  Biso   1.000  O
  O87      1.0000 0.48610  0.41630  0.14187  Biso   1.000  O
  O88      1.0000 0.51390  0.58370  0.64187  Biso   1.000  O
  O89      1.0000 0.06980  0.48610  0.97520  Biso   1.000  O
  O90      1.0000 0.93020  0.51390  0.47520  Biso   1.000  O
  O91      1.0000 0.58370  0.06980  0.80853  Biso   1.000  O
  O92      1.0000 0.41630  0.93020  0.30853  Biso   1.000  O
  O93      1.0000 0.48610  0.06980  0.69147  Biso   1.000  O
  O94      1.0000 0.51390  0.93020  0.19147  Biso   1.000  O
  O95      1.0000 0.06980  0.58370  0.85813  Biso   1.000  O
  O96      1.0000 0.93020  0.41630  0.35813  Biso   1.000  O
  H121     1.0000 0.50220  0.47970  0.01810  Biso   1.000  H
  H122     1.0000 0.49780  0.52030  0.51810  Biso   1.000  H
  H123     1.0000 0.52030  0.49780  0.14857  Biso   1.000  H
  H124     1.0000 0.47970  0.50220  0.64857  Biso   1.000  H
  H125     1.0000 0.02250  0.52030  0.98190  Biso   1.000  H
  H126     1.0000 0.97750  0.47970  0.48190  Biso   1.000  H
  H127     1.0000 0.50220  0.02250  0.81523  Biso   1.000  H
  H128     1.0000 0.49780  0.97750  0.31523  Biso   1.000  H
  H129     1.0000 0.52030  0.02250  0.68477  Biso   1.000  H
  H130     1.0000 0.47970  0.97750  0.18477  Biso   1.000  H
  H131     1.0000 0.02250  0.50220  0.85143  Biso   1.000  H
  H132     1.0000 0.97750  0.49780  0.35143  Biso   1.000  H
  H133     1.0000 0.63840  0.56530  0.04300  Biso   1.000  H
  H134     1.0000 0.36160  0.43470  0.54300  Biso   1.000  H
  H135     1.0000 0.43470  0.36160  0.12367  Biso   1.000  H
  H136     1.0000 0.56530  0.63840  0.62367  Biso   1.000  H
  H137     1.0000 0.07310  0.43470  0.95700  Biso   1.000  H
  H138     1.0000 0.92690  0.56530  0.45700  Biso   1.000  H
  H139     1.0000 0.63840  0.07310  0.79033  Biso   1.000  H
  H140     1.0000 0.36160  0.92690  0.29033  Biso   1.000  H
  H141     1.0000 0.43470  0.07310  0.70967  Biso   1.000  H
  H142     1.0000 0.56530  0.92690  0.20967  Biso   1.000  H
  H143     1.0000 0.07310  0.63840  0.87633  Biso   1.000  H
  H144     1.0000 0.92690  0.36160  0.37633  Biso   1.000  H
  C1       1.0000 0.76730  0.89350  0.01185  Biso   1.000  C
  C2       1.0000 0.23270  0.10650  0.51185  Biso   1.000  C
  C3       1.0000 0.10650  0.23270  0.15482  Biso   1.000  C
  C4       1.0000 0.89350  0.76730  0.65482  Biso   1.000  C
  C5       1.0000 0.87380  0.10650  0.98815  Biso   1.000  C
  C6       1.0000 0.12620  0.89350  0.48815  Biso   1.000  C
  C7       1.0000 0.76730  0.87380  0.82148  Biso   1.000  C
  C8       1.0000 0.23270  0.12620  0.32148  Biso   1.000  C
  C9       1.0000 0.10650  0.87380  0.67852  Biso   1.000  C
  C10      1.0000 0.89350  0.12620  0.17852  Biso   1.000  C
  C11      1.0000 0.87380  0.76730  0.84518  Biso   1.000  C
  C12      1.0000 0.12620  0.23270  0.34518  Biso   1.000  C
  H145     1.0000 0.77020  0.81850  0.02020  Biso   1.000  H
  H146     1.0000 0.22980  0.18150  0.52020  Biso   1.000  H
  H147     1.0000 0.18150  0.22980  0.14647  Biso   1.000  H
  H148     1.0000 0.81850  0.77020  0.64647  Biso   1.000  H
  H149     1.0000 0.95170  0.18150  0.97980  Biso   1.000  H
  H150     1.0000 0.04830  0.81850  0.47980  Biso   1.000  H
  H151     1.0000 0.77020  0.95170  0.81313  Biso   1.000  H
  H152     1.0000 0.22980  0.04830  0.31313  Biso   1.000  H
  H153     1.0000 0.18150  0.95170  0.68687  Biso   1.000  H
  H154     1.0000 0.81850  0.04830  0.18687  Biso   1.000  H
  H155     1.0000 0.95170  0.77020  0.85353  Biso   1.000  H
  H156     1.0000 0.04830  0.22980  0.35353  Biso   1.000  H
  C13      1.0000 0.64450  0.89000  0.01223  Biso   1.000  C
  C14      1.0000 0.35550  0.11000  0.51223  Biso   1.000  C
  C15      1.0000 0.11000  0.35550  0.15444  Biso   1.000  C
  C16      1.0000 0.89000  0.64450  0.65444  Biso   1.000  C
  C17      1.0000 0.75450  0.11000  0.98777  Biso   1.000  C
  C18      1.0000 0.24550  0.89000  0.48777  Biso   1.000  C
  C19      1.0000 0.64450  0.75450  0.82110  Biso   1.000  C
  C20      1.0000 0.35550  0.24550  0.32110  Biso   1.000  C
  C21      1.0000 0.11000  0.75450  0.67890  Biso   1.000  C
  C22      1.0000 0.89000  0.24550  0.17890  Biso   1.000  C
  C23      1.0000 0.75450  0.64450  0.84556  Biso   1.000  C
  C24      1.0000 0.24550  0.35550  0.34556  Biso   1.000  C
  H157     1.0000 0.56800  0.81370  0.02070  Biso   1.000  H
  H158     1.0000 0.43200  0.18630  0.52070  Biso   1.000  H
  H159     1.0000 0.18630  0.43200  0.14597  Biso   1.000  H
  H160     1.0000 0.81370  0.56800  0.64597  Biso   1.000  H
  H161     1.0000 0.75430  0.18630  0.97930  Biso   1.000  H
  H162     1.0000 0.24570  0.81370  0.47930  Biso   1.000  H
  H163     1.0000 0.56800  0.75430  0.81263  Biso   1.000  H
  H164     1.0000 0.43200  0.24570  0.31263  Biso   1.000  H
  H165     1.0000 0.18630  0.75430  0.68737  Biso   1.000  H
  H166     1.0000 0.81370  0.24570  0.18737  Biso   1.000  H
  H167     1.0000 0.75430  0.56800  0.85403  Biso   1.000  H
  H168     1.0000 0.24570  0.43200  0.35403  Biso   1.000  H
  C25      1.0000 0.63510  0.00000  0.00000  Biso   1.000  C
  C26      1.0000 0.36490  0.00000  0.50000  Biso   1.000  C
  C27      1.0000 0.00000  0.36490  0.16667  Biso   1.000  C
  C28      1.0000 0.00000  0.63510  0.66667  Biso   1.000  C
  C29      1.0000 0.63510  0.63510  0.83333  Biso   1.000  C
  C30      1.0000 0.36490  0.36490  0.33333  Biso   1.000  C
  C31      1.0000 0.37700  0.11470  0.00415  Biso   1.000  C
  C32      1.0000 0.62300  0.88530  0.50415  Biso   1.000  C
  C33      1.0000 0.88530  0.62300  0.16252  Biso   1.000  C
  C34      1.0000 0.11470  0.37700  0.66252  Biso   1.000  C
  C35      1.0000 0.26230  0.88530  0.99585  Biso   1.000  C
  C36      1.0000 0.73770  0.11470  0.49585  Biso   1.000  C
  C37      1.0000 0.37700  0.26230  0.82918  Biso   1.000  C
  C38      1.0000 0.62300  0.73770  0.32918  Biso   1.000  C
  C39      1.0000 0.88530  0.26230  0.67082  Biso   1.000  C
  C40      1.0000 0.11470  0.73770  0.17082  Biso   1.000  C
  C41      1.0000 0.26230  0.37700  0.83748  Biso   1.000  C
  C42      1.0000 0.73770  0.62300  0.33748  Biso   1.000  C
  H169     1.0000 0.37650  0.19500  0.00710  Biso   1.000  H
  H170     1.0000 0.62350  0.80500  0.50710  Biso   1.000  H
  H171     1.0000 0.80500  0.62350  0.15957  Biso   1.000  H
  H172     1.0000 0.19500  0.37650  0.65957  Biso   1.000  H
  H173     1.0000 0.18150  0.80500  0.99290  Biso   1.000  H
  H174     1.0000 0.81850  0.19500  0.49290  Biso   1.000  H
  H175     1.0000 0.37650  0.18150  0.82623  Biso   1.000  H
  H176     1.0000 0.62350  0.81850  0.32623  Biso   1.000  H
  H177     1.0000 0.80500  0.18150  0.67377  Biso   1.000  H
  H178     1.0000 0.19500  0.81850  0.17377  Biso   1.000  H
  H179     1.0000 0.18150  0.37650  0.84043  Biso   1.000  H
  H180     1.0000 0.81850  0.62350  0.34043  Biso   1.000  H
  C43      1.0000 0.50090  0.11890  0.00426  Biso   1.000  C
  C44      1.0000 0.49910  0.88110  0.50426  Biso   1.000  C
  C45      1.0000 0.88110  0.49910  0.16241  Biso   1.000  C
  C46      1.0000 0.11890  0.50090  0.66241  Biso   1.000  C
  C47      1.0000 0.38200  0.88110  0.99574  Biso   1.000  C
  C48      1.0000 0.61800  0.11890  0.49574  Biso   1.000  C
  C49      1.0000 0.50090  0.38200  0.82907  Biso   1.000  C
  C50      1.0000 0.49910  0.61800  0.32907  Biso   1.000  C
  C51      1.0000 0.88110  0.38200  0.67093  Biso   1.000  C
  C52      1.0000 0.11890  0.61800  0.17093  Biso   1.000  C
  C53      1.0000 0.38200  0.50090  0.83759  Biso   1.000  C
  C54      1.0000 0.61800  0.49910  0.33759  Biso   1.000  C
  H181     1.0000 0.58050  0.20030  0.00710  Biso   1.000  H
  H182     1.0000 0.41950  0.79970  0.50710  Biso   1.000  H
  H183     1.0000 0.79970  0.41950  0.15957  Biso   1.000  H
  H184     1.0000 0.20030  0.58050  0.65957  Biso   1.000  H
  H185     1.0000 0.38020  0.79970  0.99290  Biso   1.000  H
  H186     1.0000 0.61980  0.20030  0.49290  Biso   1.000  H
  H187     1.0000 0.58050  0.38020  0.82623  Biso   1.000  H
  H188     1.0000 0.41950  0.61980  0.32623  Biso   1.000  H
  H189     1.0000 0.79970  0.38020  0.67377  Biso   1.000  H
  H190     1.0000 0.20030  0.61980  0.17377  Biso   1.000  H
  H191     1.0000 0.38020  0.58050  0.84043  Biso   1.000  H
  H192     1.0000 0.61980  0.41950  0.34043  Biso   1.000  H
  C55      1.0000 0.50410  0.00000  0.00000  Biso   1.000  C
  C56      1.0000 0.49590  0.00000  0.50000  Biso   1.000  C
  C57      1.0000 0.00000  0.49590  0.16667  Biso   1.000  C
  C58      1.0000 0.00000  0.50410  0.66667  Biso   1.000  C
  C59      1.0000 0.50410  0.50410  0.83333  Biso   1.000  C
  C60      1.0000 0.49590  0.49590  0.33333  Biso   1.000  C
  C61      1.0000 0.22920  0.77080  0.08330  Biso   1.000  C
  C62      1.0000 0.77080  0.22920  0.58330  Biso   1.000  C
  C63      1.0000 0.45840  0.22920  0.91670  Biso   1.000  C
  C64      1.0000 0.54160  0.77080  0.41670  Biso   1.000  C
  C65      1.0000 0.22920  0.45840  0.75003  Biso   1.000  C
  C66      1.0000 0.77080  0.54160  0.25003  Biso   1.000  C
  C67      1.0000 0.43240  0.76130  0.09659  Biso   1.000  C
  C68      1.0000 0.56760  0.23870  0.59659  Biso   1.000  C
  C69      1.0000 0.23870  0.56760  0.07008  Biso   1.000  C
  C70      1.0000 0.76130  0.43240  0.57008  Biso   1.000  C
  C71      1.0000 0.67110  0.23870  0.90341  Biso   1.000  C
  C72      1.0000 0.32890  0.76130  0.40341  Biso   1.000  C
  C73      1.0000 0.43240  0.67110  0.73674  Biso   1.000  C
  C74      1.0000 0.56760  0.32890  0.23674  Biso   1.000  C
  C75      1.0000 0.23870  0.67110  0.76326  Biso   1.000  C
  C76      1.0000 0.76130  0.32890  0.26326  Biso   1.000  C
  C77      1.0000 0.67110  0.43240  0.92992  Biso   1.000  C
  C78      1.0000 0.32890  0.56760  0.42992  Biso   1.000  C
  C79      1.0000 0.36960  0.63040  0.08330  Biso   1.000  C
  C80      1.0000 0.63040  0.36960  0.58330  Biso   1.000  C
  C81      1.0000 0.73920  0.36960  0.91670  Biso   1.000  C
  C82      1.0000 0.26080  0.63040  0.41670  Biso   1.000  C
  C83      1.0000 0.36960  0.73920  0.75003  Biso   1.000  C
  C84      1.0000 0.63040  0.26080  0.25003  Biso   1.000  C
  H193     1.0000 0.41640  0.58360  0.08330  Biso   1.000  H
  H194     1.0000 0.58360  0.41640  0.58330  Biso   1.000  H
  H195     1.0000 0.83280  0.41640  0.91670  Biso   1.000  H
  H196     1.0000 0.16720  0.58360  0.41670  Biso   1.000  H
  H197     1.0000 0.41640  0.83280  0.75003  Biso   1.000  H
  H198     1.0000 0.58360  0.16720  0.25003  Biso   1.000  H
  C85      1.0000 0.83860  0.16140  0.08330  Biso   1.000  C
  C86      1.0000 0.16140  0.83860  0.58330  Biso   1.000  C
  C87      1.0000 0.67720  0.83860  0.91670  Biso   1.000  C
  C88      1.0000 0.32280  0.16140  0.41670  Biso   1.000  C
  C89      1.0000 0.83860  0.67720  0.75003  Biso   1.000  C
  C90      1.0000 0.16140  0.32280  0.25003  Biso   1.000  C
  C91      1.0000 0.63170  0.17050  0.09418  Biso   1.000  C
  C92      1.0000 0.36830  0.82950  0.59418  Biso   1.000  C
  C93      1.0000 0.82950  0.36830  0.07249  Biso   1.000  C
  C94      1.0000 0.17050  0.63170  0.57249  Biso   1.000  C
  C95      1.0000 0.46120  0.82950  0.90582  Biso   1.000  C
  C96      1.0000 0.53880  0.17050  0.40582  Biso   1.000  C
  C97      1.0000 0.63170  0.46120  0.73915  Biso   1.000  C
  C98      1.0000 0.36830  0.53880  0.23915  Biso   1.000  C
  C99      1.0000 0.82950  0.46120  0.76085  Biso   1.000  C
  C100     1.0000 0.17050  0.53880  0.26085  Biso   1.000  C
  C101     1.0000 0.46120  0.63170  0.92751  Biso   1.000  C
  C102     1.0000 0.53880  0.36830  0.42751  Biso   1.000  C
  C103     1.0000 0.69650  0.30350  0.08330  Biso   1.000  C
  C104     1.0000 0.30350  0.69650  0.58330  Biso   1.000  C
  C105     1.0000 0.39300  0.69650  0.91670  Biso   1.000  C
  C106     1.0000 0.60700  0.30350  0.41670  Biso   1.000  C
  C107     1.0000 0.69650  0.39300  0.75003  Biso   1.000  C
  C108     1.0000 0.30350  0.60700  0.25003  Biso   1.000  C
  H199     1.0000 0.64960  0.35030  0.08330  Biso   1.000  H
  H200     1.0000 0.35040  0.64970  0.58330  Biso   1.000  H
  H201     1.0000 0.29930  0.64970  0.91670  Biso   1.000  H
  H202     1.0000 0.70070  0.35030  0.41670  Biso   1.000  H
  H203     1.0000 0.64960  0.29930  0.75003  Biso   1.000  H
  H204     1.0000 0.35040  0.70070  0.25003  Biso   1.000  H
  O97      1.0000 0.80200  0.58890  0.00830  Biso   1.000  O
  O98      1.0000 0.19800  0.41110  0.50830  Biso   1.000  O
  O99      1.0000 0.41110  0.19800  0.15837  Biso   1.000  O
  O100     1.0000 0.58890  0.80200  0.65837  Biso   1.000  O
  O101     1.0000 0.21310  0.41110  0.99170  Biso   1.000  O
  O102     1.0000 0.78690  0.58890  0.49170  Biso   1.000  O
  O103     1.0000 0.80200  0.21310  0.82503  Biso   1.000  O
  O104     1.0000 0.19800  0.78690  0.32503  Biso   1.000  O
  O105     1.0000 0.41110  0.21310  0.67497  Biso   1.000  O
  O106     1.0000 0.58890  0.78690  0.17497  Biso   1.000  O
  O107     1.0000 0.21310  0.80200  0.84163  Biso   1.000  O
  O108     1.0000 0.78690  0.19800  0.34163  Biso   1.000  O
