data_image0
_cell_length_a       8.4405
_cell_length_b       11.4677
_cell_length_c       11.7069
_cell_angle_alpha    108.704
_cell_angle_beta     95
_cell_angle_gamma    95.813

_symmetry_space_group_name_H-M    "P 1"
_symmetry_int_tables_number       1

loop_
  _symmetry_equiv_pos_as_xyz
  'x, y, z'

loop_
  _atom_site_label
  _atom_site_occupancy
  _atom_site_fract_x
  _atom_site_fract_y
  _atom_site_fract_z
  _atom_site_thermal_displace_type
  _atom_site_B_iso_or_equiv
  _atom_site_type_symbol
  Cu1      1.0000 0.14452  0.93803  0.01230  Biso   1.000  Cu
  Cu2      1.0000 0.85548  0.06197  0.98770  Biso   1.000  Cu
  Cu3      1.0000 0.88779  0.79121  0.78228  Biso   1.000  Cu
  Cu4      1.0000 0.11221  0.20879  0.21772  Biso   1.000  Cu
  O1       1.0000 0.99470  0.95729  0.88410  Biso   1.000  O
  O2       1.0000 0.00530  0.04271  0.11590  Biso   1.000  O
  O3       1.0000 0.91870  0.74820  0.97380  Biso   1.000  O
  O4       1.0000 0.08130  0.25180  0.02620  Biso   1.000  O
  O5       1.0000 0.71780  0.82920  0.93490  Biso   1.000  O
  O6       1.0000 0.28220  0.17080  0.06510  Biso   1.000  O
  O7       1.0000 0.29570  0.86670  0.90530  Biso   1.000  O
  O8       1.0000 0.70430  0.13330  0.09470  Biso   1.000  O
  O9       1.0000 0.12930  0.71700  0.75910  Biso   1.000  O
  O10      1.0000 0.87070  0.28300  0.24090  Biso   1.000  O
  O11      1.0000 0.89350  0.82720  0.62890  Biso   1.000  O
  O12      1.0000 0.10650  0.17280  0.37110  Biso   1.000  O
  O13      1.0000 0.08410  0.99220  0.68420  Biso   1.000  O
  O14      1.0000 0.91590  0.00780  0.31580  Biso   1.000  O
  C1       1.0000 0.79380  0.78280  0.99710  Biso   1.000  C
  C2       1.0000 0.20620  0.21720  0.00290  Biso   1.000  C
  H1       1.0000 0.75310  0.77390  0.06560  Biso   1.000  H
  H2       1.0000 0.24690  0.22610  0.93440  Biso   1.000  H
  C3       1.0000 0.26170  0.77360  0.81030  Biso   1.000  C
  C4       1.0000 0.73830  0.22640  0.18970  Biso   1.000  C
  H3       1.0000 0.34910  0.74300  0.77340  Biso   1.000  H
  H4       1.0000 0.65090  0.25700  0.22660  Biso   1.000  H
  C5       1.0000 0.99000  0.90720  0.60890  Biso   1.000  C
  C6       1.0000 0.01000  0.09280  0.39110  Biso   1.000  C
  H5       1.0000 0.99070  0.90190  0.52800  Biso   1.000  H
  H6       1.0000 0.00930  0.09810  0.47200  Biso   1.000  H
  N1       1.0000 0.27430  0.91050  0.14790  Biso   1.000  N
  N2       1.0000 0.72570  0.08950  0.85210  Biso   1.000  N
  N3       1.0000 0.23240  0.37710  0.31500  Biso   1.000  N
  N4       1.0000 0.76760  0.62290  0.68500  Biso   1.000  N
  S1       1.0000 0.59778  0.83705  0.44128  Biso   1.000  S
  S2       1.0000 0.40222  0.16295  0.55872  Biso   1.000  S
  S3       1.0000 0.45214  0.77185  0.54307  Biso   1.000  S
  S4       1.0000 0.54786  0.22815  0.45693  Biso   1.000  S
  C7       1.0000 0.43360  0.94170  0.16530  Biso   1.000  C
  C8       1.0000 0.56640  0.05830  0.83470  Biso   1.000  C
  H7       1.0000 0.48060  0.97900  0.11440  Biso   1.000  H
  H8       1.0000 0.51940  0.02100  0.88560  Biso   1.000  H
  C9       1.0000 0.53110  0.92100  0.25560  Biso   1.000  C
  C10      1.0000 0.46890  0.07900  0.74440  Biso   1.000  C
  H9       1.0000 0.64150  0.94430  0.26520  Biso   1.000  H
  H10      1.0000 0.35850  0.05570  0.73480  Biso   1.000  H
  C11      1.0000 0.46330  0.86520  0.33150  Biso   1.000  C
  C12      1.0000 0.53670  0.13480  0.66850  Biso   1.000  C
  C13      1.0000 0.29700  0.83320  0.31420  Biso   1.000  C
  C14      1.0000 0.70300  0.16680  0.68580  Biso   1.000  C
  H11      1.0000 0.24680  0.79620  0.36400  Biso   1.000  H
  H12      1.0000 0.75320  0.20380  0.63600  Biso   1.000  H
  C15      1.0000 0.20900  0.85740  0.22230  Biso   1.000  C
  C16      1.0000 0.79100  0.14260  0.77770  Biso   1.000  C
  H13      1.0000 0.09810  0.83580  0.21120  Biso   1.000  H
  H14      1.0000 0.90190  0.16420  0.78880  Biso   1.000  H
  C17      1.0000 0.37590  0.61650  0.45170  Biso   1.000  C
  C18      1.0000 0.62410  0.38350  0.54830  Biso   1.000  C
  C19      1.0000 0.25570  0.55650  0.49300  Biso   1.000  C
  C20      1.0000 0.74430  0.44350  0.50700  Biso   1.000  C
  H15      1.0000 0.22070  0.59600  0.56710  Biso   1.000  H
  H16      1.0000 0.77930  0.40400  0.43290  Biso   1.000  H
  C21      1.0000 0.18760  0.43740  0.42370  Biso   1.000  C
  C22      1.0000 0.81240  0.56260  0.57630  Biso   1.000  C
  H17      1.0000 0.10770  0.39730  0.45320  Biso   1.000  H
  H18      1.0000 0.89230  0.60270  0.54680  Biso   1.000  H
  C23      1.0000 0.35100  0.43480  0.27710  Biso   1.000  C
  C24      1.0000 0.64900  0.56520  0.72290  Biso   1.000  C
  H19      1.0000 0.38520  0.39310  0.20340  Biso   1.000  H
  H20      1.0000 0.61480  0.60690  0.79660  Biso   1.000  H
  C25      1.0000 0.42650  0.55450  0.34210  Biso   1.000  C
  C26      1.0000 0.57350  0.44550  0.65790  Biso   1.000  C
  H21      1.0000 0.50900  0.59170  0.31240  Biso   1.000  H
  H22      1.0000 0.49100  0.40830  0.68760  Biso   1.000  H
  H23      1.0000 0.02800  0.97200  0.83900  Biso   1.000  H
  H24      1.0000 0.97200  0.02800  0.16100  Biso   1.000  H
  Cl1      1.0000 0.11670  0.37347  0.71900  Biso   1.000  Cl
  Cl2      1.0000 0.88330  0.62653  0.28100  Biso   1.000  Cl
  Cl3      1.0000 0.28670  0.53360  0.94920  Biso   1.000  Cl
  Cl4      1.0000 0.71330  0.46640  0.05080  Biso   1.000  Cl
  C27      1.0000 0.10350  0.47700  0.86150  Biso   1.000  C
  C28      1.0000 0.89650  0.52300  0.13850  Biso   1.000  C
  H25      1.0000 0.05290  0.54620  0.85200  Biso   1.000  H
  H26      1.0000 0.94710  0.45380  0.14800  Biso   1.000  H
  H27      1.0000 0.03520  0.43580  0.90360  Biso   1.000  H
  H28      1.0000 0.96480  0.56420  0.09640  Biso   1.000  H
