data_image0
_cell_length_a       18.9365
_cell_length_b       10.7022
_cell_length_c       20.3222
_cell_angle_alpha    90
_cell_angle_beta     114.901
_cell_angle_gamma    90

_symmetry_space_group_name_H-M    "P 1"
_symmetry_int_tables_number       1

loop_
  _symmetry_equiv_pos_as_xyz
  'x, y, z'

loop_
  _atom_site_label
  _atom_site_occupancy
  _atom_site_fract_x
  _atom_site_fract_y
  _atom_site_fract_z
  _atom_site_thermal_displace_type
  _atom_site_B_iso_or_equiv
  _atom_site_type_symbol
  Cu1      1.0000 0.00000  0.18283  0.25000  Biso   1.000  Cu
  Cu2      1.0000 0.50000  0.68283  0.25000  Biso   1.000  Cu
  Cu3      1.0000 0.00000  0.81717  0.75000  Biso   1.000  Cu
  Cu4      1.0000 0.50000  0.31717  0.75000  Biso   1.000  Cu
  S1       1.0000 0.08605  0.62335  0.49837  Biso   1.000  S
  S2       1.0000 0.91395  0.62335  0.00163  Biso   1.000  S
  S3       1.0000 0.58605  0.12335  0.49837  Biso   1.000  S
  S4       1.0000 0.41395  0.12335  0.00163  Biso   1.000  S
  S5       1.0000 0.91395  0.37665  0.50163  Biso   1.000  S
  S6       1.0000 0.08605  0.37665  0.99837  Biso   1.000  S
  S7       1.0000 0.41395  0.87665  0.50163  Biso   1.000  S
  S8       1.0000 0.58605  0.87665  0.99837  Biso   1.000  S
  S9       1.0000 0.99420  0.74077  0.47291  Biso   1.000  S
  S10      1.0000 0.00580  0.74077  0.02709  Biso   1.000  S
  S11      1.0000 0.49420  0.24077  0.47291  Biso   1.000  S
  S12      1.0000 0.50580  0.24077  0.02709  Biso   1.000  S
  S13      1.0000 0.00580  0.25923  0.52709  Biso   1.000  S
  S14      1.0000 0.99420  0.25923  0.97291  Biso   1.000  S
  S15      1.0000 0.50580  0.75923  0.52709  Biso   1.000  S
  S16      1.0000 0.49420  0.75923  0.97291  Biso   1.000  S
  N1       1.0000 0.01887  0.31789  0.32652  Biso   1.000  N
  N2       1.0000 0.98113  0.31789  0.17348  Biso   1.000  N
  N3       1.0000 0.51887  0.81789  0.32652  Biso   1.000  N
  N4       1.0000 0.48113  0.81789  0.17348  Biso   1.000  N
  N5       1.0000 0.98113  0.68211  0.67348  Biso   1.000  N
  N6       1.0000 0.01887  0.68211  0.82652  Biso   1.000  N
  N7       1.0000 0.48113  0.18211  0.67348  Biso   1.000  N
  N8       1.0000 0.51887  0.18211  0.82652  Biso   1.000  N
  N9       1.0000 0.01003  0.04825  0.32486  Biso   1.000  N
  N10      1.0000 0.98997  0.04825  0.17514  Biso   1.000  N
  N11      1.0000 0.51003  0.54825  0.32486  Biso   1.000  N
  N12      1.0000 0.48997  0.54825  0.17514  Biso   1.000  N
  N13      1.0000 0.98997  0.95175  0.67514  Biso   1.000  N
  N14      1.0000 0.01003  0.95175  0.82486  Biso   1.000  N
  N15      1.0000 0.48997  0.45175  0.67514  Biso   1.000  N
  N16      1.0000 0.51003  0.45175  0.82486  Biso   1.000  N
  O1       1.0000 0.13697  0.18040  0.28471  Biso   1.000  O
  O2       1.0000 0.86303  0.18040  0.21529  Biso   1.000  O
  O3       1.0000 0.63697  0.68040  0.28471  Biso   1.000  O
  O4       1.0000 0.36303  0.68040  0.21529  Biso   1.000  O
  O5       1.0000 0.86303  0.81960  0.71529  Biso   1.000  O
  O6       1.0000 0.13697  0.81960  0.78471  Biso   1.000  O
  O7       1.0000 0.36303  0.31960  0.71529  Biso   1.000  O
  O8       1.0000 0.63697  0.31960  0.78471  Biso   1.000  O
  C1       1.0000 0.97149  0.41720  0.31567  Biso   1.000  C
  C2       1.0000 0.02851  0.41720  0.18433  Biso   1.000  C
  C3       1.0000 0.47149  0.91720  0.31567  Biso   1.000  C
  C4       1.0000 0.52851  0.91720  0.18433  Biso   1.000  C
  C5       1.0000 0.02851  0.58280  0.68433  Biso   1.000  C
  C6       1.0000 0.97149  0.58280  0.81567  Biso   1.000  C
  C7       1.0000 0.52851  0.08280  0.68433  Biso   1.000  C
  C8       1.0000 0.47149  0.08280  0.81567  Biso   1.000  C
  H1       1.0000 0.92610  0.42110  0.27300  Biso   1.000  H
  H2       1.0000 0.07390  0.42110  0.22700  Biso   1.000  H
  H3       1.0000 0.42610  0.92110  0.27300  Biso   1.000  H
  H4       1.0000 0.57390  0.92110  0.22700  Biso   1.000  H
  H5       1.0000 0.07390  0.57890  0.72700  Biso   1.000  H
  H6       1.0000 0.92610  0.57890  0.77300  Biso   1.000  H
  H7       1.0000 0.57390  0.07890  0.72700  Biso   1.000  H
  H8       1.0000 0.42610  0.07890  0.77300  Biso   1.000  H
  C9       1.0000 0.98742  0.51300  0.36502  Biso   1.000  C
  C10      1.0000 0.01258  0.51300  0.13498  Biso   1.000  C
  C11      1.0000 0.48742  0.01300  0.36502  Biso   1.000  C
  C12      1.0000 0.51258  0.01300  0.13498  Biso   1.000  C
  C13      1.0000 0.01258  0.48700  0.63498  Biso   1.000  C
  C14      1.0000 0.98742  0.48700  0.86502  Biso   1.000  C
  C15      1.0000 0.51258  0.98700  0.63498  Biso   1.000  C
  C16      1.0000 0.48742  0.98700  0.86502  Biso   1.000  C
  H9       1.0000 0.95340  0.58030  0.35550  Biso   1.000  H
  H10      1.0000 0.04660  0.58030  0.14450  Biso   1.000  H
  H11      1.0000 0.45340  0.08030  0.35550  Biso   1.000  H
  H12      1.0000 0.54660  0.08030  0.14450  Biso   1.000  H
  H13      1.0000 0.04660  0.41970  0.64450  Biso   1.000  H
  H14      1.0000 0.95340  0.41970  0.85550  Biso   1.000  H
  H15      1.0000 0.54660  0.91970  0.64450  Biso   1.000  H
  H16      1.0000 0.45340  0.91970  0.85550  Biso   1.000  H
  C17      1.0000 0.05456  0.50840  0.42911  Biso   1.000  C
  C18      1.0000 0.94544  0.50840  0.07089  Biso   1.000  C
  C19      1.0000 0.55456  0.00840  0.42911  Biso   1.000  C
  C20      1.0000 0.44544  0.00840  0.07089  Biso   1.000  C
  C21      1.0000 0.94544  0.49160  0.57089  Biso   1.000  C
  C22      1.0000 0.05456  0.49160  0.92911  Biso   1.000  C
  C23      1.0000 0.44544  0.99160  0.57089  Biso   1.000  C
  C24      1.0000 0.55456  0.99160  0.92911  Biso   1.000  C
  C25      1.0000 0.10356  0.40527  0.44154  Biso   1.000  C
  C26      1.0000 0.89644  0.40527  0.05846  Biso   1.000  C
  C27      1.0000 0.60356  0.90527  0.44154  Biso   1.000  C
  C28      1.0000 0.39644  0.90527  0.05846  Biso   1.000  C
  C29      1.0000 0.89644  0.59473  0.55846  Biso   1.000  C
  C30      1.0000 0.10356  0.59473  0.94154  Biso   1.000  C
  C31      1.0000 0.39644  0.09473  0.55846  Biso   1.000  C
  C32      1.0000 0.60356  0.09473  0.94154  Biso   1.000  C
  H17      1.0000 0.14880  0.39860  0.48420  Biso   1.000  H
  H18      1.0000 0.85120  0.39860  0.01580  Biso   1.000  H
  H19      1.0000 0.64880  0.89860  0.48420  Biso   1.000  H
  H20      1.0000 0.35120  0.89860  0.01580  Biso   1.000  H
  H21      1.0000 0.85120  0.60140  0.51580  Biso   1.000  H
  H22      1.0000 0.14880  0.60140  0.98420  Biso   1.000  H
  H23      1.0000 0.35120  0.10140  0.51580  Biso   1.000  H
  H24      1.0000 0.64880  0.10140  0.98420  Biso   1.000  H
  C33      1.0000 0.08368  0.31410  0.38951  Biso   1.000  C
  C34      1.0000 0.91632  0.31410  0.11049  Biso   1.000  C
  C35      1.0000 0.58368  0.81410  0.38951  Biso   1.000  C
  C36      1.0000 0.41632  0.81410  0.11049  Biso   1.000  C
  C37      1.0000 0.91632  0.68590  0.61049  Biso   1.000  C
  C38      1.0000 0.08368  0.68590  0.88951  Biso   1.000  C
  C39      1.0000 0.41632  0.18590  0.61049  Biso   1.000  C
  C40      1.0000 0.58368  0.18590  0.88951  Biso   1.000  C
  H25      1.0000 0.11670  0.24570  0.39810  Biso   1.000  H
  H26      1.0000 0.88330  0.24570  0.10190  Biso   1.000  H
  H27      1.0000 0.61670  0.74570  0.39810  Biso   1.000  H
  H28      1.0000 0.38330  0.74570  0.10190  Biso   1.000  H
  H29      1.0000 0.88330  0.75430  0.60190  Biso   1.000  H
  H30      1.0000 0.11670  0.75430  0.89810  Biso   1.000  H
  H31      1.0000 0.38330  0.25430  0.60190  Biso   1.000  H
  H32      1.0000 0.61670  0.25430  0.89810  Biso   1.000  H
  C41      1.0000 0.00551  0.85603  0.41562  Biso   1.000  C
  C42      1.0000 0.99449  0.85603  0.08438  Biso   1.000  C
  C43      1.0000 0.50551  0.35603  0.41562  Biso   1.000  C
  C44      1.0000 0.49449  0.35603  0.08438  Biso   1.000  C
  C45      1.0000 0.99449  0.14397  0.58438  Biso   1.000  C
  C46      1.0000 0.00551  0.14397  0.91562  Biso   1.000  C
  C47      1.0000 0.49449  0.64397  0.58438  Biso   1.000  C
  C48      1.0000 0.50551  0.64397  0.91562  Biso   1.000  C
  C49      1.0000 0.96393  0.96640  0.40873  Biso   1.000  C
  C50      1.0000 0.03607  0.96640  0.09127  Biso   1.000  C
  C51      1.0000 0.46393  0.46640  0.40873  Biso   1.000  C
  C52      1.0000 0.53607  0.46640  0.09127  Biso   1.000  C
  C53      1.0000 0.03607  0.03360  0.59127  Biso   1.000  C
  C54      1.0000 0.96393  0.03360  0.90873  Biso   1.000  C
  C55      1.0000 0.53607  0.53360  0.59127  Biso   1.000  C
  C56      1.0000 0.46393  0.53360  0.90873  Biso   1.000  C
  H33      1.0000 0.93400  0.97750  0.43470  Biso   1.000  H
  H34      1.0000 0.06600  0.97750  0.06530  Biso   1.000  H
  H35      1.0000 0.43400  0.47750  0.43470  Biso   1.000  H
  H36      1.0000 0.56600  0.47750  0.06530  Biso   1.000  H
  H37      1.0000 0.06600  0.02250  0.56530  Biso   1.000  H
  H38      1.0000 0.93400  0.02250  0.93470  Biso   1.000  H
  H39      1.0000 0.56600  0.52250  0.56530  Biso   1.000  H
  H40      1.0000 0.43400  0.52250  0.93470  Biso   1.000  H
  C57      1.0000 0.96755  0.05820  0.36335  Biso   1.000  C
  C58      1.0000 0.03245  0.05820  0.13665  Biso   1.000  C
  C59      1.0000 0.46755  0.55820  0.36335  Biso   1.000  C
  C60      1.0000 0.53245  0.55820  0.13665  Biso   1.000  C
  C61      1.0000 0.03245  0.94180  0.63665  Biso   1.000  C
  C62      1.0000 0.96755  0.94180  0.86335  Biso   1.000  C
  C63      1.0000 0.53245  0.44180  0.63665  Biso   1.000  C
  C64      1.0000 0.46755  0.44180  0.86335  Biso   1.000  C
  H41      1.0000 0.93920  0.13110  0.35900  Biso   1.000  H
  H42      1.0000 0.06080  0.13110  0.14100  Biso   1.000  H
  H43      1.0000 0.43920  0.63110  0.35900  Biso   1.000  H
  H44      1.0000 0.56080  0.63110  0.14100  Biso   1.000  H
  H45      1.0000 0.06080  0.86890  0.64100  Biso   1.000  H
  H46      1.0000 0.93920  0.86890  0.85900  Biso   1.000  H
  H47      1.0000 0.56080  0.36890  0.64100  Biso   1.000  H
  H48      1.0000 0.43920  0.36890  0.85900  Biso   1.000  H
  C65      1.0000 0.05120  0.94232  0.33313  Biso   1.000  C
  C66      1.0000 0.94880  0.94232  0.16687  Biso   1.000  C
  C67      1.0000 0.55120  0.44232  0.33313  Biso   1.000  C
  C68      1.0000 0.44880  0.44232  0.16687  Biso   1.000  C
  C69      1.0000 0.94880  0.05768  0.66687  Biso   1.000  C
  C70      1.0000 0.05120  0.05768  0.83313  Biso   1.000  C
  C71      1.0000 0.44880  0.55768  0.66687  Biso   1.000  C
  C72      1.0000 0.55120  0.55768  0.83313  Biso   1.000  C
  H49      1.0000 0.08180  0.93420  0.30770  Biso   1.000  H
  H50      1.0000 0.91820  0.93420  0.19230  Biso   1.000  H
  H51      1.0000 0.58180  0.43420  0.30770  Biso   1.000  H
  H52      1.0000 0.41820  0.43420  0.19230  Biso   1.000  H
  H53      1.0000 0.91820  0.06580  0.69230  Biso   1.000  H
  H54      1.0000 0.08180  0.06580  0.80770  Biso   1.000  H
  H55      1.0000 0.41820  0.56580  0.69230  Biso   1.000  H
  H56      1.0000 0.58180  0.56580  0.80770  Biso   1.000  H
  C73      1.0000 0.05035  0.84528  0.37740  Biso   1.000  C
  C74      1.0000 0.94965  0.84528  0.12260  Biso   1.000  C
  C75      1.0000 0.55035  0.34528  0.37740  Biso   1.000  C
  C76      1.0000 0.44965  0.34528  0.12260  Biso   1.000  C
  C77      1.0000 0.94965  0.15472  0.62260  Biso   1.000  C
  C78      1.0000 0.05035  0.15472  0.87740  Biso   1.000  C
  C79      1.0000 0.44965  0.65472  0.62260  Biso   1.000  C
  C80      1.0000 0.55035  0.65472  0.87740  Biso   1.000  C
  H57      1.0000 0.07960  0.77360  0.38140  Biso   1.000  H
  H58      1.0000 0.92040  0.77360  0.11860  Biso   1.000  H
  H59      1.0000 0.57960  0.27360  0.38140  Biso   1.000  H
  H60      1.0000 0.42040  0.27360  0.11860  Biso   1.000  H
  H61      1.0000 0.92040  0.22640  0.61860  Biso   1.000  H
  H62      1.0000 0.07960  0.22640  0.88140  Biso   1.000  H
  H63      1.0000 0.42040  0.72640  0.61860  Biso   1.000  H
  H64      1.0000 0.57960  0.72640  0.88140  Biso   1.000  H
  H65      1.0000 0.16800  0.12800  0.30940  Biso   1.000  H
  H66      1.0000 0.83200  0.12800  0.19060  Biso   1.000  H
  H67      1.0000 0.66800  0.62800  0.30940  Biso   1.000  H
  H68      1.0000 0.33200  0.62800  0.19060  Biso   1.000  H
  H69      1.0000 0.83200  0.87200  0.69060  Biso   1.000  H
  H70      1.0000 0.16800  0.87200  0.80940  Biso   1.000  H
  H71      1.0000 0.33200  0.37200  0.69060  Biso   1.000  H
  H72      1.0000 0.66800  0.37200  0.80940  Biso   1.000  H
  H73      1.0000 0.15350  0.20400  0.25950  Biso   1.000  H
  H74      1.0000 0.84650  0.20400  0.24050  Biso   1.000  H
  H75      1.0000 0.65350  0.70400  0.25950  Biso   1.000  H
  H76      1.0000 0.34650  0.70400  0.24050  Biso   1.000  H
  H77      1.0000 0.84650  0.79600  0.74050  Biso   1.000  H
  H78      1.0000 0.15350  0.79600  0.75950  Biso   1.000  H
  H79      1.0000 0.34650  0.29600  0.74050  Biso   1.000  H
  H80      1.0000 0.65350  0.29600  0.75950  Biso   1.000  H
  S17      1.0000 0.27351  0.80720  0.69609  Biso   1.000  S
  S18      1.0000 0.72649  0.80720  0.80391  Biso   1.000  S
  S19      1.0000 0.77351  0.30720  0.69609  Biso   1.000  S
  S20      1.0000 0.22649  0.30720  0.80391  Biso   1.000  S
  S21      1.0000 0.72649  0.19280  0.30391  Biso   1.000  S
  S22      1.0000 0.27351  0.19280  0.19609  Biso   1.000  S
  S23      1.0000 0.22649  0.69280  0.30391  Biso   1.000  S
  S24      1.0000 0.77351  0.69280  0.19609  Biso   1.000  S
  O9       1.0000 0.19992  0.75206  0.68817  Biso   1.000  O
  O10      1.0000 0.80008  0.75206  0.81183  Biso   1.000  O
  O11      1.0000 0.69992  0.25206  0.68817  Biso   1.000  O
  O12      1.0000 0.30008  0.25206  0.81183  Biso   1.000  O
  O13      1.0000 0.80008  0.24794  0.31183  Biso   1.000  O
  O14      1.0000 0.19992  0.24794  0.18817  Biso   1.000  O
  O15      1.0000 0.30008  0.74794  0.31183  Biso   1.000  O
  O16      1.0000 0.69992  0.74794  0.18817  Biso   1.000  O
  O17      1.0000 0.31676  0.86390  0.76670  Biso   1.000  O
  O18      1.0000 0.68324  0.86390  0.73330  Biso   1.000  O
  O19      1.0000 0.81676  0.36390  0.76670  Biso   1.000  O
  O20      1.0000 0.18324  0.36390  0.73330  Biso   1.000  O
  O21      1.0000 0.68324  0.13610  0.23330  Biso   1.000  O
  O22      1.0000 0.31676  0.13610  0.26670  Biso   1.000  O
  O23      1.0000 0.18324  0.63610  0.23330  Biso   1.000  O
  O24      1.0000 0.81676  0.63610  0.26670  Biso   1.000  O
  O25      1.0000 0.31677  0.72230  0.67322  Biso   1.000  O
  O26      1.0000 0.68323  0.72230  0.82678  Biso   1.000  O
  O27      1.0000 0.81677  0.22230  0.67322  Biso   1.000  O
  O28      1.0000 0.18323  0.22230  0.82678  Biso   1.000  O
  O29      1.0000 0.68323  0.27770  0.32678  Biso   1.000  O
  O30      1.0000 0.31677  0.27770  0.17322  Biso   1.000  O
  O31      1.0000 0.18323  0.77770  0.32678  Biso   1.000  O
  O32      1.0000 0.81677  0.77770  0.17322  Biso   1.000  O
  N17      1.0000 0.19685  0.12360  0.53050  Biso   1.000  N
  N18      1.0000 0.80315  0.12360  0.96950  Biso   1.000  N
  N19      1.0000 0.69685  0.62360  0.53050  Biso   1.000  N
  N20      1.0000 0.30315  0.62360  0.96950  Biso   1.000  N
  N21      1.0000 0.80315  0.87640  0.46950  Biso   1.000  N
  N22      1.0000 0.19685  0.87640  0.03050  Biso   1.000  N
  N23      1.0000 0.30315  0.37640  0.46950  Biso   1.000  N
  N24      1.0000 0.69685  0.37640  0.03050  Biso   1.000  N
  C81      1.0000 0.21442  0.14310  0.59920  Biso   1.000  C
  C82      1.0000 0.78558  0.14310  0.90080  Biso   1.000  C
  C83      1.0000 0.71442  0.64310  0.59920  Biso   1.000  C
  C84      1.0000 0.28558  0.64310  0.90080  Biso   1.000  C
  C85      1.0000 0.78558  0.85690  0.40080  Biso   1.000  C
  C86      1.0000 0.21442  0.85690  0.09920  Biso   1.000  C
  C87      1.0000 0.28558  0.35690  0.40080  Biso   1.000  C
  C88      1.0000 0.71442  0.35690  0.09920  Biso   1.000  C
  H81      1.0000 0.20950  0.22410  0.61340  Biso   1.000  H
  H82      1.0000 0.79050  0.22410  0.88660  Biso   1.000  H
  H83      1.0000 0.70950  0.72410  0.61340  Biso   1.000  H
  H84      1.0000 0.29050  0.72410  0.88660  Biso   1.000  H
  H85      1.0000 0.79050  0.77590  0.38660  Biso   1.000  H
  H86      1.0000 0.20950  0.77590  0.11340  Biso   1.000  H
  H87      1.0000 0.29050  0.27590  0.38660  Biso   1.000  H
  H88      1.0000 0.70950  0.27590  0.11340  Biso   1.000  H
  C89      1.0000 0.23966  0.05190  0.65224  Biso   1.000  C
  C90      1.0000 0.76034  0.05190  0.84776  Biso   1.000  C
  C91      1.0000 0.73966  0.55190  0.65224  Biso   1.000  C
  C92      1.0000 0.26034  0.55190  0.84776  Biso   1.000  C
  C93      1.0000 0.76034  0.94810  0.34776  Biso   1.000  C
  C94      1.0000 0.23966  0.94810  0.15224  Biso   1.000  C
  C95      1.0000 0.26034  0.44810  0.34776  Biso   1.000  C
  C96      1.0000 0.73966  0.44810  0.15224  Biso   1.000  C
  H89      1.0000 0.25180  0.07150  0.70040  Biso   1.000  H
  H90      1.0000 0.74820  0.07150  0.79960  Biso   1.000  H
  H91      1.0000 0.75180  0.57150  0.70040  Biso   1.000  H
  H92      1.0000 0.24820  0.57150  0.79960  Biso   1.000  H
  H93      1.0000 0.74820  0.92850  0.29960  Biso   1.000  H
  H94      1.0000 0.25180  0.92850  0.20040  Biso   1.000  H
  H95      1.0000 0.24820  0.42850  0.29960  Biso   1.000  H
  H96      1.0000 0.75180  0.42850  0.20040  Biso   1.000  H
  C97      1.0000 0.24636  0.93110  0.63189  Biso   1.000  C
  C98      1.0000 0.75364  0.93110  0.86811  Biso   1.000  C
  C99      1.0000 0.74636  0.43110  0.63189  Biso   1.000  C
  C100     1.0000 0.25364  0.43110  0.86811  Biso   1.000  C
  C101     1.0000 0.75364  0.06890  0.36811  Biso   1.000  C
  C102     1.0000 0.24636  0.06890  0.13189  Biso   1.000  C
  C103     1.0000 0.25364  0.56890  0.36811  Biso   1.000  C
  C104     1.0000 0.74636  0.56890  0.13189  Biso   1.000  C
  C105     1.0000 0.22893  0.90780  0.56022  Biso   1.000  C
  C106     1.0000 0.77107  0.90780  0.93978  Biso   1.000  C
  C107     1.0000 0.72893  0.40780  0.56022  Biso   1.000  C
  C108     1.0000 0.27107  0.40780  0.93978  Biso   1.000  C
  C109     1.0000 0.77107  0.09220  0.43978  Biso   1.000  C
  C110     1.0000 0.22893  0.09220  0.06022  Biso   1.000  C
  C111     1.0000 0.27107  0.59220  0.43978  Biso   1.000  C
  C112     1.0000 0.72893  0.59220  0.06022  Biso   1.000  C
  H97      1.0000 0.23290  0.82760  0.54450  Biso   1.000  H
  H98      1.0000 0.76710  0.82760  0.95550  Biso   1.000  H
  H99      1.0000 0.73290  0.32760  0.54450  Biso   1.000  H
  H100     1.0000 0.26710  0.32760  0.95550  Biso   1.000  H
  H101     1.0000 0.76710  0.17240  0.45550  Biso   1.000  H
  H102     1.0000 0.23290  0.17240  0.04450  Biso   1.000  H
  H103     1.0000 0.26710  0.67240  0.45550  Biso   1.000  H
  H104     1.0000 0.73290  0.67240  0.04450  Biso   1.000  H
  C113     1.0000 0.20504  0.00780  0.51163  Biso   1.000  C
  C114     1.0000 0.79496  0.00780  0.98837  Biso   1.000  C
  C115     1.0000 0.70504  0.50780  0.51163  Biso   1.000  C
  C116     1.0000 0.29496  0.50780  0.98837  Biso   1.000  C
  C117     1.0000 0.79496  0.99220  0.48837  Biso   1.000  C
  C118     1.0000 0.20504  0.99220  0.01163  Biso   1.000  C
  C119     1.0000 0.29496  0.49220  0.48837  Biso   1.000  C
  C120     1.0000 0.70504  0.49220  0.01163  Biso   1.000  C
  H105     1.0000 0.19430  0.99220  0.46330  Biso   1.000  H
  H106     1.0000 0.80570  0.99220  0.03670  Biso   1.000  H
  H107     1.0000 0.69430  0.49220  0.46330  Biso   1.000  H
  H108     1.0000 0.30570  0.49220  0.03670  Biso   1.000  H
  H109     1.0000 0.80570  0.00780  0.53670  Biso   1.000  H
  H110     1.0000 0.19430  0.00780  0.96330  Biso   1.000  H
  H111     1.0000 0.30570  0.50780  0.53670  Biso   1.000  H
  H112     1.0000 0.69430  0.50780  0.96330  Biso   1.000  H
  O33      1.0000 0.26060  0.02390  0.36541  Biso   1.000  O
  O34      1.0000 0.73940  0.02390  0.13459  Biso   1.000  O
  O35      1.0000 0.76060  0.52390  0.36541  Biso   1.000  O
  O36      1.0000 0.23940  0.52390  0.13459  Biso   1.000  O
  O37      1.0000 0.73940  0.97610  0.63459  Biso   1.000  O
  O38      1.0000 0.26060  0.97610  0.86541  Biso   1.000  O
  O39      1.0000 0.23940  0.47610  0.63459  Biso   1.000  O
  O40      1.0000 0.76060  0.47610  0.86541  Biso   1.000  O
  H113     1.0000 0.28540  0.03800  0.34190  Biso   1.000  H
  H114     1.0000 0.71460  0.03800  0.15810  Biso   1.000  H
  H115     1.0000 0.78540  0.53800  0.34190  Biso   1.000  H
  H116     1.0000 0.21460  0.53800  0.15810  Biso   1.000  H
  H117     1.0000 0.71460  0.96200  0.65810  Biso   1.000  H
  H118     1.0000 0.28540  0.96200  0.84190  Biso   1.000  H
  H119     1.0000 0.21460  0.46200  0.65810  Biso   1.000  H
  H120     1.0000 0.78540  0.46200  0.84190  Biso   1.000  H
  H121     1.0000 0.24900  0.96300  0.35300  Biso   1.000  H
  H122     1.0000 0.75100  0.96300  0.14700  Biso   1.000  H
  H123     1.0000 0.74900  0.46300  0.35300  Biso   1.000  H
  H124     1.0000 0.25100  0.46300  0.14700  Biso   1.000  H
  H125     1.0000 0.75100  0.03700  0.64700  Biso   1.000  H
  H126     1.0000 0.24900  0.03700  0.85300  Biso   1.000  H
  H127     1.0000 0.25100  0.53700  0.64700  Biso   1.000  H
  H128     1.0000 0.74900  0.53700  0.85300  Biso   1.000  H
