data_image0
_cell_length_a       7.6637
_cell_length_b       7.8319
_cell_length_c       10.2543
_cell_angle_alpha    71.048
_cell_angle_beta     83.663
_cell_angle_gamma    77.074

_symmetry_space_group_name_H-M    "P 1"
_symmetry_int_tables_number       1

loop_
  _symmetry_equiv_pos_as_xyz
  'x, y, z'

loop_
  _atom_site_label
  _atom_site_occupancy
  _atom_site_fract_x
  _atom_site_fract_y
  _atom_site_fract_z
  _atom_site_thermal_displace_type
  _atom_site_B_iso_or_equiv
  _atom_site_type_symbol
  Cu1      1.0000 0.50000  0.00000  0.50000  Biso   1.000  Cu
  N1       1.0000 0.40630  0.82560  0.43120  Biso   1.000  N
  N2       1.0000 0.59370  0.17440  0.56880  Biso   1.000  N
  O1       1.0000 0.29210  0.25060  0.35040  Biso   1.000  O
  O2       1.0000 0.70790  0.74940  0.64960  Biso   1.000  O
  O3       1.0000 0.00780  0.46000  0.29850  Biso   1.000  O
  O4       1.0000 0.99220  0.54000  0.70150  Biso   1.000  O
  O5       1.0000 0.25140  0.47980  0.12650  Biso   1.000  O
  O6       1.0000 0.74860  0.52020  0.87350  Biso   1.000  O
  O7       1.0000 0.30830  0.98630  0.65023  Biso   1.000  O
  O8       1.0000 0.69170  0.01370  0.34977  Biso   1.000  O
  S1       1.0000 0.19912  0.43089  0.27194  Biso   1.000  S
  S2       1.0000 0.80088  0.56911  0.72806  Biso   1.000  S
  S3       1.0000 0.30678  0.82541  0.78372  Biso   1.000  S
  S4       1.0000 0.69322  0.17459  0.21628  Biso   1.000  S
  C1       1.0000 0.23230  0.81750  0.44490  Biso   1.000  C
  C2       1.0000 0.76770  0.18250  0.55510  Biso   1.000  C
  H1       1.0000 0.15480  0.89380  0.48850  Biso   1.000  H
  H2       1.0000 0.84520  0.10620  0.51150  Biso   1.000  H
  C3       1.0000 0.16230  0.70210  0.39800  Biso   1.000  C
  C4       1.0000 0.83770  0.29790  0.60200  Biso   1.000  C
  H3       1.0000 0.04050  0.70080  0.40960  Biso   1.000  H
  H4       1.0000 0.95950  0.29920  0.59040  Biso   1.000  H
  C5       1.0000 0.27660  0.58830  0.33330  Biso   1.000  C
  C6       1.0000 0.72340  0.41170  0.66670  Biso   1.000  C
  C7       1.0000 0.45630  0.59670  0.31690  Biso   1.000  C
  C8       1.0000 0.54370  0.40330  0.68310  Biso   1.000  C
  H5       1.0000 0.53590  0.52360  0.27200  Biso   1.000  H
  H6       1.0000 0.46410  0.47640  0.72800  Biso   1.000  H
  C9       1.0000 0.51590  0.71470  0.36800  Biso   1.000  C
  C10      1.0000 0.48410  0.28530  0.63200  Biso   1.000  C
  H7       1.0000 0.63740  0.71770  0.35820  Biso   1.000  H
  H8       1.0000 0.36260  0.28230  0.64180  Biso   1.000  H
  C11      1.0000 0.41370  0.87850  0.90650  Biso   1.000  C
  C12      1.0000 0.58630  0.12150  0.09350  Biso   1.000  C
  H9       1.0000 0.53560  0.88520  0.87580  Biso   1.000  H
  H10      1.0000 0.46440  0.11480  0.12420  Biso   1.000  H
  H11      1.0000 0.41150  0.78410  0.99390  Biso   1.000  H
  H12      1.0000 0.58850  0.21590  0.00610  Biso   1.000  H
  H13      1.0000 0.35170  0.99490  0.91620  Biso   1.000  H
  H14      1.0000 0.64830  0.00510  0.08380  Biso   1.000  H
  C13      1.0000 0.08310  0.86760  0.84840  Biso   1.000  C
  C14      1.0000 0.91690  0.13240  0.15160  Biso   1.000  C
  H15      1.0000 0.05200  0.99060  0.85450  Biso   1.000  H
  H16      1.0000 0.94800  0.00940  0.14550  Biso   1.000  H
  H17      1.0000 0.07150  0.78100  0.93840  Biso   1.000  H
  H18      1.0000 0.92850  0.21900  0.06160  Biso   1.000  H
  H19      1.0000 0.00430  0.85410  0.78750  Biso   1.000  H
  H20      1.0000 0.99570  0.14590  0.21250  Biso   1.000  H
  O9       1.0000 0.21720  0.31340  0.91830  Biso   1.000  O
  O10      1.0000 0.78280  0.68660  0.08170  Biso   1.000  O
  H21      1.0000 0.22300  0.37300  0.97900  Biso   1.000  H
  H22      1.0000 0.77700  0.62700  0.02100  Biso   1.000  H
  H23      1.0000 0.13800  0.39400  0.85700  Biso   1.000  H
  H24      1.0000 0.86200  0.60600  0.14300  Biso   1.000  H
