data_image0
_cell_length_a       20.144
_cell_length_b       16.6614
_cell_length_c       10.5603
_cell_angle_alpha    90
_cell_angle_beta     90
_cell_angle_gamma    90

_symmetry_space_group_name_H-M    "P 1"
_symmetry_int_tables_number       1

loop_
  _symmetry_equiv_pos_as_xyz
  'x, y, z'

loop_
  _atom_site_label
  _atom_site_occupancy
  _atom_site_fract_x
  _atom_site_fract_y
  _atom_site_fract_z
  _atom_site_thermal_displace_type
  _atom_site_B_iso_or_equiv
  _atom_site_type_symbol
  Cu1      1.0000 0.50000  0.00000  0.27981  Biso   1.000  Cu
  Cu2      1.0000 0.00000  0.50000  0.27981  Biso   1.000  Cu
  Cu3      1.0000 0.50000  0.50000  0.77981  Biso   1.000  Cu
  Cu4      1.0000 0.00000  0.00000  0.77981  Biso   1.000  Cu
  S1       1.0000 0.72774  0.00663  0.83790  Biso   1.000  S
  S2       1.0000 0.27226  0.99337  0.83790  Biso   1.000  S
  S3       1.0000 0.22774  0.49337  0.83790  Biso   1.000  S
  S4       1.0000 0.77226  0.50663  0.83790  Biso   1.000  S
  S5       1.0000 0.72774  0.50663  0.33790  Biso   1.000  S
  S6       1.0000 0.27226  0.49337  0.33790  Biso   1.000  S
  S7       1.0000 0.22774  0.99337  0.33790  Biso   1.000  S
  S8       1.0000 0.77226  0.00663  0.33790  Biso   1.000  S
  S9       1.0000 0.71291  0.10157  0.72170  Biso   1.000  S
  S10      1.0000 0.28709  0.89843  0.72170  Biso   1.000  S
  S11      1.0000 0.21291  0.39843  0.72170  Biso   1.000  S
  S12      1.0000 0.78709  0.60157  0.72170  Biso   1.000  S
  S13      1.0000 0.71291  0.60157  0.22170  Biso   1.000  S
  S14      1.0000 0.28709  0.39843  0.22170  Biso   1.000  S
  S15      1.0000 0.21291  0.89843  0.22170  Biso   1.000  S
  S16      1.0000 0.78709  0.10157  0.22170  Biso   1.000  S
  S17      1.0000 0.44080  0.21869  0.24506  Biso   1.000  S
  S18      1.0000 0.55920  0.78131  0.24506  Biso   1.000  S
  S19      1.0000 0.94080  0.28131  0.24506  Biso   1.000  S
  S20      1.0000 0.05920  0.71869  0.24506  Biso   1.000  S
  S21      1.0000 0.44080  0.71869  0.74506  Biso   1.000  S
  S22      1.0000 0.55920  0.28131  0.74506  Biso   1.000  S
  S23      1.0000 0.94080  0.78131  0.74506  Biso   1.000  S
  S24      1.0000 0.05920  0.21869  0.74506  Biso   1.000  S
  N1       1.0000 0.56990  0.01430  0.14650  Biso   1.000  N
  N2       1.0000 0.43010  0.98570  0.14650  Biso   1.000  N
  N3       1.0000 0.06990  0.48570  0.14650  Biso   1.000  N
  N4       1.0000 0.93010  0.51430  0.14650  Biso   1.000  N
  N5       1.0000 0.56990  0.51430  0.64650  Biso   1.000  N
  N6       1.0000 0.43010  0.48570  0.64650  Biso   1.000  N
  N7       1.0000 0.06990  0.98570  0.64650  Biso   1.000  N
  N8       1.0000 0.93010  0.01430  0.64650  Biso   1.000  N
  N9       1.0000 0.56790  0.02670  0.41460  Biso   1.000  N
  N10      1.0000 0.43210  0.97330  0.41460  Biso   1.000  N
  N11      1.0000 0.06790  0.47330  0.41460  Biso   1.000  N
  N12      1.0000 0.93210  0.52670  0.41460  Biso   1.000  N
  N13      1.0000 0.56790  0.52670  0.91460  Biso   1.000  N
  N14      1.0000 0.43210  0.47330  0.91460  Biso   1.000  N
  N15      1.0000 0.06790  0.97330  0.91460  Biso   1.000  N
  N16      1.0000 0.93210  0.02670  0.91460  Biso   1.000  N
  C1       1.0000 0.56310  0.05860  0.04110  Biso   1.000  C
  C2       1.0000 0.43690  0.94140  0.04110  Biso   1.000  C
  C3       1.0000 0.06310  0.44140  0.04110  Biso   1.000  C
  C4       1.0000 0.93690  0.55860  0.04110  Biso   1.000  C
  C5       1.0000 0.56310  0.55860  0.54110  Biso   1.000  C
  C6       1.0000 0.43690  0.44140  0.54110  Biso   1.000  C
  C7       1.0000 0.06310  0.94140  0.54110  Biso   1.000  C
  C8       1.0000 0.93690  0.05860  0.54110  Biso   1.000  C
  H1       1.0000 0.52490  0.08960  0.03310  Biso   1.000  H
  H2       1.0000 0.47510  0.91040  0.03310  Biso   1.000  H
  H3       1.0000 0.02490  0.41040  0.03310  Biso   1.000  H
  H4       1.0000 0.97510  0.58960  0.03310  Biso   1.000  H
  H5       1.0000 0.52490  0.58960  0.53310  Biso   1.000  H
  H6       1.0000 0.47510  0.41040  0.53310  Biso   1.000  H
  H7       1.0000 0.02490  0.91040  0.53310  Biso   1.000  H
  H8       1.0000 0.97510  0.08960  0.53310  Biso   1.000  H
  C9       1.0000 0.60870  0.06150  0.94380  Biso   1.000  C
  C10      1.0000 0.39130  0.93850  0.94380  Biso   1.000  C
  C11      1.0000 0.10870  0.43850  0.94380  Biso   1.000  C
  C12      1.0000 0.89130  0.56150  0.94380  Biso   1.000  C
  C13      1.0000 0.60870  0.56150  0.44380  Biso   1.000  C
  C14      1.0000 0.39130  0.43850  0.44380  Biso   1.000  C
  C15      1.0000 0.10870  0.93850  0.44380  Biso   1.000  C
  C16      1.0000 0.89130  0.06150  0.44380  Biso   1.000  C
  H9       1.0000 0.60200  0.09360  0.87290  Biso   1.000  H
  H10      1.0000 0.39800  0.90640  0.87290  Biso   1.000  H
  H11      1.0000 0.10200  0.40640  0.87290  Biso   1.000  H
  H12      1.0000 0.89800  0.59360  0.87290  Biso   1.000  H
  H13      1.0000 0.60200  0.59360  0.37290  Biso   1.000  H
  H14      1.0000 0.39800  0.40640  0.37290  Biso   1.000  H
  H15      1.0000 0.10200  0.90640  0.37290  Biso   1.000  H
  H16      1.0000 0.89800  0.09360  0.37290  Biso   1.000  H
  C17      1.0000 0.66460  0.01480  0.95630  Biso   1.000  C
  C18      1.0000 0.33540  0.98520  0.95630  Biso   1.000  C
  C19      1.0000 0.16460  0.48520  0.95630  Biso   1.000  C
  C20      1.0000 0.83540  0.51480  0.95630  Biso   1.000  C
  C21      1.0000 0.66460  0.51480  0.45630  Biso   1.000  C
  C22      1.0000 0.33540  0.48520  0.45630  Biso   1.000  C
  C23      1.0000 0.16460  0.98520  0.45630  Biso   1.000  C
  C24      1.0000 0.83540  0.01480  0.45630  Biso   1.000  C
  C25      1.0000 0.67380  0.97040  0.06260  Biso   1.000  C
  C26      1.0000 0.32620  0.02960  0.06260  Biso   1.000  C
  C27      1.0000 0.17380  0.52960  0.06260  Biso   1.000  C
  C28      1.0000 0.82620  0.47040  0.06260  Biso   1.000  C
  C29      1.0000 0.67380  0.47040  0.56260  Biso   1.000  C
  C30      1.0000 0.32620  0.52960  0.56260  Biso   1.000  C
  C31      1.0000 0.17380  0.02960  0.56260  Biso   1.000  C
  C32      1.0000 0.82620  0.97040  0.56260  Biso   1.000  C
  H17      1.0000 0.71230  0.94020  0.07260  Biso   1.000  H
  H18      1.0000 0.28770  0.05980  0.07260  Biso   1.000  H
  H19      1.0000 0.21230  0.55980  0.07260  Biso   1.000  H
  H20      1.0000 0.78770  0.44020  0.07260  Biso   1.000  H
  H21      1.0000 0.71230  0.44020  0.57260  Biso   1.000  H
  H22      1.0000 0.28770  0.55980  0.57260  Biso   1.000  H
  H23      1.0000 0.21230  0.05980  0.57260  Biso   1.000  H
  H24      1.0000 0.78770  0.94020  0.57260  Biso   1.000  H
  C33      1.0000 0.62580  0.97040  0.15540  Biso   1.000  C
  C34      1.0000 0.37420  0.02960  0.15540  Biso   1.000  C
  C35      1.0000 0.12580  0.52960  0.15540  Biso   1.000  C
  C36      1.0000 0.87420  0.47040  0.15540  Biso   1.000  C
  C37      1.0000 0.62580  0.47040  0.65540  Biso   1.000  C
  C38      1.0000 0.37420  0.52960  0.65540  Biso   1.000  C
  C39      1.0000 0.12580  0.02960  0.65540  Biso   1.000  C
  C40      1.0000 0.87420  0.97040  0.65540  Biso   1.000  C
  H25      1.0000 0.63230  0.93890  0.22700  Biso   1.000  H
  H26      1.0000 0.36770  0.06110  0.22700  Biso   1.000  H
  H27      1.0000 0.13230  0.56110  0.22700  Biso   1.000  H
  H28      1.0000 0.86770  0.43890  0.22700  Biso   1.000  H
  H29      1.0000 0.63230  0.43890  0.72700  Biso   1.000  H
  H30      1.0000 0.36770  0.56110  0.72700  Biso   1.000  H
  H31      1.0000 0.13230  0.06110  0.72700  Biso   1.000  H
  H32      1.0000 0.86770  0.93890  0.72700  Biso   1.000  H
  C41      1.0000 0.65600  0.06660  0.60670  Biso   1.000  C
  C42      1.0000 0.34400  0.93340  0.60670  Biso   1.000  C
  C43      1.0000 0.15600  0.43340  0.60670  Biso   1.000  C
  C44      1.0000 0.84400  0.56660  0.60670  Biso   1.000  C
  C45      1.0000 0.65600  0.56660  0.10670  Biso   1.000  C
  C46      1.0000 0.34400  0.43340  0.10670  Biso   1.000  C
  C47      1.0000 0.15600  0.93340  0.10670  Biso   1.000  C
  C48      1.0000 0.84400  0.06660  0.10670  Biso   1.000  C
  C49      1.0000 0.62380  0.99330  0.60670  Biso   1.000  C
  C50      1.0000 0.37620  0.00670  0.60670  Biso   1.000  C
  C51      1.0000 0.12380  0.50670  0.60670  Biso   1.000  C
  C52      1.0000 0.87620  0.49330  0.60670  Biso   1.000  C
  C53      1.0000 0.62380  0.49330  0.10670  Biso   1.000  C
  C54      1.0000 0.37620  0.50670  0.10670  Biso   1.000  C
  C55      1.0000 0.12380  0.00670  0.10670  Biso   1.000  C
  C56      1.0000 0.87620  0.99330  0.10670  Biso   1.000  C
  H33      1.0000 0.63200  0.95590  0.67020  Biso   1.000  H
  H34      1.0000 0.36800  0.04410  0.67020  Biso   1.000  H
  H35      1.0000 0.13200  0.54410  0.67020  Biso   1.000  H
  H36      1.0000 0.86800  0.45590  0.67020  Biso   1.000  H
  H37      1.0000 0.63200  0.45590  0.17020  Biso   1.000  H
  H38      1.0000 0.36800  0.54410  0.17020  Biso   1.000  H
  H39      1.0000 0.13200  0.04410  0.17020  Biso   1.000  H
  H40      1.0000 0.86800  0.95590  0.17020  Biso   1.000  H
  C57      1.0000 0.58000  0.97670  0.51220  Biso   1.000  C
  C58      1.0000 0.42000  0.02330  0.51220  Biso   1.000  C
  C59      1.0000 0.08000  0.52330  0.51220  Biso   1.000  C
  C60      1.0000 0.92000  0.47670  0.51220  Biso   1.000  C
  C61      1.0000 0.58000  0.47670  0.01220  Biso   1.000  C
  C62      1.0000 0.42000  0.52330  0.01220  Biso   1.000  C
  C63      1.0000 0.08000  0.02330  0.01220  Biso   1.000  C
  C64      1.0000 0.92000  0.97670  0.01220  Biso   1.000  C
  H41      1.0000 0.55710  0.92820  0.51520  Biso   1.000  H
  H42      1.0000 0.44290  0.07180  0.51520  Biso   1.000  H
  H43      1.0000 0.05710  0.57180  0.51520  Biso   1.000  H
  H44      1.0000 0.94290  0.42820  0.51520  Biso   1.000  H
  H45      1.0000 0.55710  0.42820  0.01520  Biso   1.000  H
  H46      1.0000 0.44290  0.57180  0.01520  Biso   1.000  H
  H47      1.0000 0.05710  0.07180  0.01520  Biso   1.000  H
  H48      1.0000 0.94290  0.92820  0.01520  Biso   1.000  H
  C65      1.0000 0.59940  0.09670  0.41340  Biso   1.000  C
  C66      1.0000 0.40060  0.90330  0.41340  Biso   1.000  C
  C67      1.0000 0.09940  0.40330  0.41340  Biso   1.000  C
  C68      1.0000 0.90060  0.59670  0.41340  Biso   1.000  C
  C69      1.0000 0.59940  0.59670  0.91340  Biso   1.000  C
  C70      1.0000 0.40060  0.40330  0.91340  Biso   1.000  C
  C71      1.0000 0.09940  0.90330  0.91340  Biso   1.000  C
  C72      1.0000 0.90060  0.09670  0.91340  Biso   1.000  C
  H49      1.0000 0.59120  0.13190  0.34690  Biso   1.000  H
  H50      1.0000 0.40880  0.86810  0.34690  Biso   1.000  H
  H51      1.0000 0.09120  0.36810  0.34690  Biso   1.000  H
  H52      1.0000 0.90880  0.63190  0.34690  Biso   1.000  H
  H53      1.0000 0.59120  0.63190  0.84690  Biso   1.000  H
  H54      1.0000 0.40880  0.36810  0.84690  Biso   1.000  H
  H55      1.0000 0.09120  0.86810  0.84690  Biso   1.000  H
  H56      1.0000 0.90880  0.13190  0.84690  Biso   1.000  H
  C73      1.0000 0.64350  0.11950  0.50580  Biso   1.000  C
  C74      1.0000 0.35650  0.88050  0.50580  Biso   1.000  C
  C75      1.0000 0.14350  0.38050  0.50580  Biso   1.000  C
  C76      1.0000 0.85650  0.61950  0.50580  Biso   1.000  C
  C77      1.0000 0.64350  0.61950  0.00580  Biso   1.000  C
  C78      1.0000 0.35650  0.38050  0.00580  Biso   1.000  C
  C79      1.0000 0.14350  0.88050  0.00580  Biso   1.000  C
  C80      1.0000 0.85650  0.11950  0.00580  Biso   1.000  C
  H57      1.0000 0.66470  0.16900  0.50170  Biso   1.000  H
  H58      1.0000 0.33530  0.83100  0.50170  Biso   1.000  H
  H59      1.0000 0.16470  0.33100  0.50170  Biso   1.000  H
  H60      1.0000 0.83530  0.66900  0.50170  Biso   1.000  H
  H61      1.0000 0.66470  0.66900  0.00170  Biso   1.000  H
  H62      1.0000 0.33530  0.33100  0.00170  Biso   1.000  H
  H63      1.0000 0.16470  0.83100  0.00170  Biso   1.000  H
  H64      1.0000 0.83530  0.16900  0.00170  Biso   1.000  H
  O1       1.0000 0.47677  0.29320  0.25970  Biso   1.000  O
  O2       1.0000 0.52323  0.70680  0.25970  Biso   1.000  O
  O3       1.0000 0.97677  0.20680  0.25970  Biso   1.000  O
  O4       1.0000 0.02323  0.79320  0.25970  Biso   1.000  O
  O5       1.0000 0.47677  0.79320  0.75970  Biso   1.000  O
  O6       1.0000 0.52323  0.20680  0.75970  Biso   1.000  O
  O7       1.0000 0.97677  0.70680  0.75970  Biso   1.000  O
  O8       1.0000 0.02323  0.29320  0.75970  Biso   1.000  O
  O9       1.0000 0.47906  0.14723  0.27260  Biso   1.000  O
  O10      1.0000 0.52094  0.85277  0.27260  Biso   1.000  O
  O11      1.0000 0.97906  0.35277  0.27260  Biso   1.000  O
  O12      1.0000 0.02094  0.64723  0.27260  Biso   1.000  O
  O13      1.0000 0.47906  0.64723  0.77260  Biso   1.000  O
  O14      1.0000 0.52094  0.35277  0.77260  Biso   1.000  O
  O15      1.0000 0.97906  0.85277  0.77260  Biso   1.000  O
  O16      1.0000 0.02094  0.14723  0.77260  Biso   1.000  O
  O17      1.0000 0.40600  0.21390  0.12620  Biso   1.000  O
  O18      1.0000 0.59400  0.78610  0.12620  Biso   1.000  O
  O19      1.0000 0.90600  0.28610  0.12620  Biso   1.000  O
  O20      1.0000 0.09400  0.71390  0.12620  Biso   1.000  O
  O21      1.0000 0.40600  0.71390  0.62620  Biso   1.000  O
  O22      1.0000 0.59400  0.28610  0.62620  Biso   1.000  O
  O23      1.0000 0.90600  0.78610  0.62620  Biso   1.000  O
  O24      1.0000 0.09400  0.21390  0.62620  Biso   1.000  O
  C81      1.0000 0.37930  0.21800  0.36340  Biso   1.000  C
  C82      1.0000 0.62070  0.78200  0.36340  Biso   1.000  C
  C83      1.0000 0.87930  0.28200  0.36340  Biso   1.000  C
  C84      1.0000 0.12070  0.71800  0.36340  Biso   1.000  C
  C85      1.0000 0.37930  0.71800  0.86340  Biso   1.000  C
  C86      1.0000 0.62070  0.28200  0.86340  Biso   1.000  C
  C87      1.0000 0.87930  0.78200  0.86340  Biso   1.000  C
  C88      1.0000 0.12070  0.21800  0.86340  Biso   1.000  C
  C89      1.0000 0.31270  0.20620  0.33490  Biso   1.000  C
  C90      1.0000 0.68730  0.79380  0.33490  Biso   1.000  C
  C91      1.0000 0.81270  0.29380  0.33490  Biso   1.000  C
  C92      1.0000 0.18730  0.70620  0.33490  Biso   1.000  C
  C93      1.0000 0.31270  0.70620  0.83490  Biso   1.000  C
  C94      1.0000 0.68730  0.29380  0.83490  Biso   1.000  C
  C95      1.0000 0.81270  0.79380  0.83490  Biso   1.000  C
  C96      1.0000 0.18730  0.20620  0.83490  Biso   1.000  C
  H65      1.0000 0.29970  0.19960  0.25100  Biso   1.000  H
  H66      1.0000 0.70030  0.80040  0.25100  Biso   1.000  H
  H67      1.0000 0.79970  0.30040  0.25100  Biso   1.000  H
  H68      1.0000 0.20030  0.69960  0.25100  Biso   1.000  H
  H69      1.0000 0.29970  0.69960  0.75100  Biso   1.000  H
  H70      1.0000 0.70030  0.30040  0.75100  Biso   1.000  H
  H71      1.0000 0.79970  0.80040  0.75100  Biso   1.000  H
  H72      1.0000 0.20030  0.19960  0.75100  Biso   1.000  H
  C97      1.0000 0.26580  0.20420  0.42910  Biso   1.000  C
  C98      1.0000 0.73420  0.79580  0.42910  Biso   1.000  C
  C99      1.0000 0.76580  0.29580  0.42910  Biso   1.000  C
  C100     1.0000 0.23420  0.70420  0.42910  Biso   1.000  C
  C101     1.0000 0.26580  0.70420  0.92910  Biso   1.000  C
  C102     1.0000 0.73420  0.29580  0.92910  Biso   1.000  C
  C103     1.0000 0.76580  0.79580  0.92910  Biso   1.000  C
  C104     1.0000 0.23420  0.20420  0.92910  Biso   1.000  C
  H73      1.0000 0.22160  0.19550  0.40720  Biso   1.000  H
  H74      1.0000 0.77840  0.80450  0.40720  Biso   1.000  H
  H75      1.0000 0.72160  0.30450  0.40720  Biso   1.000  H
  H76      1.0000 0.27840  0.69550  0.40720  Biso   1.000  H
  H77      1.0000 0.22160  0.69550  0.90720  Biso   1.000  H
  H78      1.0000 0.77840  0.30450  0.90720  Biso   1.000  H
  H79      1.0000 0.72160  0.80450  0.90720  Biso   1.000  H
  H80      1.0000 0.27840  0.19550  0.90720  Biso   1.000  H
  N17      1.0000 0.28090  0.21420  0.54950  Biso   1.000  N
  N18      1.0000 0.71910  0.78580  0.54950  Biso   1.000  N
  N19      1.0000 0.78090  0.28580  0.54950  Biso   1.000  N
  N20      1.0000 0.21910  0.71420  0.54950  Biso   1.000  N
  N21      1.0000 0.28090  0.71420  0.04950  Biso   1.000  N
  N22      1.0000 0.71910  0.28580  0.04950  Biso   1.000  N
  N23      1.0000 0.78090  0.78580  0.04950  Biso   1.000  N
  N24      1.0000 0.21910  0.21420  0.04950  Biso   1.000  N
  C105     1.0000 0.34450  0.22650  0.57830  Biso   1.000  C
  C106     1.0000 0.65550  0.77350  0.57830  Biso   1.000  C
  C107     1.0000 0.84450  0.27350  0.57830  Biso   1.000  C
  C108     1.0000 0.15550  0.72650  0.57830  Biso   1.000  C
  C109     1.0000 0.34450  0.72650  0.07830  Biso   1.000  C
  C110     1.0000 0.65550  0.27350  0.07830  Biso   1.000  C
  C111     1.0000 0.84450  0.77350  0.07830  Biso   1.000  C
  C112     1.0000 0.15550  0.22650  0.07830  Biso   1.000  C
  H81      1.0000 0.35560  0.23350  0.66310  Biso   1.000  H
  H82      1.0000 0.64440  0.76650  0.66310  Biso   1.000  H
  H83      1.0000 0.85560  0.26650  0.66310  Biso   1.000  H
  H84      1.0000 0.14440  0.73350  0.66310  Biso   1.000  H
  H85      1.0000 0.35560  0.73350  0.16310  Biso   1.000  H
  H86      1.0000 0.64440  0.26650  0.16310  Biso   1.000  H
  H87      1.0000 0.85560  0.76650  0.16310  Biso   1.000  H
  H88      1.0000 0.14440  0.23350  0.16310  Biso   1.000  H
  C113     1.0000 0.39560  0.22960  0.48860  Biso   1.000  C
  C114     1.0000 0.60440  0.77040  0.48860  Biso   1.000  C
  C115     1.0000 0.89560  0.27040  0.48860  Biso   1.000  C
  C116     1.0000 0.10440  0.72960  0.48860  Biso   1.000  C
  C117     1.0000 0.39560  0.72960  0.98860  Biso   1.000  C
  C118     1.0000 0.60440  0.27040  0.98860  Biso   1.000  C
  C119     1.0000 0.89560  0.77040  0.98860  Biso   1.000  C
  C120     1.0000 0.10440  0.22960  0.98860  Biso   1.000  C
  H89      1.0000 0.43920  0.23910  0.51290  Biso   1.000  H
  H90      1.0000 0.56080  0.76090  0.51290  Biso   1.000  H
  H91      1.0000 0.93920  0.26090  0.51290  Biso   1.000  H
  H92      1.0000 0.06080  0.73910  0.51290  Biso   1.000  H
  H93      1.0000 0.43920  0.73910  0.01290  Biso   1.000  H
  H94      1.0000 0.56080  0.26090  0.01290  Biso   1.000  H
  H95      1.0000 0.93920  0.76090  0.01290  Biso   1.000  H
  H96      1.0000 0.06080  0.23910  0.01290  Biso   1.000  H
  O25      1.0000 0.40500  0.16480  0.87040  Biso   1.000  O
  O26      1.0000 0.59500  0.83520  0.87040  Biso   1.000  O
  O27      1.0000 0.90500  0.33520  0.87040  Biso   1.000  O
  O28      1.0000 0.09500  0.66480  0.87040  Biso   1.000  O
  O29      1.0000 0.40500  0.66480  0.37040  Biso   1.000  O
  O30      1.0000 0.59500  0.33520  0.37040  Biso   1.000  O
  O31      1.0000 0.90500  0.83520  0.37040  Biso   1.000  O
  O32      1.0000 0.09500  0.16480  0.37040  Biso   1.000  O
