data_image0
_cell_length_a       12.71
_cell_length_b       6.98
_cell_length_c       23.624
_cell_angle_alpha    90
_cell_angle_beta     118.5
_cell_angle_gamma    90

_symmetry_space_group_name_H-M    "P 1"
_symmetry_int_tables_number       1

loop_
  _symmetry_equiv_pos_as_xyz
  'x, y, z'

loop_
  _atom_site_label
  _atom_site_occupancy
  _atom_site_fract_x
  _atom_site_fract_y
  _atom_site_fract_z
  _atom_site_thermal_displace_type
  _atom_site_B_iso_or_equiv
  _atom_site_type_symbol
  Cu1      1.0000 0.43216  0.15176  0.98126  Biso   1.000  Cu
  Cu2      1.0000 0.56784  0.15176  0.51874  Biso   1.000  Cu
  Cu3      1.0000 0.56784  0.84824  0.01874  Biso   1.000  Cu
  Cu4      1.0000 0.43216  0.84824  0.48126  Biso   1.000  Cu
  F1       1.0000 0.92810  0.41360  0.68148  Biso   1.000  F
  F2       1.0000 0.07190  0.41360  0.81852  Biso   1.000  F
  F3       1.0000 0.07190  0.58640  0.31852  Biso   1.000  F
  F4       1.0000 0.92810  0.58640  0.18148  Biso   1.000  F
  F5       1.0000 0.05530  0.19030  0.69739  Biso   1.000  F
  F6       1.0000 0.94470  0.19030  0.80261  Biso   1.000  F
  F7       1.0000 0.94470  0.80970  0.30261  Biso   1.000  F
  F8       1.0000 0.05530  0.80970  0.19739  Biso   1.000  F
  F9       1.0000 0.90869  0.23800  0.60274  Biso   1.000  F
  F10      1.0000 0.09131  0.23800  0.89726  Biso   1.000  F
  F11      1.0000 0.09131  0.76200  0.39726  Biso   1.000  F
  F12      1.0000 0.90869  0.76200  0.10274  Biso   1.000  F
  F13      1.0000 0.93070  0.51400  0.53291  Biso   1.000  F
  F14      1.0000 0.06930  0.51400  0.96709  Biso   1.000  F
  F15      1.0000 0.06930  0.48600  0.46709  Biso   1.000  F
  F16      1.0000 0.93070  0.48600  0.03291  Biso   1.000  F
  F17      1.0000 0.89838  0.68610  0.59786  Biso   1.000  F
  F18      1.0000 0.10162  0.68610  0.90214  Biso   1.000  F
  F19      1.0000 0.10162  0.31390  0.40214  Biso   1.000  F
  F20      1.0000 0.89838  0.31390  0.09786  Biso   1.000  F
  F21      1.0000 0.04620  0.75150  0.58111  Biso   1.000  F
  F22      1.0000 0.95380  0.75150  0.91889  Biso   1.000  F
  F23      1.0000 0.95380  0.24850  0.41889  Biso   1.000  F
  F24      1.0000 0.04620  0.24850  0.08111  Biso   1.000  F
  O1       1.0000 0.33840  0.01260  0.90005  Biso   1.000  O
  O2       1.0000 0.66160  0.01260  0.59995  Biso   1.000  O
  O3       1.0000 0.66160  0.98740  0.09995  Biso   1.000  O
  O4       1.0000 0.33840  0.98740  0.40005  Biso   1.000  O
  O5       1.0000 0.33520  0.41700  0.95884  Biso   1.000  O
  O6       1.0000 0.66480  0.41700  0.54116  Biso   1.000  O
  O7       1.0000 0.66480  0.58300  0.04116  Biso   1.000  O
  O8       1.0000 0.33520  0.58300  0.45884  Biso   1.000  O
  O9       1.0000 0.45150  0.74980  0.93315  Biso   1.000  O
  O10      1.0000 0.54850  0.74980  0.56685  Biso   1.000  O
  O11      1.0000 0.54850  0.25020  0.06685  Biso   1.000  O
  O12      1.0000 0.45150  0.25020  0.43315  Biso   1.000  O
  O13      1.0000 0.34570  0.97510  0.52028  Biso   1.000  O
  O14      1.0000 0.65430  0.97510  0.97972  Biso   1.000  O
  O15      1.0000 0.65430  0.02490  0.47972  Biso   1.000  O
  O16      1.0000 0.34570  0.02490  0.02028  Biso   1.000  O
  O17      1.0000 0.45880  0.23970  0.55053  Biso   1.000  O
  O18      1.0000 0.54120  0.23970  0.94947  Biso   1.000  O
  O19      1.0000 0.54120  0.76030  0.44947  Biso   1.000  O
  O20      1.0000 0.45880  0.76030  0.05053  Biso   1.000  O
  C1       1.0000 0.36530  0.84550  0.89181  Biso   1.000  C
  C2       1.0000 0.63470  0.84550  0.60819  Biso   1.000  C
  C3       1.0000 0.63470  0.15450  0.10819  Biso   1.000  C
  C4       1.0000 0.36530  0.15450  0.39181  Biso   1.000  C
  C5       1.0000 0.28830  0.75090  0.82809  Biso   1.000  C
  C6       1.0000 0.71170  0.75090  0.67191  Biso   1.000  C
  C7       1.0000 0.71170  0.24910  0.17191  Biso   1.000  C
  C8       1.0000 0.28830  0.24910  0.32809  Biso   1.000  C
  C9       1.0000 0.18660  0.84200  0.78175  Biso   1.000  C
  C10      1.0000 0.81340  0.84200  0.71825  Biso   1.000  C
  C11      1.0000 0.81340  0.15800  0.21825  Biso   1.000  C
  C12      1.0000 0.18660  0.15800  0.28175  Biso   1.000  C
  H1       1.0000 0.16560  0.96190  0.79040  Biso   1.000  H
  H2       1.0000 0.83440  0.96190  0.70960  Biso   1.000  H
  H3       1.0000 0.83440  0.03810  0.20960  Biso   1.000  H
  H4       1.0000 0.16560  0.03810  0.29040  Biso   1.000  H
  C13      1.0000 0.11580  0.75590  0.72256  Biso   1.000  C
  C14      1.0000 0.88420  0.75590  0.77744  Biso   1.000  C
  C15      1.0000 0.88420  0.24410  0.27744  Biso   1.000  C
  C16      1.0000 0.11580  0.24410  0.22256  Biso   1.000  C
  H5       1.0000 0.04770  0.81840  0.69200  Biso   1.000  H
  H6       1.0000 0.95230  0.81840  0.80800  Biso   1.000  H
  H7       1.0000 0.95230  0.18160  0.30800  Biso   1.000  H
  H8       1.0000 0.04770  0.18160  0.19200  Biso   1.000  H
  C17      1.0000 0.31680  0.56980  0.81481  Biso   1.000  C
  C18      1.0000 0.68320  0.56980  0.68519  Biso   1.000  C
  C19      1.0000 0.68320  0.43020  0.18519  Biso   1.000  C
  C20      1.0000 0.31680  0.43020  0.31481  Biso   1.000  C
  H9       1.0000 0.38330  0.50550  0.84600  Biso   1.000  H
  H10      1.0000 0.61670  0.50550  0.65400  Biso   1.000  H
  H11      1.0000 0.61670  0.49450  0.15400  Biso   1.000  H
  H12      1.0000 0.38330  0.49450  0.34600  Biso   1.000  H
  C21      1.0000 0.24690  0.48380  0.75553  Biso   1.000  C
  C22      1.0000 0.75310  0.48380  0.74447  Biso   1.000  C
  C23      1.0000 0.75310  0.51620  0.24447  Biso   1.000  C
  C24      1.0000 0.24690  0.51620  0.25553  Biso   1.000  C
  H13      1.0000 0.26760  0.36350  0.74700  Biso   1.000  H
  H14      1.0000 0.73240  0.36350  0.75300  Biso   1.000  H
  H15      1.0000 0.73240  0.63650  0.25300  Biso   1.000  H
  H16      1.0000 0.26760  0.63650  0.24700  Biso   1.000  H
  C25      1.0000 0.14580  0.57700  0.70847  Biso   1.000  C
  C26      1.0000 0.85420  0.57700  0.79153  Biso   1.000  C
  C27      1.0000 0.85420  0.42300  0.29153  Biso   1.000  C
  C28      1.0000 0.14580  0.42300  0.20847  Biso   1.000  C
  C29      1.0000 0.06950  0.47210  0.64388  Biso   1.000  C
  C30      1.0000 0.93050  0.47210  0.85612  Biso   1.000  C
  C31      1.0000 0.93050  0.52790  0.35612  Biso   1.000  C
  C32      1.0000 0.06950  0.52790  0.14388  Biso   1.000  C
  C33      1.0000 0.98950  0.32730  0.65630  Biso   1.000  C
  C34      1.0000 0.01050  0.32730  0.84370  Biso   1.000  C
  C35      1.0000 0.01050  0.67270  0.34370  Biso   1.000  C
  C36      1.0000 0.98950  0.67270  0.15630  Biso   1.000  C
  C37      1.0000 0.98560  0.60570  0.58899  Biso   1.000  C
  C38      1.0000 0.01440  0.60570  0.91101  Biso   1.000  C
  C39      1.0000 0.01440  0.39430  0.41101  Biso   1.000  C
  C40      1.0000 0.98560  0.39430  0.08899  Biso   1.000  C
  C41      1.0000 0.14990  0.37370  0.62005  Biso   1.000  C
  C42      1.0000 0.85010  0.37370  0.87995  Biso   1.000  C
  C43      1.0000 0.85010  0.62630  0.37995  Biso   1.000  C
  C44      1.0000 0.14990  0.62630  0.12005  Biso   1.000  C
  C45      1.0000 0.12960  0.19000  0.59360  Biso   1.000  C
  C46      1.0000 0.87040  0.19000  0.90640  Biso   1.000  C
  C47      1.0000 0.87040  0.81000  0.40640  Biso   1.000  C
  C48      1.0000 0.12960  0.81000  0.09360  Biso   1.000  C
  H17      1.0000 0.06650  0.11760  0.59170  Biso   1.000  H
  H18      1.0000 0.93350  0.11760  0.90830  Biso   1.000  H
  H19      1.0000 0.93350  0.88240  0.40830  Biso   1.000  H
  H20      1.0000 0.06650  0.88240  0.09170  Biso   1.000  H
  C49      1.0000 0.20190  0.11410  0.57030  Biso   1.000  C
  C50      1.0000 0.79810  0.11410  0.92970  Biso   1.000  C
  C51      1.0000 0.79810  0.88590  0.42970  Biso   1.000  C
  C52      1.0000 0.20190  0.88590  0.07030  Biso   1.000  C
  H21      1.0000 0.18650  0.99190  0.55240  Biso   1.000  H
  H22      1.0000 0.81350  0.99190  0.94760  Biso   1.000  H
  H23      1.0000 0.81350  0.00810  0.44760  Biso   1.000  H
  H24      1.0000 0.18650  0.00810  0.05240  Biso   1.000  H
  C53      1.0000 0.24620  0.47700  0.62282  Biso   1.000  C
  C54      1.0000 0.75380  0.47700  0.87718  Biso   1.000  C
  C55      1.0000 0.75380  0.52300  0.37718  Biso   1.000  C
  C56      1.0000 0.24620  0.52300  0.12282  Biso   1.000  C
  H25      1.0000 0.26170  0.59940  0.64060  Biso   1.000  H
  H26      1.0000 0.73830  0.59940  0.85940  Biso   1.000  H
  H27      1.0000 0.73830  0.40060  0.35940  Biso   1.000  H
  H28      1.0000 0.26170  0.40060  0.14060  Biso   1.000  H
  C57      1.0000 0.31900  0.40200  0.59987  Biso   1.000  C
  C58      1.0000 0.68100  0.40200  0.90013  Biso   1.000  C
  C59      1.0000 0.68100  0.59800  0.40013  Biso   1.000  C
  C60      1.0000 0.31900  0.59800  0.09987  Biso   1.000  C
  H29      1.0000 0.38270  0.47390  0.60230  Biso   1.000  H
  H30      1.0000 0.61730  0.47390  0.89770  Biso   1.000  H
  H31      1.0000 0.61730  0.52610  0.39770  Biso   1.000  H
  H32      1.0000 0.38270  0.52610  0.10230  Biso   1.000  H
  C61      1.0000 0.29810  0.21990  0.57327  Biso   1.000  C
  C62      1.0000 0.70190  0.21990  0.92673  Biso   1.000  C
  C63      1.0000 0.70190  0.78010  0.42673  Biso   1.000  C
  C64      1.0000 0.29810  0.78010  0.07327  Biso   1.000  C
  C65      1.0000 0.37250  0.13830  0.54567  Biso   1.000  C
  C66      1.0000 0.62750  0.13830  0.95433  Biso   1.000  C
  C67      1.0000 0.62750  0.86170  0.45433  Biso   1.000  C
  C68      1.0000 0.37250  0.86170  0.04567  Biso   1.000  C
  H33      1.0000 0.37800  0.51600  0.97000  Biso   1.000  H
  H34      1.0000 0.62200  0.51600  0.53000  Biso   1.000  H
  H35      1.0000 0.62200  0.48400  0.03000  Biso   1.000  H
  H36      1.0000 0.37800  0.48400  0.47000  Biso   1.000  H
  H37      1.0000 0.30100  0.41100  0.98120  Biso   1.000  H
  H38      1.0000 0.69900  0.41100  0.51880  Biso   1.000  H
  H39      1.0000 0.69900  0.58900  0.01880  Biso   1.000  H
  H40      1.0000 0.30100  0.58900  0.48120  Biso   1.000  H
