data_image0
_cell_length_a       12.6969
_cell_length_b       6.9692
_cell_length_c       23.6089
_cell_angle_alpha    90
_cell_angle_beta     118.499
_cell_angle_gamma    90

_symmetry_space_group_name_H-M    "P 1"
_symmetry_int_tables_number       1

loop_
  _symmetry_equiv_pos_as_xyz
  'x, y, z'

loop_
  _atom_site_label
  _atom_site_occupancy
  _atom_site_fract_x
  _atom_site_fract_y
  _atom_site_fract_z
  _atom_site_thermal_displace_type
  _atom_site_B_iso_or_equiv
  _atom_site_type_symbol
  Cu1      1.0000 0.06785  0.15180  0.01874  Biso   1.000  Cu
  Cu2      1.0000 0.93215  0.15180  0.48126  Biso   1.000  Cu
  Cu3      1.0000 0.93215  0.84820  0.98126  Biso   1.000  Cu
  Cu4      1.0000 0.06785  0.84820  0.51874  Biso   1.000  Cu
  O1       1.0000 0.16103  0.01250  0.09970  Biso   1.000  O
  O2       1.0000 0.83897  0.01250  0.40030  Biso   1.000  O
  O3       1.0000 0.83897  0.98750  0.90030  Biso   1.000  O
  O4       1.0000 0.16103  0.98750  0.59970  Biso   1.000  O
  O5       1.0000 0.04847  0.74970  0.06694  Biso   1.000  O
  O6       1.0000 0.95153  0.74970  0.43306  Biso   1.000  O
  O7       1.0000 0.95153  0.25030  0.93306  Biso   1.000  O
  O8       1.0000 0.04847  0.25030  0.56694  Biso   1.000  O
  O9       1.0000 0.04140  0.23970  0.44950  Biso   1.000  O
  O10      1.0000 0.95860  0.23970  0.05050  Biso   1.000  O
  O11      1.0000 0.95860  0.76030  0.55050  Biso   1.000  O
  O12      1.0000 0.04140  0.76030  0.94950  Biso   1.000  O
  O13      1.0000 0.15412  0.97600  0.47969  Biso   1.000  O
  O14      1.0000 0.84588  0.97600  0.02031  Biso   1.000  O
  O15      1.0000 0.84588  0.02400  0.52031  Biso   1.000  O
  O16      1.0000 0.15412  0.02400  0.97969  Biso   1.000  O
  O17      1.0000 0.16393  0.41750  0.03996  Biso   1.000  O
  O18      1.0000 0.83607  0.41750  0.46004  Biso   1.000  O
  O19      1.0000 0.83607  0.58250  0.96004  Biso   1.000  O
  O20      1.0000 0.16393  0.58250  0.53996  Biso   1.000  O
  H1       1.0000 0.12800  0.52330  0.03640  Biso   1.000  H
  H2       1.0000 0.87200  0.52330  0.46360  Biso   1.000  H
  H3       1.0000 0.87200  0.47670  0.96360  Biso   1.000  H
  H4       1.0000 0.12800  0.47670  0.53640  Biso   1.000  H
  H5       1.0000 0.23950  0.41660  0.06360  Biso   1.000  H
  H6       1.0000 0.76050  0.41660  0.43640  Biso   1.000  H
  H7       1.0000 0.76050  0.58340  0.93640  Biso   1.000  H
  H8       1.0000 0.23950  0.58340  0.56360  Biso   1.000  H
  F1       1.0000 0.59104  0.23840  0.39715  Biso   1.000  F
  F2       1.0000 0.40896  0.23840  0.10285  Biso   1.000  F
  F3       1.0000 0.40896  0.76160  0.60285  Biso   1.000  F
  F4       1.0000 0.59104  0.76160  0.89715  Biso   1.000  F
  F5       1.0000 0.57178  0.41420  0.31866  Biso   1.000  F
  F6       1.0000 0.42822  0.41420  0.18134  Biso   1.000  F
  F7       1.0000 0.42822  0.58580  0.68134  Biso   1.000  F
  F8       1.0000 0.57178  0.58580  0.81866  Biso   1.000  F
  F9       1.0000 0.44432  0.19159  0.30255  Biso   1.000  F
  F10      1.0000 0.55568  0.19159  0.19745  Biso   1.000  F
  F11      1.0000 0.55568  0.80841  0.69745  Biso   1.000  F
  F12      1.0000 0.44432  0.80841  0.80255  Biso   1.000  F
  F13      1.0000 0.56904  0.51380  0.46703  Biso   1.000  F
  F14      1.0000 0.43096  0.51380  0.03297  Biso   1.000  F
  F15      1.0000 0.43096  0.48620  0.53297  Biso   1.000  F
  F16      1.0000 0.56904  0.48620  0.96703  Biso   1.000  F
  F17      1.0000 0.60134  0.68550  0.40197  Biso   1.000  F
  F18      1.0000 0.39866  0.68550  0.09803  Biso   1.000  F
  F19      1.0000 0.39866  0.31450  0.59803  Biso   1.000  F
  F20      1.0000 0.60134  0.31450  0.90197  Biso   1.000  F
  F21      1.0000 0.45336  0.75100  0.41869  Biso   1.000  F
  F22      1.0000 0.54664  0.75100  0.08131  Biso   1.000  F
  F23      1.0000 0.54664  0.24900  0.58131  Biso   1.000  F
  F24      1.0000 0.45336  0.24900  0.91869  Biso   1.000  F
  C1       1.0000 0.35419  0.57760  0.29146  Biso   1.000  C
  C2       1.0000 0.64581  0.57760  0.20854  Biso   1.000  C
  C3       1.0000 0.64581  0.42240  0.70854  Biso   1.000  C
  C4       1.0000 0.35419  0.42240  0.79146  Biso   1.000  C
  C5       1.0000 0.38370  0.75620  0.27737  Biso   1.000  C
  C6       1.0000 0.61630  0.75620  0.22263  Biso   1.000  C
  C7       1.0000 0.61630  0.24380  0.72263  Biso   1.000  C
  C8       1.0000 0.38370  0.24380  0.77737  Biso   1.000  C
  H9       1.0000 0.45180  0.81890  0.30800  Biso   1.000  H
  H10      1.0000 0.54820  0.81890  0.19200  Biso   1.000  H
  H11      1.0000 0.54820  0.18110  0.69200  Biso   1.000  H
  H12      1.0000 0.45180  0.18110  0.80800  Biso   1.000  H
  C9       1.0000 0.31300  0.84240  0.21828  Biso   1.000  C
  C10      1.0000 0.68700  0.84240  0.28172  Biso   1.000  C
  C11      1.0000 0.68700  0.15760  0.78172  Biso   1.000  C
  C12      1.0000 0.31300  0.15760  0.71828  Biso   1.000  C
  H13      1.0000 0.33390  0.96260  0.20970  Biso   1.000  H
  H14      1.0000 0.66610  0.96260  0.29030  Biso   1.000  H
  H15      1.0000 0.66610  0.03740  0.79030  Biso   1.000  H
  H16      1.0000 0.33390  0.03740  0.70970  Biso   1.000  H
  C13      1.0000 0.21151  0.75130  0.17191  Biso   1.000  C
  C14      1.0000 0.78849  0.75130  0.32809  Biso   1.000  C
  C15      1.0000 0.78849  0.24870  0.82809  Biso   1.000  C
  C16      1.0000 0.21151  0.24870  0.67191  Biso   1.000  C
  C17      1.0000 0.18265  0.57060  0.18524  Biso   1.000  C
  C18      1.0000 0.81735  0.57060  0.31476  Biso   1.000  C
  C19      1.0000 0.81735  0.42940  0.81476  Biso   1.000  C
  C20      1.0000 0.18265  0.42940  0.68524  Biso   1.000  C
  H17      1.0000 0.11560  0.50650  0.15420  Biso   1.000  H
  H18      1.0000 0.88440  0.50650  0.34580  Biso   1.000  H
  H19      1.0000 0.88440  0.49350  0.84580  Biso   1.000  H
  H20      1.0000 0.11560  0.49350  0.65420  Biso   1.000  H
  C21      1.0000 0.25320  0.48560  0.24434  Biso   1.000  C
  C22      1.0000 0.74680  0.48560  0.25566  Biso   1.000  C
  C23      1.0000 0.74680  0.51440  0.75566  Biso   1.000  C
  C24      1.0000 0.25320  0.51440  0.74434  Biso   1.000  C
  H21      1.0000 0.23270  0.36480  0.25280  Biso   1.000  H
  H22      1.0000 0.76730  0.36480  0.24720  Biso   1.000  H
  H23      1.0000 0.76730  0.63520  0.74720  Biso   1.000  H
  H24      1.0000 0.23270  0.63520  0.75280  Biso   1.000  H
  C25      1.0000 0.13488  0.84620  0.10840  Biso   1.000  C
  C26      1.0000 0.86512  0.84620  0.39160  Biso   1.000  C
  C27      1.0000 0.86512  0.15380  0.89160  Biso   1.000  C
  C28      1.0000 0.13488  0.15380  0.60840  Biso   1.000  C
  C29      1.0000 0.43048  0.47110  0.35588  Biso   1.000  C
  C30      1.0000 0.56952  0.47110  0.14412  Biso   1.000  C
  C31      1.0000 0.56952  0.52890  0.64412  Biso   1.000  C
  C32      1.0000 0.43048  0.52890  0.85588  Biso   1.000  C
  C33      1.0000 0.51045  0.32790  0.34399  Biso   1.000  C
  C34      1.0000 0.48955  0.32790  0.15601  Biso   1.000  C
  C35      1.0000 0.48955  0.67210  0.65601  Biso   1.000  C
  C36      1.0000 0.51045  0.67210  0.84399  Biso   1.000  C
  C37      1.0000 0.51416  0.60710  0.41107  Biso   1.000  C
  C38      1.0000 0.48584  0.60710  0.08893  Biso   1.000  C
  C39      1.0000 0.48584  0.39290  0.58893  Biso   1.000  C
  C40      1.0000 0.51416  0.39290  0.91107  Biso   1.000  C
  C41      1.0000 0.34921  0.37320  0.37967  Biso   1.000  C
  C42      1.0000 0.65079  0.37320  0.12033  Biso   1.000  C
  C43      1.0000 0.65079  0.62680  0.62033  Biso   1.000  C
  C44      1.0000 0.34921  0.62680  0.87967  Biso   1.000  C
  C45      1.0000 0.37030  0.19120  0.40622  Biso   1.000  C
  C46      1.0000 0.62970  0.19120  0.09378  Biso   1.000  C
  C47      1.0000 0.62970  0.80880  0.59378  Biso   1.000  C
  C48      1.0000 0.37030  0.80880  0.90622  Biso   1.000  C
  H25      1.0000 0.43390  0.11920  0.40840  Biso   1.000  H
  H26      1.0000 0.56610  0.11920  0.09160  Biso   1.000  H
  H27      1.0000 0.56610  0.88080  0.59160  Biso   1.000  H
  H28      1.0000 0.43390  0.88080  0.90840  Biso   1.000  H
  C49      1.0000 0.29770  0.11510  0.42954  Biso   1.000  C
  C50      1.0000 0.70230  0.11510  0.07046  Biso   1.000  C
  C51      1.0000 0.70230  0.88490  0.57046  Biso   1.000  C
  C52      1.0000 0.29770  0.88490  0.92954  Biso   1.000  C
  H29      1.0000 0.31280  0.99230  0.44710  Biso   1.000  H
  H30      1.0000 0.68720  0.99230  0.05290  Biso   1.000  H
  H31      1.0000 0.68720  0.00770  0.55290  Biso   1.000  H
  H32      1.0000 0.31280  0.00770  0.94710  Biso   1.000  H
  C53      1.0000 0.20312  0.21950  0.42697  Biso   1.000  C
  C54      1.0000 0.79688  0.21950  0.07303  Biso   1.000  C
  C55      1.0000 0.79688  0.78050  0.57303  Biso   1.000  C
  C56      1.0000 0.20312  0.78050  0.92697  Biso   1.000  C
  C57      1.0000 0.18142  0.40240  0.40043  Biso   1.000  C
  C58      1.0000 0.81858  0.40240  0.09957  Biso   1.000  C
  C59      1.0000 0.81858  0.59760  0.59957  Biso   1.000  C
  C60      1.0000 0.18142  0.59760  0.90043  Biso   1.000  C
  H33      1.0000 0.11810  0.47460  0.39840  Biso   1.000  H
  H34      1.0000 0.88190  0.47460  0.10160  Biso   1.000  H
  H35      1.0000 0.88190  0.52540  0.60160  Biso   1.000  H
  H36      1.0000 0.11810  0.52540  0.89840  Biso   1.000  H
  C61      1.0000 0.25370  0.47730  0.37700  Biso   1.000  C
  C62      1.0000 0.74630  0.47730  0.12300  Biso   1.000  C
  C63      1.0000 0.74630  0.52270  0.62300  Biso   1.000  C
  C64      1.0000 0.25370  0.52270  0.87700  Biso   1.000  C
  H37      1.0000 0.23820  0.59970  0.35910  Biso   1.000  H
  H38      1.0000 0.76180  0.59970  0.14090  Biso   1.000  H
  H39      1.0000 0.76180  0.40030  0.64090  Biso   1.000  H
  H40      1.0000 0.23820  0.40030  0.85910  Biso   1.000  H
  C65      1.0000 0.12738  0.13850  0.45408  Biso   1.000  C
  C66      1.0000 0.87262  0.13850  0.04592  Biso   1.000  C
  C67      1.0000 0.87262  0.86150  0.54592  Biso   1.000  C
  C68      1.0000 0.12738  0.86150  0.95408  Biso   1.000  C
