data_image0
_cell_length_a       13.9871
_cell_length_b       7.6637
_cell_length_c       7.4534
_cell_angle_alpha    90
_cell_angle_beta     91.75
_cell_angle_gamma    90

_symmetry_space_group_name_H-M    "P 1"
_symmetry_int_tables_number       1

loop_
  _symmetry_equiv_pos_as_xyz
  'x, y, z'

loop_
  _atom_site_label
  _atom_site_occupancy
  _atom_site_fract_x
  _atom_site_fract_y
  _atom_site_fract_z
  _atom_site_thermal_displace_type
  _atom_site_B_iso_or_equiv
  _atom_site_type_symbol
  Cu1      1.0000 0.97722  0.19130  0.05605  Biso   1.000  Cu
  Cu2      1.0000 0.02278  0.69130  0.44395  Biso   1.000  Cu
  Cu3      1.0000 0.02278  0.80870  0.94395  Biso   1.000  Cu
  Cu4      1.0000 0.97722  0.30870  0.55605  Biso   1.000  Cu
  P1       1.0000 0.11157  0.04510  0.35175  Biso   1.000  P
  P2       1.0000 0.88843  0.54510  0.14825  Biso   1.000  P
  P3       1.0000 0.88843  0.95490  0.64825  Biso   1.000  P
  P4       1.0000 0.11157  0.45490  0.85175  Biso   1.000  P
  O1       1.0000 0.05620  0.00960  0.17440  Biso   1.000  O
  O2       1.0000 0.94380  0.50960  0.32560  Biso   1.000  O
  O3       1.0000 0.94380  0.99040  0.82560  Biso   1.000  O
  O4       1.0000 0.05620  0.49040  0.67440  Biso   1.000  O
  O5       1.0000 0.08870  0.22620  0.42620  Biso   1.000  O
  O6       1.0000 0.91130  0.72620  0.07380  Biso   1.000  O
  O7       1.0000 0.91130  0.77380  0.57380  Biso   1.000  O
  O8       1.0000 0.08870  0.27380  0.92620  Biso   1.000  O
  O9       1.0000 0.09457  0.90180  0.48960  Biso   1.000  O
  O10      1.0000 0.90543  0.40180  0.01040  Biso   1.000  O
  O11      1.0000 0.90543  0.09820  0.51040  Biso   1.000  O
  O12      1.0000 0.09457  0.59820  0.98960  Biso   1.000  O
  H1       1.0000 0.87110  0.96790  0.12070  Biso   1.000  H
  H2       1.0000 0.12890  0.46790  0.37930  Biso   1.000  H
  H3       1.0000 0.12890  0.03210  0.87930  Biso   1.000  H
  H4       1.0000 0.87110  0.53210  0.62070  Biso   1.000  H
  H5       1.0000 0.86980  0.09840  0.27540  Biso   1.000  H
  H6       1.0000 0.13020  0.59840  0.22460  Biso   1.000  H
  H7       1.0000 0.13020  0.90160  0.72460  Biso   1.000  H
  H8       1.0000 0.86980  0.40160  0.77540  Biso   1.000  H
  O13      1.0000 0.86281  0.07830  0.15850  Biso   1.000  O
  O14      1.0000 0.13719  0.57830  0.34150  Biso   1.000  O
  O15      1.0000 0.13719  0.92170  0.84150  Biso   1.000  O
  O16      1.0000 0.86281  0.42170  0.65850  Biso   1.000  O
  C1       1.0000 0.23774  0.03810  0.30960  Biso   1.000  C
  C2       1.0000 0.76226  0.53810  0.19040  Biso   1.000  C
  C3       1.0000 0.76226  0.96190  0.69040  Biso   1.000  C
  C4       1.0000 0.23774  0.46190  0.80960  Biso   1.000  C
  C5       1.0000 0.27731  0.14920  0.18440  Biso   1.000  C
  C6       1.0000 0.72269  0.64920  0.31560  Biso   1.000  C
  C7       1.0000 0.72269  0.85080  0.81560  Biso   1.000  C
  C8       1.0000 0.27731  0.35080  0.68440  Biso   1.000  C
  H9       1.0000 0.23860  0.23090  0.12510  Biso   1.000  H
  H10      1.0000 0.76140  0.73090  0.37490  Biso   1.000  H
  H11      1.0000 0.76140  0.76910  0.87490  Biso   1.000  H
  H12      1.0000 0.23860  0.26910  0.62510  Biso   1.000  H
  C9       1.0000 0.37380  0.14000  0.14680  Biso   1.000  C
  C10      1.0000 0.62620  0.64000  0.35320  Biso   1.000  C
  C11      1.0000 0.62620  0.86000  0.85320  Biso   1.000  C
  C12      1.0000 0.37380  0.36000  0.64680  Biso   1.000  C
  H13      1.0000 0.39930  0.21510  0.06270  Biso   1.000  H
  H14      1.0000 0.60070  0.71510  0.43730  Biso   1.000  H
  H15      1.0000 0.60070  0.78490  0.93730  Biso   1.000  H
  H16      1.0000 0.39930  0.28490  0.56270  Biso   1.000  H
  C13      1.0000 0.43220  0.01880  0.23430  Biso   1.000  C
  C14      1.0000 0.56780  0.51880  0.26570  Biso   1.000  C
  C15      1.0000 0.56780  0.98120  0.76570  Biso   1.000  C
  C16      1.0000 0.43220  0.48120  0.73430  Biso   1.000  C
  H17      1.0000 0.49670  0.01120  0.20830  Biso   1.000  H
  H18      1.0000 0.50330  0.51120  0.29170  Biso   1.000  H
  H19      1.0000 0.50330  0.98880  0.79170  Biso   1.000  H
  H20      1.0000 0.49670  0.48880  0.70830  Biso   1.000  H
  C17      1.0000 0.39350  0.90920  0.36100  Biso   1.000  C
  C18      1.0000 0.60650  0.40920  0.13900  Biso   1.000  C
  C19      1.0000 0.60650  0.09080  0.63900  Biso   1.000  C
  C20      1.0000 0.39350  0.59080  0.86100  Biso   1.000  C
  H21      1.0000 0.43270  0.82970  0.42230  Biso   1.000  H
  H22      1.0000 0.56730  0.32970  0.07770  Biso   1.000  H
  H23      1.0000 0.56730  0.17030  0.57770  Biso   1.000  H
  H24      1.0000 0.43270  0.67030  0.92230  Biso   1.000  H
  C21      1.0000 0.29680  0.91690  0.39710  Biso   1.000  C
  C22      1.0000 0.70320  0.41690  0.10290  Biso   1.000  C
  C23      1.0000 0.70320  0.08310  0.60290  Biso   1.000  C
  C24      1.0000 0.29680  0.58310  0.89710  Biso   1.000  C
  H25      1.0000 0.27140  0.84080  0.48030  Biso   1.000  H
  H26      1.0000 0.72860  0.34080  0.01970  Biso   1.000  H
  H27      1.0000 0.72860  0.15920  0.51970  Biso   1.000  H
  H28      1.0000 0.27140  0.65920  0.98030  Biso   1.000  H
