data_image0
_cell_length_a       5.65908
_cell_length_b       14.3406
_cell_length_c       4.79644
_cell_angle_alpha    90
_cell_angle_beta     90
_cell_angle_gamma    90

_symmetry_space_group_name_H-M    "P 1"
_symmetry_int_tables_number       1

loop_
  _symmetry_equiv_pos_as_xyz
  'x, y, z'

loop_
  _atom_site_label
  _atom_site_occupancy
  _atom_site_fract_x
  _atom_site_fract_y
  _atom_site_fract_z
  _atom_site_thermal_displace_type
  _atom_site_B_iso_or_equiv
  _atom_site_type_symbol
  Cu1      1.0000 0.00000  0.48322  0.84307  Biso   1.000  Cu
  Cu2      1.0000 0.50000  0.51678  0.34307  Biso   1.000  Cu
  P1       1.0000 0.00000  0.61953  0.38351  Biso   1.000  P
  P2       1.0000 0.50000  0.38047  0.88351  Biso   1.000  P
  O1       1.0000 0.00000  0.60340  0.05500  Biso   1.000  O
  O2       1.0000 0.50000  0.39660  0.55500  Biso   1.000  O
  O3       1.0000 0.80300  0.57880  0.57300  Biso   1.000  O
  O4       1.0000 0.69700  0.42120  0.07300  Biso   1.000  O
  O5       1.0000 0.19700  0.57880  0.57300  Biso   1.000  O
  O6       1.0000 0.30300  0.42120  0.07300  Biso   1.000  O
  O7       1.0000 0.00000  0.37260  0.51200  Biso   1.000  O
  O8       1.0000 0.50000  0.62740  0.01200  Biso   1.000  O
  C1       1.0000 0.00000  0.75230  0.43710  Biso   1.000  C
  C2       1.0000 0.50000  0.24770  0.93710  Biso   1.000  C
  C3       1.0000 0.00000  0.94990  0.51190  Biso   1.000  C
  C4       1.0000 0.50000  0.05010  0.01190  Biso   1.000  C
  C5       1.0000 0.77860  0.80200  0.41750  Biso   1.000  C
  C6       1.0000 0.72140  0.19800  0.91750  Biso   1.000  C
  C7       1.0000 0.22140  0.80200  0.41750  Biso   1.000  C
  C8       1.0000 0.27860  0.19800  0.91750  Biso   1.000  C
  C9       1.0000 0.76690  0.89350  0.46030  Biso   1.000  C
  C10      1.0000 0.73310  0.10650  0.96030  Biso   1.000  C
  C11      1.0000 0.23310  0.89350  0.46030  Biso   1.000  C
  C12      1.0000 0.26690  0.10650  0.96030  Biso   1.000  C
  C13      1.0000 0.00000  0.81110  0.21890  Biso   1.000  C
  C14      1.0000 0.50000  0.18890  0.71890  Biso   1.000  C
  C15      1.0000 0.00000  0.90680  0.25920  Biso   1.000  C
  C16      1.0000 0.50000  0.09320  0.75920  Biso   1.000  C
  C17      1.0000 0.00000  0.88920  0.73090  Biso   1.000  C
  C18      1.0000 0.50000  0.11080  0.23090  Biso   1.000  C
  C19      1.0000 0.00000  0.79350  0.69710  Biso   1.000  C
  C20      1.0000 0.50000  0.20650  0.19710  Biso   1.000  C
