data_image0
_cell_length_a       7.3
_cell_length_b       8.493
_cell_length_c       6.449
_cell_angle_alpha    90
_cell_angle_beta     97.57
_cell_angle_gamma    90

_symmetry_space_group_name_H-M    "P 1"
_symmetry_int_tables_number       1

loop_
  _symmetry_equiv_pos_as_xyz
  'x, y, z'

loop_
  _atom_site_label
  _atom_site_occupancy
  _atom_site_fract_x
  _atom_site_fract_y
  _atom_site_fract_z
  _atom_site_thermal_displace_type
  _atom_site_B_iso_or_equiv
  _atom_site_type_symbol
  Cu1      1.0000 0.50000  0.40230  0.75000  Biso   1.000  Cu
  Cu2      1.0000 0.50000  0.59770  0.25000  Biso   1.000  Cu
  Ca1      1.0000 0.00000  0.13590  0.75000  Biso   1.000  Ca
  Ca2      1.0000 0.00000  0.86410  0.25000  Biso   1.000  Ca
  O1       1.0000 0.35560  0.43650  0.08210  Biso   1.000  O
  O2       1.0000 0.64440  0.43650  0.41790  Biso   1.000  O
  O3       1.0000 0.64440  0.56350  0.91790  Biso   1.000  O
  O4       1.0000 0.35560  0.56350  0.58210  Biso   1.000  O
  O5       1.0000 0.19080  0.04230  0.46680  Biso   1.000  O
  O6       1.0000 0.80920  0.04230  0.03320  Biso   1.000  O
  O7       1.0000 0.80920  0.95770  0.53320  Biso   1.000  O
  O8       1.0000 0.19080  0.95770  0.96680  Biso   1.000  O
  O9       1.0000 0.31680  0.23740  0.65620  Biso   1.000  O
  O10      1.0000 0.68320  0.23740  0.84380  Biso   1.000  O
  O11      1.0000 0.68320  0.76260  0.34380  Biso   1.000  O
  O12      1.0000 0.31680  0.76260  0.15620  Biso   1.000  O
  O13      1.0000 0.08560  0.31530  0.01070  Biso   1.000  O
  O14      1.0000 0.91440  0.31530  0.48930  Biso   1.000  O
  O15      1.0000 0.91440  0.68470  0.98930  Biso   1.000  O
  O16      1.0000 0.08560  0.68470  0.51070  Biso   1.000  O
  C1       1.0000 0.19520  0.39880  0.12020  Biso   1.000  C
  C2       1.0000 0.80480  0.39880  0.37980  Biso   1.000  C
  C3       1.0000 0.80480  0.60120  0.87980  Biso   1.000  C
  C4       1.0000 0.19520  0.60120  0.62020  Biso   1.000  C
  C5       1.0000 0.31260  0.14370  0.50440  Biso   1.000  C
  C6       1.0000 0.68740  0.14370  0.99560  Biso   1.000  C
  C7       1.0000 0.68740  0.85630  0.49560  Biso   1.000  C
  C8       1.0000 0.31260  0.85630  0.00440  Biso   1.000  C
  H1       1.0000 0.17850  0.42900  0.23360  Biso   1.000  H
  H2       1.0000 0.82150  0.42900  0.26640  Biso   1.000  H
  H3       1.0000 0.82150  0.57100  0.76640  Biso   1.000  H
  H4       1.0000 0.17850  0.57100  0.73360  Biso   1.000  H
  H5       1.0000 0.40290  0.14360  0.41530  Biso   1.000  H
  H6       1.0000 0.59710  0.14360  0.08470  Biso   1.000  H
  H7       1.0000 0.59710  0.85640  0.58470  Biso   1.000  H
  H8       1.0000 0.40290  0.85640  0.91530  Biso   1.000  H
