data_image0
_cell_length_a       22.296
_cell_length_b       8.803
_cell_length_c       6.377
_cell_angle_alpha    90
_cell_angle_beta     101
_cell_angle_gamma    90

_symmetry_space_group_name_H-M    "P 1"
_symmetry_int_tables_number       1

loop_
  _symmetry_equiv_pos_as_xyz
  'x, y, z'

loop_
  _atom_site_label
  _atom_site_occupancy
  _atom_site_fract_x
  _atom_site_fract_y
  _atom_site_fract_z
  _atom_site_thermal_displace_type
  _atom_site_B_iso_or_equiv
  _atom_site_type_symbol
  Cu1      1.0000 0.00000  0.90450  0.25000  Biso   1.000  Cu
  Cu2      1.0000 0.50000  0.40450  0.25000  Biso   1.000  Cu
  Cu3      1.0000 0.00000  0.09550  0.75000  Biso   1.000  Cu
  Cu4      1.0000 0.50000  0.59550  0.75000  Biso   1.000  Cu
  Ca1      1.0000 0.15960  0.36640  0.93870  Biso   1.000  Ca
  Ca2      1.0000 0.65960  0.86640  0.93870  Biso   1.000  Ca
  Ca3      1.0000 0.84040  0.36640  0.56130  Biso   1.000  Ca
  Ca4      1.0000 0.34040  0.86640  0.56130  Biso   1.000  Ca
  Ca5      1.0000 0.84040  0.63360  0.06130  Biso   1.000  Ca
  Ca6      1.0000 0.34040  0.13360  0.06130  Biso   1.000  Ca
  Ca7      1.0000 0.15960  0.63360  0.43870  Biso   1.000  Ca
  Ca8      1.0000 0.65960  0.13360  0.43870  Biso   1.000  Ca
  O1       1.0000 0.04750  0.06180  0.13960  Biso   1.000  O
  O2       1.0000 0.54750  0.56180  0.13960  Biso   1.000  O
  O3       1.0000 0.95250  0.06180  0.36040  Biso   1.000  O
  O4       1.0000 0.45250  0.56180  0.36040  Biso   1.000  O
  O5       1.0000 0.95250  0.93820  0.86040  Biso   1.000  O
  O6       1.0000 0.45250  0.43820  0.86040  Biso   1.000  O
  O7       1.0000 0.04750  0.93820  0.63960  Biso   1.000  O
  O8       1.0000 0.54750  0.43820  0.63960  Biso   1.000  O
  O9       1.0000 0.13620  0.18200  0.16900  Biso   1.000  O
  O10      1.0000 0.63620  0.68200  0.16900  Biso   1.000  O
  O11      1.0000 0.86380  0.18200  0.33100  Biso   1.000  O
  O12      1.0000 0.36380  0.68200  0.33100  Biso   1.000  O
  O13      1.0000 0.86380  0.81800  0.83100  Biso   1.000  O
  O14      1.0000 0.36380  0.31800  0.83100  Biso   1.000  O
  O15      1.0000 0.13620  0.81800  0.66900  Biso   1.000  O
  O16      1.0000 0.63620  0.31800  0.66900  Biso   1.000  O
  O17      1.0000 0.06020  0.74610  0.21780  Biso   1.000  O
  O18      1.0000 0.56020  0.24610  0.21780  Biso   1.000  O
  O19      1.0000 0.93980  0.74610  0.28220  Biso   1.000  O
  O20      1.0000 0.43980  0.24610  0.28220  Biso   1.000  O
  O21      1.0000 0.93980  0.25390  0.78220  Biso   1.000  O
  O22      1.0000 0.43980  0.75390  0.78220  Biso   1.000  O
  O23      1.0000 0.06020  0.25390  0.71780  Biso   1.000  O
  O24      1.0000 0.56020  0.75390  0.71780  Biso   1.000  O
  O25      1.0000 0.09460  0.54870  0.06920  Biso   1.000  O
  O26      1.0000 0.59460  0.04870  0.06920  Biso   1.000  O
  O27      1.0000 0.90540  0.54870  0.43080  Biso   1.000  O
  O28      1.0000 0.40540  0.04870  0.43080  Biso   1.000  O
  O29      1.0000 0.90540  0.45130  0.93080  Biso   1.000  O
  O30      1.0000 0.40540  0.95130  0.93080  Biso   1.000  O
  O31      1.0000 0.09460  0.45130  0.56920  Biso   1.000  O
  O32      1.0000 0.59460  0.95130  0.56920  Biso   1.000  O
  O33      1.0000 0.20960  0.18530  0.78210  Biso   1.000  O
  O34      1.0000 0.70960  0.68530  0.78210  Biso   1.000  O
  O35      1.0000 0.79040  0.18530  0.71790  Biso   1.000  O
  O36      1.0000 0.29040  0.68530  0.71790  Biso   1.000  O
  O37      1.0000 0.79040  0.81470  0.21790  Biso   1.000  O
  O38      1.0000 0.29040  0.31470  0.21790  Biso   1.000  O
  O39      1.0000 0.20960  0.81470  0.28210  Biso   1.000  O
  O40      1.0000 0.70960  0.31470  0.28210  Biso   1.000  O
  O41      1.0000 0.28540  0.04270  0.72290  Biso   1.000  O
  O42      1.0000 0.78540  0.54270  0.72290  Biso   1.000  O
  O43      1.0000 0.71460  0.04270  0.77710  Biso   1.000  O
  O44      1.0000 0.21460  0.54270  0.77710  Biso   1.000  O
  O45      1.0000 0.71460  0.95730  0.27710  Biso   1.000  O
  O46      1.0000 0.21460  0.45730  0.27710  Biso   1.000  O
  O47      1.0000 0.28540  0.95730  0.22290  Biso   1.000  O
  O48      1.0000 0.78540  0.45730  0.22290  Biso   1.000  O
  C1       1.0000 0.10180  0.09390  0.23020  Biso   1.000  C
  C2       1.0000 0.60180  0.59390  0.23020  Biso   1.000  C
  C3       1.0000 0.89820  0.09390  0.26980  Biso   1.000  C
  C4       1.0000 0.39820  0.59390  0.26980  Biso   1.000  C
  C5       1.0000 0.89820  0.90610  0.76980  Biso   1.000  C
  C6       1.0000 0.39820  0.40610  0.76980  Biso   1.000  C
  C7       1.0000 0.10180  0.90610  0.73020  Biso   1.000  C
  C8       1.0000 0.60180  0.40610  0.73020  Biso   1.000  C
  C9       1.0000 0.05700  0.65040  0.06640  Biso   1.000  C
  C10      1.0000 0.55700  0.15040  0.06640  Biso   1.000  C
  C11      1.0000 0.94300  0.65040  0.43360  Biso   1.000  C
  C12      1.0000 0.44300  0.15040  0.43360  Biso   1.000  C
  C13      1.0000 0.94300  0.34960  0.93360  Biso   1.000  C
  C14      1.0000 0.44300  0.84960  0.93360  Biso   1.000  C
  C15      1.0000 0.05700  0.34960  0.56640  Biso   1.000  C
  C16      1.0000 0.55700  0.84960  0.56640  Biso   1.000  C
  C17      1.0000 0.23530  0.11010  0.66530  Biso   1.000  C
  C18      1.0000 0.73530  0.61010  0.66530  Biso   1.000  C
  C19      1.0000 0.76470  0.11010  0.83470  Biso   1.000  C
  C20      1.0000 0.26470  0.61010  0.83470  Biso   1.000  C
  C21      1.0000 0.76470  0.88990  0.33470  Biso   1.000  C
  C22      1.0000 0.26470  0.38990  0.33470  Biso   1.000  C
  C23      1.0000 0.23530  0.88990  0.16530  Biso   1.000  C
  C24      1.0000 0.73530  0.38990  0.16530  Biso   1.000  C
  H1       1.0000 0.11560  0.05180  0.33650  Biso   1.000  H
  H2       1.0000 0.61560  0.55180  0.33650  Biso   1.000  H
  H3       1.0000 0.88440  0.05180  0.16350  Biso   1.000  H
  H4       1.0000 0.38440  0.55180  0.16350  Biso   1.000  H
  H5       1.0000 0.88440  0.94820  0.66350  Biso   1.000  H
  H6       1.0000 0.38440  0.44820  0.66350  Biso   1.000  H
  H7       1.0000 0.11560  0.94820  0.83650  Biso   1.000  H
  H8       1.0000 0.61560  0.44820  0.83650  Biso   1.000  H
  H9       1.0000 0.02230  0.65850  0.94520  Biso   1.000  H
  H10      1.0000 0.52230  0.15850  0.94520  Biso   1.000  H
  H11      1.0000 0.97770  0.65850  0.55480  Biso   1.000  H
  H12      1.0000 0.47770  0.15850  0.55480  Biso   1.000  H
  H13      1.0000 0.97770  0.34150  0.05480  Biso   1.000  H
  H14      1.0000 0.47770  0.84150  0.05480  Biso   1.000  H
  H15      1.0000 0.02230  0.34150  0.44520  Biso   1.000  H
  H16      1.0000 0.52230  0.84150  0.44520  Biso   1.000  H
  H17      1.0000 0.21580  0.10510  0.52400  Biso   1.000  H
  H18      1.0000 0.71580  0.60510  0.52400  Biso   1.000  H
  H19      1.0000 0.78420  0.10510  0.97600  Biso   1.000  H
  H20      1.0000 0.28420  0.60510  0.97600  Biso   1.000  H
  H21      1.0000 0.78420  0.89490  0.47600  Biso   1.000  H
  H22      1.0000 0.28420  0.39490  0.47600  Biso   1.000  H
  H23      1.0000 0.21580  0.89490  0.02400  Biso   1.000  H
  H24      1.0000 0.71580  0.39490  0.02400  Biso   1.000  H
