data_image0
_cell_length_a       13.8786
_cell_length_b       13.6808
_cell_length_c       16.6792
_cell_angle_alpha    90
_cell_angle_beta     112.229
_cell_angle_gamma    90

_symmetry_space_group_name_H-M    "P 1"
_symmetry_int_tables_number       1

loop_
  _symmetry_equiv_pos_as_xyz
  'x, y, z'

loop_
  _atom_site_label
  _atom_site_occupancy
  _atom_site_fract_x
  _atom_site_fract_y
  _atom_site_fract_z
  _atom_site_thermal_displace_type
  _atom_site_B_iso_or_equiv
  _atom_site_type_symbol
  Cu1      1.0000 0.25000  0.25000  0.50000  Biso   1.000  Cu
  Cu2      1.0000 0.75000  0.25000  0.00000  Biso   1.000  Cu
  Cu3      1.0000 0.75000  0.75000  0.50000  Biso   1.000  Cu
  Cu4      1.0000 0.25000  0.75000  0.00000  Biso   1.000  Cu
  S1       1.0000 0.19013  0.19578  0.14810  Biso   1.000  S
  S2       1.0000 0.80987  0.19578  0.35190  Biso   1.000  S
  S3       1.0000 0.69013  0.69578  0.14810  Biso   1.000  S
  S4       1.0000 0.30987  0.69578  0.35190  Biso   1.000  S
  S5       1.0000 0.80987  0.80422  0.85190  Biso   1.000  S
  S6       1.0000 0.19013  0.80422  0.64810  Biso   1.000  S
  S7       1.0000 0.30987  0.30422  0.85190  Biso   1.000  S
  S8       1.0000 0.69013  0.30422  0.64810  Biso   1.000  S
  O1       1.0000 0.17759  0.09655  0.16486  Biso   1.000  O
  O2       1.0000 0.82241  0.09655  0.33514  Biso   1.000  O
  O3       1.0000 0.67759  0.59655  0.16486  Biso   1.000  O
  O4       1.0000 0.32241  0.59655  0.33514  Biso   1.000  O
  O5       1.0000 0.82241  0.90345  0.83514  Biso   1.000  O
  O6       1.0000 0.17759  0.90345  0.66486  Biso   1.000  O
  O7       1.0000 0.32241  0.40345  0.83514  Biso   1.000  O
  O8       1.0000 0.67759  0.40345  0.66486  Biso   1.000  O
  O9       1.0000 0.26311  0.23246  0.11539  Biso   1.000  O
  O10      1.0000 0.73689  0.23246  0.38461  Biso   1.000  O
  O11      1.0000 0.76311  0.73246  0.11539  Biso   1.000  O
  O12      1.0000 0.23689  0.73246  0.38461  Biso   1.000  O
  O13      1.0000 0.73689  0.76754  0.88461  Biso   1.000  O
  O14      1.0000 0.26311  0.76754  0.61539  Biso   1.000  O
  O15      1.0000 0.23689  0.26754  0.88461  Biso   1.000  O
  O16      1.0000 0.76311  0.26754  0.61539  Biso   1.000  O
  O17      1.0000 0.20512  0.08476  0.46356  Biso   1.000  O
  O18      1.0000 0.79488  0.08476  0.03644  Biso   1.000  O
  O19      1.0000 0.70512  0.58476  0.46356  Biso   1.000  O
  O20      1.0000 0.29488  0.58476  0.03644  Biso   1.000  O
  O21      1.0000 0.79488  0.91524  0.53644  Biso   1.000  O
  O22      1.0000 0.20512  0.91524  0.96356  Biso   1.000  O
  O23      1.0000 0.29488  0.41524  0.53644  Biso   1.000  O
  O24      1.0000 0.70512  0.41524  0.96356  Biso   1.000  O
  O25      1.0000 0.27340  0.94680  0.51330  Biso   1.000  O
  O26      1.0000 0.72660  0.94680  0.98670  Biso   1.000  O
  O27      1.0000 0.77340  0.44680  0.51330  Biso   1.000  O
  O28      1.0000 0.22660  0.44680  0.98670  Biso   1.000  O
  O29      1.0000 0.72660  0.05320  0.48670  Biso   1.000  O
  O30      1.0000 0.27340  0.05320  0.01330  Biso   1.000  O
  O31      1.0000 0.22660  0.55320  0.48670  Biso   1.000  O
  O32      1.0000 0.77340  0.55320  0.01330  Biso   1.000  O
  O33      1.0000 0.27730  0.99764  0.39375  Biso   1.000  O
  O34      1.0000 0.72270  0.99764  0.10625  Biso   1.000  O
  O35      1.0000 0.77730  0.49764  0.39375  Biso   1.000  O
  O36      1.0000 0.22270  0.49764  0.10625  Biso   1.000  O
  O37      1.0000 0.72270  0.00236  0.60625  Biso   1.000  O
  O38      1.0000 0.27730  0.00236  0.89375  Biso   1.000  O
  O39      1.0000 0.22270  0.50236  0.60625  Biso   1.000  O
  O40      1.0000 0.77730  0.50236  0.89375  Biso   1.000  O
  N1       1.0000 0.23035  0.27638  0.37602  Biso   1.000  N
  N2       1.0000 0.76965  0.27638  0.12398  Biso   1.000  N
  N3       1.0000 0.73035  0.77638  0.37602  Biso   1.000  N
  N4       1.0000 0.26965  0.77638  0.12398  Biso   1.000  N
  N5       1.0000 0.76965  0.72362  0.62398  Biso   1.000  N
  N6       1.0000 0.23035  0.72362  0.87602  Biso   1.000  N
  N7       1.0000 0.26965  0.22362  0.62398  Biso   1.000  N
  N8       1.0000 0.73035  0.22362  0.87602  Biso   1.000  N
  N9       1.0000 0.21012  0.25397  0.24085  Biso   1.000  N
  N10      1.0000 0.78988  0.25397  0.25915  Biso   1.000  N
  N11      1.0000 0.71012  0.75397  0.24085  Biso   1.000  N
  N12      1.0000 0.28988  0.75397  0.25915  Biso   1.000  N
  N13      1.0000 0.78988  0.74603  0.75915  Biso   1.000  N
  N14      1.0000 0.21012  0.74603  0.74085  Biso   1.000  N
  N15      1.0000 0.28988  0.24603  0.75915  Biso   1.000  N
  N16      1.0000 0.71012  0.24603  0.74085  Biso   1.000  N
  N17      1.0000 0.07425  0.23769  0.08289  Biso   1.000  N
  N18      1.0000 0.92575  0.23769  0.41711  Biso   1.000  N
  N19      1.0000 0.57425  0.73769  0.08289  Biso   1.000  N
  N20      1.0000 0.42575  0.73769  0.41711  Biso   1.000  N
  N21      1.0000 0.92575  0.76231  0.91711  Biso   1.000  N
  N22      1.0000 0.07425  0.76231  0.58289  Biso   1.000  N
  N23      1.0000 0.42575  0.26231  0.91711  Biso   1.000  N
  N24      1.0000 0.57425  0.26231  0.58289  Biso   1.000  N
  N25      1.0000 0.90561  0.26181  0.02818  Biso   1.000  N
  N26      1.0000 0.09439  0.26181  0.47182  Biso   1.000  N
  N27      1.0000 0.40561  0.76181  0.02818  Biso   1.000  N
  N28      1.0000 0.59439  0.76181  0.47182  Biso   1.000  N
  N29      1.0000 0.09439  0.73819  0.97182  Biso   1.000  N
  N30      1.0000 0.90561  0.73819  0.52818  Biso   1.000  N
  N31      1.0000 0.59439  0.23819  0.97182  Biso   1.000  N
  N32      1.0000 0.40561  0.23819  0.52818  Biso   1.000  N
  N33      1.0000 0.25340  0.00921  0.45728  Biso   1.000  N
  N34      1.0000 0.74660  0.00921  0.04272  Biso   1.000  N
  N35      1.0000 0.75340  0.50921  0.45728  Biso   1.000  N
  N36      1.0000 0.24660  0.50921  0.04272  Biso   1.000  N
  N37      1.0000 0.74660  0.99079  0.54272  Biso   1.000  N
  N38      1.0000 0.25340  0.99079  0.95728  Biso   1.000  N
  N39      1.0000 0.24660  0.49079  0.54272  Biso   1.000  N
  N40      1.0000 0.75340  0.49079  0.95728  Biso   1.000  N
  C1       1.0000 0.20460  0.21250  0.31356  Biso   1.000  C
  C2       1.0000 0.79540  0.21250  0.18644  Biso   1.000  C
  C3       1.0000 0.70460  0.71250  0.31356  Biso   1.000  C
  C4       1.0000 0.29540  0.71250  0.18644  Biso   1.000  C
  C5       1.0000 0.79540  0.78750  0.68644  Biso   1.000  C
  C6       1.0000 0.20460  0.78750  0.81356  Biso   1.000  C
  C7       1.0000 0.29540  0.28750  0.68644  Biso   1.000  C
  C8       1.0000 0.70460  0.28750  0.81356  Biso   1.000  C
  H1       1.0000 0.18530  0.14810  0.31780  Biso   1.000  H
  H2       1.0000 0.81470  0.14810  0.18220  Biso   1.000  H
  H3       1.0000 0.68530  0.64810  0.31780  Biso   1.000  H
  H4       1.0000 0.31470  0.64810  0.18220  Biso   1.000  H
  H5       1.0000 0.81470  0.85190  0.68220  Biso   1.000  H
  H6       1.0000 0.18530  0.85190  0.81780  Biso   1.000  H
  H7       1.0000 0.31470  0.35190  0.68220  Biso   1.000  H
  H8       1.0000 0.68530  0.35190  0.81780  Biso   1.000  H
  C9       1.0000 0.24070  0.35120  0.26059  Biso   1.000  C
  C10      1.0000 0.75930  0.35120  0.23941  Biso   1.000  C
  C11      1.0000 0.74070  0.85120  0.26059  Biso   1.000  C
  C12      1.0000 0.25930  0.85120  0.23941  Biso   1.000  C
  C13      1.0000 0.75930  0.64880  0.73941  Biso   1.000  C
  C14      1.0000 0.24070  0.64880  0.76059  Biso   1.000  C
  C15      1.0000 0.25930  0.14880  0.73941  Biso   1.000  C
  C16      1.0000 0.74070  0.14880  0.76059  Biso   1.000  C
  H9       1.0000 0.25070  0.39780  0.22390  Biso   1.000  H
  H10      1.0000 0.74930  0.39780  0.27610  Biso   1.000  H
  H11      1.0000 0.75070  0.89780  0.22390  Biso   1.000  H
  H12      1.0000 0.24930  0.89780  0.27610  Biso   1.000  H
  H13      1.0000 0.74930  0.60220  0.77610  Biso   1.000  H
  H14      1.0000 0.25070  0.60220  0.72390  Biso   1.000  H
  H15      1.0000 0.24930  0.10220  0.77610  Biso   1.000  H
  H16      1.0000 0.75070  0.10220  0.72390  Biso   1.000  H
  C17      1.0000 0.25270  0.36320  0.34329  Biso   1.000  C
  C18      1.0000 0.74730  0.36320  0.15671  Biso   1.000  C
  C19      1.0000 0.75270  0.86320  0.34329  Biso   1.000  C
  C20      1.0000 0.24730  0.86320  0.15671  Biso   1.000  C
  C21      1.0000 0.74730  0.63680  0.65671  Biso   1.000  C
  C22      1.0000 0.25270  0.63680  0.84329  Biso   1.000  C
  C23      1.0000 0.24730  0.13680  0.65671  Biso   1.000  C
  C24      1.0000 0.75270  0.13680  0.84329  Biso   1.000  C
  H17      1.0000 0.27290  0.42110  0.37440  Biso   1.000  H
  H18      1.0000 0.72710  0.42110  0.12560  Biso   1.000  H
  H19      1.0000 0.77290  0.92110  0.37440  Biso   1.000  H
  H20      1.0000 0.22710  0.92110  0.12560  Biso   1.000  H
  H21      1.0000 0.72710  0.57890  0.62560  Biso   1.000  H
  H22      1.0000 0.27290  0.57890  0.87440  Biso   1.000  H
  H23      1.0000 0.22710  0.07890  0.62560  Biso   1.000  H
  H24      1.0000 0.77290  0.07890  0.87440  Biso   1.000  H
  C25      1.0000 0.98000  0.21180  0.08507  Biso   1.000  C
  C26      1.0000 0.02000  0.21180  0.41493  Biso   1.000  C
  C27      1.0000 0.48000  0.71180  0.08507  Biso   1.000  C
  C28      1.0000 0.52000  0.71180  0.41493  Biso   1.000  C
  C29      1.0000 0.02000  0.78820  0.91493  Biso   1.000  C
  C30      1.0000 0.98000  0.78820  0.58507  Biso   1.000  C
  C31      1.0000 0.52000  0.28820  0.91493  Biso   1.000  C
  C32      1.0000 0.48000  0.28820  0.58507  Biso   1.000  C
  H25      1.0000 0.97050  0.16520  0.12200  Biso   1.000  H
  H26      1.0000 0.02950  0.16520  0.37800  Biso   1.000  H
  H27      1.0000 0.47050  0.66520  0.12200  Biso   1.000  H
  H28      1.0000 0.52950  0.66520  0.37800  Biso   1.000  H
  H29      1.0000 0.02950  0.83480  0.87800  Biso   1.000  H
  H30      1.0000 0.97050  0.83480  0.62200  Biso   1.000  H
  H31      1.0000 0.52950  0.33480  0.87800  Biso   1.000  H
  H32      1.0000 0.47050  0.33480  0.62200  Biso   1.000  H
  C33      1.0000 0.95290  0.32340  0.98742  Biso   1.000  C
  C34      1.0000 0.04710  0.32340  0.51258  Biso   1.000  C
  C35      1.0000 0.45290  0.82340  0.98742  Biso   1.000  C
  C36      1.0000 0.54710  0.82340  0.51258  Biso   1.000  C
  C37      1.0000 0.04710  0.67660  0.01258  Biso   1.000  C
  C38      1.0000 0.95290  0.67660  0.48742  Biso   1.000  C
  C39      1.0000 0.54710  0.17660  0.01258  Biso   1.000  C
  C40      1.0000 0.45290  0.17660  0.48742  Biso   1.000  C
  H33      1.0000 0.91770  0.36740  0.94370  Biso   1.000  H
  H34      1.0000 0.08230  0.36740  0.55630  Biso   1.000  H
  H35      1.0000 0.41770  0.86740  0.94370  Biso   1.000  H
  H36      1.0000 0.58230  0.86740  0.55630  Biso   1.000  H
  H37      1.0000 0.08230  0.63260  0.05630  Biso   1.000  H
  H38      1.0000 0.91770  0.63260  0.44370  Biso   1.000  H
  H39      1.0000 0.58230  0.13260  0.05630  Biso   1.000  H
  H40      1.0000 0.41770  0.13260  0.44370  Biso   1.000  H
  C41      1.0000 0.05660  0.31020  0.02017  Biso   1.000  C
  C42      1.0000 0.94340  0.31020  0.47983  Biso   1.000  C
  C43      1.0000 0.55660  0.81020  0.02017  Biso   1.000  C
  C44      1.0000 0.44340  0.81020  0.47983  Biso   1.000  C
  C45      1.0000 0.94340  0.68980  0.97983  Biso   1.000  C
  C46      1.0000 0.05660  0.68980  0.52017  Biso   1.000  C
  C47      1.0000 0.44340  0.18980  0.97983  Biso   1.000  C
  C48      1.0000 0.55660  0.18980  0.52017  Biso   1.000  C
  H41      1.0000 0.10580  0.34240  0.00440  Biso   1.000  H
  H42      1.0000 0.89420  0.34240  0.49560  Biso   1.000  H
  H43      1.0000 0.60580  0.84240  0.00440  Biso   1.000  H
  H44      1.0000 0.39420  0.84240  0.49560  Biso   1.000  H
  H45      1.0000 0.89420  0.65760  0.99560  Biso   1.000  H
  H46      1.0000 0.10580  0.65760  0.50440  Biso   1.000  H
  H47      1.0000 0.39420  0.15760  0.99560  Biso   1.000  H
  H48      1.0000 0.60580  0.15760  0.50440  Biso   1.000  H
  O41      1.0000 0.00000  0.05660  0.25000  Biso   1.000  O
  O42      1.0000 0.50000  0.55660  0.25000  Biso   1.000  O
  O43      1.0000 0.00000  0.94340  0.75000  Biso   1.000  O
  O44      1.0000 0.50000  0.44340  0.75000  Biso   1.000  O
  C49      1.0000 0.00000  0.96900  0.25000  Biso   1.000  C
  C50      1.0000 0.50000  0.46900  0.25000  Biso   1.000  C
  C51      1.0000 0.00000  0.03100  0.75000  Biso   1.000  C
  C52      1.0000 0.50000  0.53100  0.75000  Biso   1.000  C
  C53      1.0000 0.01920  0.91250  0.33090  Biso   1.000  C
  C54      1.0000 0.98080  0.91250  0.16910  Biso   1.000  C
  C55      1.0000 0.51920  0.41250  0.33090  Biso   1.000  C
  C56      1.0000 0.48080  0.41250  0.16910  Biso   1.000  C
  C57      1.0000 0.98080  0.08750  0.66910  Biso   1.000  C
  C58      1.0000 0.01920  0.08750  0.83090  Biso   1.000  C
  C59      1.0000 0.48080  0.58750  0.66910  Biso   1.000  C
  C60      1.0000 0.51920  0.58750  0.83090  Biso   1.000  C
  H49      1.0000 0.08740  0.88380  0.35030  Biso   1.000  H
  H50      1.0000 0.91260  0.88380  0.14970  Biso   1.000  H
  H51      1.0000 0.58740  0.38380  0.35030  Biso   1.000  H
  H52      1.0000 0.41260  0.38380  0.14970  Biso   1.000  H
  H53      1.0000 0.91260  0.11620  0.64970  Biso   1.000  H
  H54      1.0000 0.08740  0.11620  0.85030  Biso   1.000  H
  H55      1.0000 0.41260  0.61620  0.64970  Biso   1.000  H
  H56      1.0000 0.58740  0.61620  0.85030  Biso   1.000  H
  H57      1.0000 0.96800  0.86170  0.31970  Biso   1.000  H
  H58      1.0000 0.03200  0.86170  0.18030  Biso   1.000  H
  H59      1.0000 0.46800  0.36170  0.31970  Biso   1.000  H
  H60      1.0000 0.53200  0.36170  0.18030  Biso   1.000  H
  H61      1.0000 0.03200  0.13830  0.68030  Biso   1.000  H
  H62      1.0000 0.96800  0.13830  0.81970  Biso   1.000  H
  H63      1.0000 0.53200  0.63830  0.68030  Biso   1.000  H
  H64      1.0000 0.46800  0.63830  0.81970  Biso   1.000  H
  H65      1.0000 0.01470  0.95540  0.37480  Biso   1.000  H
  H66      1.0000 0.98530  0.95540  0.12520  Biso   1.000  H
  H67      1.0000 0.51470  0.45540  0.37480  Biso   1.000  H
  H68      1.0000 0.48530  0.45540  0.12520  Biso   1.000  H
  H69      1.0000 0.98530  0.04460  0.62520  Biso   1.000  H
  H70      1.0000 0.01470  0.04460  0.87480  Biso   1.000  H
  H71      1.0000 0.48530  0.54460  0.62520  Biso   1.000  H
  H72      1.0000 0.51470  0.54460  0.87480  Biso   1.000  H
  O45      1.0000 0.00000  0.36000  0.25000  Biso   1.000  O
  O46      1.0000 0.50000  0.86000  0.25000  Biso   1.000  O
  O47      1.0000 0.00000  0.64000  0.75000  Biso   1.000  O
  O48      1.0000 0.50000  0.14000  0.75000  Biso   1.000  O
  C61      1.0000 0.00000  0.44900  0.25000  Biso   1.000  C
  C62      1.0000 0.50000  0.94900  0.25000  Biso   1.000  C
  C63      1.0000 0.00000  0.55100  0.75000  Biso   1.000  C
  C64      1.0000 0.50000  0.05100  0.75000  Biso   1.000  C
  C65      1.0000 0.01170  0.50710  0.17970  Biso   1.000  C
  C66      1.0000 0.98830  0.50710  0.32030  Biso   1.000  C
  C67      1.0000 0.51170  0.00710  0.17970  Biso   1.000  C
  C68      1.0000 0.48830  0.00710  0.32030  Biso   1.000  C
  C69      1.0000 0.98830  0.49290  0.82030  Biso   1.000  C
  C70      1.0000 0.01170  0.49290  0.67970  Biso   1.000  C
  C71      1.0000 0.48830  0.99290  0.82030  Biso   1.000  C
  C72      1.0000 0.51170  0.99290  0.67970  Biso   1.000  C
  H73      1.0000 0.06330  0.47740  0.16210  Biso   1.000  H
  H74      1.0000 0.93670  0.47740  0.33790  Biso   1.000  H
  H75      1.0000 0.56330  0.97740  0.16210  Biso   1.000  H
  H76      1.0000 0.43670  0.97740  0.33790  Biso   1.000  H
  H77      1.0000 0.93670  0.52260  0.83790  Biso   1.000  H
  H78      1.0000 0.06330  0.52260  0.66210  Biso   1.000  H
  H79      1.0000 0.43670  0.02260  0.83790  Biso   1.000  H
  H80      1.0000 0.56330  0.02260  0.66210  Biso   1.000  H
  H81      1.0000 0.03310  0.57230  0.19990  Biso   1.000  H
  H82      1.0000 0.96690  0.57230  0.30010  Biso   1.000  H
  H83      1.0000 0.53310  0.07230  0.19990  Biso   1.000  H
  H84      1.0000 0.46690  0.07230  0.30010  Biso   1.000  H
  H85      1.0000 0.96690  0.42770  0.80010  Biso   1.000  H
  H86      1.0000 0.03310  0.42770  0.69990  Biso   1.000  H
  H87      1.0000 0.46690  0.92770  0.80010  Biso   1.000  H
  H88      1.0000 0.53310  0.92770  0.69990  Biso   1.000  H
  H89      1.0000 0.94640  0.50950  0.13120  Biso   1.000  H
  H90      1.0000 0.05360  0.50950  0.36880  Biso   1.000  H
  H91      1.0000 0.44640  0.00950  0.13120  Biso   1.000  H
  H92      1.0000 0.55360  0.00950  0.36880  Biso   1.000  H
  H93      1.0000 0.05360  0.49050  0.86880  Biso   1.000  H
  H94      1.0000 0.94640  0.49050  0.63120  Biso   1.000  H
  H95      1.0000 0.55360  0.99050  0.86880  Biso   1.000  H
  H96      1.0000 0.44640  0.99050  0.63120  Biso   1.000  H
