data_image0
_cell_length_a       14.5315
_cell_length_b       14.5565
_cell_length_c       23.839
_cell_angle_alpha    90
_cell_angle_beta     90
_cell_angle_gamma    90

_symmetry_space_group_name_H-M    "P 1"
_symmetry_int_tables_number       1

loop_
  _symmetry_equiv_pos_as_xyz
  'x, y, z'

loop_
  _atom_site_label
  _atom_site_occupancy
  _atom_site_fract_x
  _atom_site_fract_y
  _atom_site_fract_z
  _atom_site_thermal_displace_type
  _atom_site_B_iso_or_equiv
  _atom_site_type_symbol
  Cu1      1.0000 0.28079  0.00991  0.84769  Biso   1.000  Cu
  Cu2      1.0000 0.21921  0.99009  0.34769  Biso   1.000  Cu
  Cu3      1.0000 0.71921  0.50991  0.65231  Biso   1.000  Cu
  Cu4      1.0000 0.78079  0.49009  0.15231  Biso   1.000  Cu
  Si1      1.0000 0.78290  0.98321  0.00263  Biso   1.000  Si
  Si2      1.0000 0.71710  0.01679  0.50263  Biso   1.000  Si
  Si3      1.0000 0.21710  0.48321  0.49737  Biso   1.000  Si
  Si4      1.0000 0.28290  0.51679  0.99737  Biso   1.000  Si
  F1       1.0000 0.86700  0.90850  0.00510  Biso   1.000  F
  F2       1.0000 0.63300  0.09150  0.50510  Biso   1.000  F
  F3       1.0000 0.13300  0.40850  0.49490  Biso   1.000  F
  F4       1.0000 0.36700  0.59150  0.99490  Biso   1.000  F
  F5       1.0000 0.85640  0.06740  0.00060  Biso   1.000  F
  F6       1.0000 0.64360  0.93260  0.50060  Biso   1.000  F
  F7       1.0000 0.14360  0.56740  0.49940  Biso   1.000  F
  F8       1.0000 0.35640  0.43260  0.99940  Biso   1.000  F
  F9       1.0000 0.70780  0.89840  0.00510  Biso   1.000  F
  F10      1.0000 0.79220  0.10160  0.50510  Biso   1.000  F
  F11      1.0000 0.29220  0.39840  0.49490  Biso   1.000  F
  F12      1.0000 0.20780  0.60160  0.99490  Biso   1.000  F
  F13      1.0000 0.69910  0.05870  0.00071  Biso   1.000  F
  F14      1.0000 0.80090  0.94130  0.50071  Biso   1.000  F
  F15      1.0000 0.30090  0.55870  0.49929  Biso   1.000  F
  F16      1.0000 0.19910  0.44130  0.99929  Biso   1.000  F
  F17      1.0000 0.78250  0.97880  0.93192  Biso   1.000  F
  F18      1.0000 0.71750  0.02120  0.43192  Biso   1.000  F
  F19      1.0000 0.21750  0.47880  0.56808  Biso   1.000  F
  F20      1.0000 0.28250  0.52120  0.06808  Biso   1.000  F
  F21      1.0000 0.78210  0.99010  0.07340  Biso   1.000  F
  F22      1.0000 0.71790  0.00990  0.57340  Biso   1.000  F
  F23      1.0000 0.21790  0.49010  0.42660  Biso   1.000  F
  F24      1.0000 0.28210  0.50990  0.92660  Biso   1.000  F
  N1       1.0000 0.41210  0.05030  0.85940  Biso   1.000  N
  N2       1.0000 0.08790  0.94970  0.35940  Biso   1.000  N
  N3       1.0000 0.58790  0.55030  0.64060  Biso   1.000  N
  N4       1.0000 0.91210  0.44970  0.14060  Biso   1.000  N
  N5       1.0000 0.68590  0.12980  0.87890  Biso   1.000  N
  N6       1.0000 0.81410  0.87020  0.37890  Biso   1.000  N
  N7       1.0000 0.31410  0.62980  0.62110  Biso   1.000  N
  N8       1.0000 0.18590  0.37020  0.12110  Biso   1.000  N
  H1       1.0000 0.71710  0.09210  0.89910  Biso   1.000  H
  H2       1.0000 0.78290  0.90790  0.39910  Biso   1.000  H
  H3       1.0000 0.28290  0.59210  0.60090  Biso   1.000  H
  H4       1.0000 0.21710  0.40790  0.10090  Biso   1.000  H
  C1       1.0000 0.44560  0.12460  0.83240  Biso   1.000  C
  C2       1.0000 0.05440  0.87540  0.33240  Biso   1.000  C
  C3       1.0000 0.55440  0.62460  0.66760  Biso   1.000  C
  C4       1.0000 0.94560  0.37540  0.16760  Biso   1.000  C
  H5       1.0000 0.40640  0.15640  0.80850  Biso   1.000  H
  H6       1.0000 0.09360  0.84360  0.30850  Biso   1.000  H
  H7       1.0000 0.59360  0.65640  0.69150  Biso   1.000  H
  H8       1.0000 0.90640  0.34360  0.19150  Biso   1.000  H
  C5       1.0000 0.53420  0.15600  0.83820  Biso   1.000  C
  C6       1.0000 0.96580  0.84400  0.33820  Biso   1.000  C
  C7       1.0000 0.46580  0.65600  0.66180  Biso   1.000  C
  C8       1.0000 0.03420  0.34400  0.16180  Biso   1.000  C
  H9       1.0000 0.55310  0.20910  0.81980  Biso   1.000  H
  H10      1.0000 0.94690  0.79090  0.31980  Biso   1.000  H
  H11      1.0000 0.44690  0.70910  0.68020  Biso   1.000  H
  H12      1.0000 0.05310  0.29090  0.18020  Biso   1.000  H
  C9       1.0000 0.59520  0.10740  0.87200  Biso   1.000  C
  C10      1.0000 0.90480  0.89260  0.37200  Biso   1.000  C
  C11      1.0000 0.40480  0.60740  0.62800  Biso   1.000  C
  C12      1.0000 0.09520  0.39260  0.12800  Biso   1.000  C
  C13      1.0000 0.55890  0.03080  0.89960  Biso   1.000  C
  C14      1.0000 0.94110  0.96920  0.39960  Biso   1.000  C
  C15      1.0000 0.44110  0.53080  0.60040  Biso   1.000  C
  C16      1.0000 0.05890  0.46920  0.10040  Biso   1.000  C
  H13      1.0000 0.59650  0.99650  0.92330  Biso   1.000  H
  H14      1.0000 0.90350  0.00350  0.42330  Biso   1.000  H
  H15      1.0000 0.40350  0.49650  0.57670  Biso   1.000  H
  H16      1.0000 0.09650  0.50350  0.07670  Biso   1.000  H
  C17      1.0000 0.47120  0.00590  0.89250  Biso   1.000  C
  C18      1.0000 0.02880  0.99410  0.39250  Biso   1.000  C
  C19      1.0000 0.52880  0.50590  0.60750  Biso   1.000  C
  C20      1.0000 0.97120  0.49410  0.10750  Biso   1.000  C
  H17      1.0000 0.45010  0.95460  0.91180  Biso   1.000  H
  H18      1.0000 0.04990  0.04540  0.41180  Biso   1.000  H
  H19      1.0000 0.54990  0.45460  0.58820  Biso   1.000  H
  H20      1.0000 0.95010  0.54540  0.08820  Biso   1.000  H
  N9       1.0000 0.76630  0.63970  0.64330  Biso   1.000  N
  N10      1.0000 0.73370  0.36030  0.14330  Biso   1.000  N
  N11      1.0000 0.23370  0.13970  0.85670  Biso   1.000  N
  N12      1.0000 0.26630  0.86030  0.35670  Biso   1.000  N
  N13      1.0000 0.87320  0.90210  0.61830  Biso   1.000  N
  N14      1.0000 0.62680  0.09790  0.11830  Biso   1.000  N
  N15      1.0000 0.12680  0.40210  0.88170  Biso   1.000  N
  N16      1.0000 0.37320  0.59790  0.38170  Biso   1.000  N
  H21      1.0000 0.83930  0.93680  0.59760  Biso   1.000  H
  H22      1.0000 0.66070  0.06320  0.09760  Biso   1.000  H
  H23      1.0000 0.16070  0.43680  0.90240  Biso   1.000  H
  H24      1.0000 0.33930  0.56320  0.40240  Biso   1.000  H
  C21      1.0000 0.83000  0.67300  0.67810  Biso   1.000  C
  C22      1.0000 0.67000  0.32700  0.17810  Biso   1.000  C
  C23      1.0000 0.17000  0.17300  0.82190  Biso   1.000  C
  C24      1.0000 0.33000  0.82700  0.32190  Biso   1.000  C
  H25      1.0000 0.84870  0.63750  0.70850  Biso   1.000  H
  H26      1.0000 0.65130  0.36250  0.20850  Biso   1.000  H
  H27      1.0000 0.15130  0.13750  0.79150  Biso   1.000  H
  H28      1.0000 0.34870  0.86250  0.29150  Biso   1.000  H
  C25      1.0000 0.86880  0.75800  0.67040  Biso   1.000  C
  C26      1.0000 0.63120  0.24200  0.17040  Biso   1.000  C
  C27      1.0000 0.13120  0.25800  0.82960  Biso   1.000  C
  C28      1.0000 0.36880  0.74200  0.32960  Biso   1.000  C
  H29      1.0000 0.91460  0.77800  0.69480  Biso   1.000  H
  H30      1.0000 0.58540  0.22200  0.19480  Biso   1.000  H
  H31      1.0000 0.08540  0.27800  0.80520  Biso   1.000  H
  H32      1.0000 0.41460  0.72200  0.30520  Biso   1.000  H
  C29      1.0000 0.84080  0.81410  0.62730  Biso   1.000  C
  C30      1.0000 0.65920  0.18590  0.12730  Biso   1.000  C
  C31      1.0000 0.15920  0.31410  0.87270  Biso   1.000  C
  C32      1.0000 0.34080  0.68590  0.37270  Biso   1.000  C
  C33      1.0000 0.77230  0.78030  0.59210  Biso   1.000  C
  C34      1.0000 0.72770  0.21970  0.09210  Biso   1.000  C
  C35      1.0000 0.22770  0.28030  0.90790  Biso   1.000  C
  C36      1.0000 0.27230  0.71970  0.40790  Biso   1.000  C
  H33      1.0000 0.74980  0.81640  0.56290  Biso   1.000  H
  H34      1.0000 0.75020  0.18360  0.06290  Biso   1.000  H
  H35      1.0000 0.25020  0.31640  0.93710  Biso   1.000  H
  H36      1.0000 0.24980  0.68360  0.43710  Biso   1.000  H
  C37      1.0000 0.73790  0.69260  0.60050  Biso   1.000  C
  C38      1.0000 0.76210  0.30740  0.10050  Biso   1.000  C
  C39      1.0000 0.26210  0.19260  0.89950  Biso   1.000  C
  C40      1.0000 0.23790  0.80740  0.39950  Biso   1.000  C
  H37      1.0000 0.69380  0.66980  0.57590  Biso   1.000  H
  H38      1.0000 0.80620  0.33020  0.07590  Biso   1.000  H
  H39      1.0000 0.30620  0.16980  0.92410  Biso   1.000  H
  H40      1.0000 0.19380  0.83020  0.42410  Biso   1.000  H
  O1       1.0000 0.69880  0.26360  0.83310  Biso   1.000  O
  O2       1.0000 0.80120  0.73640  0.33310  Biso   1.000  O
  O3       1.0000 0.30120  0.76360  0.66690  Biso   1.000  O
  O4       1.0000 0.19880  0.23640  0.16690  Biso   1.000  O
  O5       1.0000 0.00860  0.89920  0.66490  Biso   1.000  O
  O6       1.0000 0.49140  0.10080  0.16490  Biso   1.000  O
  O7       1.0000 0.99140  0.39920  0.83510  Biso   1.000  O
  O8       1.0000 0.50860  0.60080  0.33510  Biso   1.000  O
  C41      1.0000 0.73390  0.20200  0.85900  Biso   1.000  C
  C42      1.0000 0.76610  0.79800  0.35900  Biso   1.000  C
  C43      1.0000 0.26610  0.70200  0.64100  Biso   1.000  C
  C44      1.0000 0.23390  0.29800  0.14100  Biso   1.000  C
  C45      1.0000 0.95200  0.94080  0.63820  Biso   1.000  C
  C46      1.0000 0.54800  0.05920  0.13820  Biso   1.000  C
  C47      1.0000 0.04800  0.44080  0.86180  Biso   1.000  C
  C48      1.0000 0.45200  0.55920  0.36180  Biso   1.000  C
  C49      1.0000 0.83580  0.19570  0.86640  Biso   1.000  C
  C50      1.0000 0.66420  0.80430  0.36640  Biso   1.000  C
  C51      1.0000 0.16420  0.69570  0.63360  Biso   1.000  C
  C52      1.0000 0.33580  0.30430  0.13360  Biso   1.000  C
  H41      1.0000 0.84880  0.17730  0.90460  Biso   1.000  H
  H42      1.0000 0.65120  0.82270  0.40460  Biso   1.000  H
  H43      1.0000 0.15120  0.67730  0.59540  Biso   1.000  H
  H44      1.0000 0.34880  0.32270  0.09540  Biso   1.000  H
  H45      1.0000 0.86230  0.25620  0.86080  Biso   1.000  H
  H46      1.0000 0.63770  0.74380  0.36080  Biso   1.000  H
  H47      1.0000 0.13770  0.75620  0.63920  Biso   1.000  H
  H48      1.0000 0.36230  0.24380  0.13920  Biso   1.000  H
  C53      1.0000 0.88200  0.12900  0.82690  Biso   1.000  C
  C54      1.0000 0.61800  0.87100  0.32690  Biso   1.000  C
  C55      1.0000 0.11800  0.62900  0.67310  Biso   1.000  C
  C56      1.0000 0.38200  0.37100  0.17310  Biso   1.000  C
  H49      1.0000 0.94790  0.13090  0.83330  Biso   1.000  H
  H50      1.0000 0.55210  0.86910  0.33330  Biso   1.000  H
  H51      1.0000 0.05210  0.63090  0.66670  Biso   1.000  H
  H52      1.0000 0.44790  0.36910  0.16670  Biso   1.000  H
  H53      1.0000 0.86110  0.06730  0.83560  Biso   1.000  H
  H54      1.0000 0.63890  0.93270  0.33560  Biso   1.000  H
  H55      1.0000 0.13890  0.56730  0.66440  Biso   1.000  H
  H56      1.0000 0.36110  0.43270  0.16440  Biso   1.000  H
  C57      1.0000 0.86370  0.14810  0.76610  Biso   1.000  C
  C58      1.0000 0.63630  0.85190  0.26610  Biso   1.000  C
  C59      1.0000 0.13630  0.64810  0.73390  Biso   1.000  C
  C60      1.0000 0.36370  0.35190  0.23390  Biso   1.000  C
  H57      1.0000 0.87920  0.21150  0.75790  Biso   1.000  H
  H58      1.0000 0.62080  0.78850  0.25790  Biso   1.000  H
  H59      1.0000 0.12080  0.71150  0.74210  Biso   1.000  H
  H60      1.0000 0.37920  0.28850  0.24210  Biso   1.000  H
  H61      1.0000 0.79860  0.13990  0.75860  Biso   1.000  H
  H62      1.0000 0.70140  0.86010  0.25860  Biso   1.000  H
  H63      1.0000 0.20140  0.63990  0.74140  Biso   1.000  H
  H64      1.0000 0.29860  0.36010  0.24140  Biso   1.000  H
  C61      1.0000 0.91880  0.08550  0.72780  Biso   1.000  C
  C62      1.0000 0.58120  0.91450  0.22780  Biso   1.000  C
  C63      1.0000 0.08120  0.58550  0.77220  Biso   1.000  C
  C64      1.0000 0.41880  0.41450  0.27220  Biso   1.000  C
  H65      1.0000 0.98390  0.09640  0.73410  Biso   1.000  H
  H66      1.0000 0.51610  0.90360  0.23410  Biso   1.000  H
  H67      1.0000 0.01610  0.59640  0.76590  Biso   1.000  H
  H68      1.0000 0.48390  0.40360  0.26590  Biso   1.000  H
  H69      1.0000 0.90610  0.02210  0.73780  Biso   1.000  H
  H70      1.0000 0.59390  0.97790  0.23780  Biso   1.000  H
  H71      1.0000 0.09390  0.52210  0.76220  Biso   1.000  H
  H72      1.0000 0.40610  0.47790  0.26220  Biso   1.000  H
  C65      1.0000 0.89810  0.09880  0.66600  Biso   1.000  C
  C66      1.0000 0.60190  0.90120  0.16600  Biso   1.000  C
  C67      1.0000 0.10190  0.59880  0.83400  Biso   1.000  C
  C68      1.0000 0.39810  0.40120  0.33400  Biso   1.000  C
  H73      1.0000 0.90550  0.16330  0.65690  Biso   1.000  H
  H74      1.0000 0.59450  0.83670  0.15690  Biso   1.000  H
  H75      1.0000 0.09450  0.66330  0.84310  Biso   1.000  H
  H76      1.0000 0.40550  0.33670  0.34310  Biso   1.000  H
  H77      1.0000 0.83420  0.08290  0.65930  Biso   1.000  H
  H78      1.0000 0.66580  0.91710  0.15930  Biso   1.000  H
  H79      1.0000 0.16580  0.58290  0.84070  Biso   1.000  H
  H80      1.0000 0.33420  0.41710  0.34070  Biso   1.000  H
  C69      1.0000 0.95830  0.04230  0.62600  Biso   1.000  C
  C70      1.0000 0.54170  0.95770  0.12600  Biso   1.000  C
  C71      1.0000 0.04170  0.54230  0.87400  Biso   1.000  C
  C72      1.0000 0.45830  0.45770  0.37400  Biso   1.000  C
  H81      1.0000 0.93900  0.05360  0.58770  Biso   1.000  H
  H82      1.0000 0.56100  0.94640  0.08770  Biso   1.000  H
  H83      1.0000 0.06100  0.55360  0.91230  Biso   1.000  H
  H84      1.0000 0.43900  0.44640  0.41230  Biso   1.000  H
  H85      1.0000 0.02180  0.06190  0.62970  Biso   1.000  H
  H86      1.0000 0.47820  0.93810  0.12970  Biso   1.000  H
  H87      1.0000 0.97820  0.56190  0.87030  Biso   1.000  H
  H88      1.0000 0.52180  0.43810  0.37030  Biso   1.000  H
  C73      1.0000 0.47610  0.55960  0.82910  Biso   1.000  C
  C74      1.0000 0.02390  0.44040  0.32910  Biso   1.000  C
  C75      1.0000 0.52390  0.05960  0.67090  Biso   1.000  C
  C76      1.0000 0.97610  0.94040  0.17090  Biso   1.000  C
  C77      1.0000 0.47640  0.45650  0.83910  Biso   1.000  C
  C78      1.0000 0.02360  0.54350  0.33910  Biso   1.000  C
  C79      1.0000 0.52360  0.95650  0.66090  Biso   1.000  C
  C80      1.0000 0.97640  0.04350  0.16090  Biso   1.000  C
  H89      1.0000 0.53340  0.43190  0.82430  Biso   1.000  H
  H90      1.0000 0.96660  0.56810  0.32430  Biso   1.000  H
  H91      1.0000 0.46660  0.93190  0.67570  Biso   1.000  H
  H92      1.0000 0.03340  0.06810  0.17570  Biso   1.000  H
  H93      1.0000 0.47660  0.44610  0.87930  Biso   1.000  H
  H94      1.0000 0.02340  0.55390  0.37930  Biso   1.000  H
  H95      1.0000 0.52340  0.94610  0.62070  Biso   1.000  H
  H96      1.0000 0.97660  0.05390  0.12070  Biso   1.000  H
  C81      1.0000 0.40010  0.40390  0.81490  Biso   1.000  C
  C82      1.0000 0.09990  0.59610  0.31490  Biso   1.000  C
  C83      1.0000 0.59990  0.90390  0.68510  Biso   1.000  C
  C84      1.0000 0.90010  0.09610  0.18510  Biso   1.000  C
  H97      1.0000 0.34420  0.41870  0.83520  Biso   1.000  H
  H98      1.0000 0.15580  0.58130  0.33520  Biso   1.000  H
  H99      1.0000 0.65580  0.91870  0.66480  Biso   1.000  H
  H100     1.0000 0.84420  0.08130  0.16480  Biso   1.000  H
  H101     1.0000 0.41220  0.33900  0.82030  Biso   1.000  H
  H102     1.0000 0.08780  0.66100  0.32030  Biso   1.000  H
  H103     1.0000 0.58780  0.83900  0.67970  Biso   1.000  H
  H104     1.0000 0.91220  0.16100  0.17970  Biso   1.000  H
  C85      1.0000 0.38440  0.42060  0.75530  Biso   1.000  C
  C86      1.0000 0.11560  0.57940  0.25530  Biso   1.000  C
  C87      1.0000 0.61560  0.92060  0.74470  Biso   1.000  C
  C88      1.0000 0.88440  0.07940  0.24470  Biso   1.000  C
  H105     1.0000 0.44220  0.41630  0.73510  Biso   1.000  H
  H106     1.0000 0.05780  0.58370  0.23510  Biso   1.000  H
  H107     1.0000 0.55780  0.91630  0.76490  Biso   1.000  H
  H108     1.0000 0.94220  0.08370  0.26490  Biso   1.000  H
  H109     1.0000 0.35980  0.48190  0.75000  Biso   1.000  H
  H110     1.0000 0.14020  0.51810  0.25000  Biso   1.000  H
  H111     1.0000 0.64020  0.98190  0.75000  Biso   1.000  H
  H112     1.0000 0.85980  0.01810  0.25000  Biso   1.000  H
  C89      1.0000 0.31630  0.34940  0.73250  Biso   1.000  C
  C90      1.0000 0.18370  0.65060  0.23250  Biso   1.000  C
  C91      1.0000 0.68370  0.84940  0.76750  Biso   1.000  C
  C92      1.0000 0.81630  0.15060  0.26750  Biso   1.000  C
  H113     1.0000 0.32870  0.29150  0.75120  Biso   1.000  H
  H114     1.0000 0.17130  0.70850  0.25120  Biso   1.000  H
  H115     1.0000 0.67130  0.79150  0.74880  Biso   1.000  H
  H116     1.0000 0.82870  0.20850  0.24880  Biso   1.000  H
  H117     1.0000 0.25490  0.36840  0.74350  Biso   1.000  H
  H118     1.0000 0.24510  0.63160  0.24350  Biso   1.000  H
  H119     1.0000 0.74510  0.86840  0.75650  Biso   1.000  H
  H120     1.0000 0.75490  0.13160  0.25650  Biso   1.000  H
  C93      1.0000 0.31550  0.33260  0.67270  Biso   1.000  C
  C94      1.0000 0.18450  0.66740  0.17270  Biso   1.000  C
  C95      1.0000 0.68450  0.83260  0.82730  Biso   1.000  C
  C96      1.0000 0.81550  0.16740  0.32730  Biso   1.000  C
  H121     1.0000 0.37770  0.31540  0.66210  Biso   1.000  H
  H122     1.0000 0.12230  0.68460  0.16210  Biso   1.000  H
  H123     1.0000 0.62230  0.81540  0.83790  Biso   1.000  H
  H124     1.0000 0.87770  0.18460  0.33790  Biso   1.000  H
  H125     1.0000 0.30290  0.39100  0.65460  Biso   1.000  H
  H126     1.0000 0.19710  0.60900  0.15460  Biso   1.000  H
  H127     1.0000 0.69710  0.89100  0.84540  Biso   1.000  H
  H128     1.0000 0.80290  0.10900  0.34540  Biso   1.000  H
  C97      1.0000 0.25210  0.26300  0.64660  Biso   1.000  C
  C98      1.0000 0.24790  0.73700  0.14660  Biso   1.000  C
  C99      1.0000 0.74790  0.76300  0.85340  Biso   1.000  C
  C100     1.0000 0.75210  0.23700  0.35340  Biso   1.000  C
  H129     1.0000 0.26970  0.20220  0.65940  Biso   1.000  H
  H130     1.0000 0.23030  0.79780  0.15940  Biso   1.000  H
  H131     1.0000 0.73030  0.70220  0.84060  Biso   1.000  H
  H132     1.0000 0.76970  0.29780  0.34060  Biso   1.000  H
  H133     1.0000 0.25990  0.26460  0.60620  Biso   1.000  H
  H134     1.0000 0.24010  0.73540  0.10620  Biso   1.000  H
  H135     1.0000 0.74010  0.76460  0.89380  Biso   1.000  H
  H136     1.0000 0.75990  0.23540  0.39380  Biso   1.000  H
  C101     1.0000 0.15110  0.27860  0.66020  Biso   1.000  C
  C102     1.0000 0.34890  0.72140  0.16020  Biso   1.000  C
  C103     1.0000 0.84890  0.77860  0.83980  Biso   1.000  C
  C104     1.0000 0.65110  0.22140  0.33980  Biso   1.000  C
  N17      1.0000 0.31950  0.87740  0.84680  Biso   1.000  N
  N18      1.0000 0.18050  0.12260  0.34680  Biso   1.000  N
  N19      1.0000 0.68050  0.37740  0.65320  Biso   1.000  N
  N20      1.0000 0.81950  0.62260  0.15320  Biso   1.000  N
  N21      1.0000 0.40600  0.60440  0.85650  Biso   1.000  N
  N22      1.0000 0.09400  0.39560  0.35650  Biso   1.000  N
  N23      1.0000 0.59400  0.10440  0.64350  Biso   1.000  N
  N24      1.0000 0.90600  0.89560  0.14350  Biso   1.000  N
  H137     1.0000 0.37470  0.57170  0.87970  Biso   1.000  H
  H138     1.0000 0.12530  0.42830  0.37970  Biso   1.000  H
  H139     1.0000 0.62530  0.07170  0.62030  Biso   1.000  H
  H140     1.0000 0.87470  0.92830  0.12030  Biso   1.000  H
  C105     1.0000 0.37900  0.84360  0.81080  Biso   1.000  C
  C106     1.0000 0.12100  0.15640  0.31080  Biso   1.000  C
  C107     1.0000 0.62100  0.34360  0.68920  Biso   1.000  C
  C108     1.0000 0.87900  0.65640  0.18920  Biso   1.000  C
  H141     1.0000 0.40010  0.88280  0.78290  Biso   1.000  H
  H142     1.0000 0.09990  0.11720  0.28290  Biso   1.000  H
  H143     1.0000 0.59990  0.38280  0.71710  Biso   1.000  H
  H144     1.0000 0.90010  0.61720  0.21710  Biso   1.000  H
  C109     1.0000 0.41250  0.75610  0.81090  Biso   1.000  C
  C110     1.0000 0.08750  0.24390  0.31090  Biso   1.000  C
  C111     1.0000 0.58750  0.25610  0.68910  Biso   1.000  C
  C112     1.0000 0.91250  0.74390  0.18910  Biso   1.000  C
  H145     1.0000 0.45610  0.73740  0.78470  Biso   1.000  H
  H146     1.0000 0.04390  0.26260  0.28470  Biso   1.000  H
  H147     1.0000 0.54390  0.23740  0.71530  Biso   1.000  H
  H148     1.0000 0.95610  0.76260  0.21530  Biso   1.000  H
  C113     1.0000 0.37930  0.69550  0.85150  Biso   1.000  C
  C114     1.0000 0.12070  0.30450  0.35150  Biso   1.000  C
  C115     1.0000 0.62070  0.19550  0.64850  Biso   1.000  C
  C116     1.0000 0.87930  0.80450  0.14850  Biso   1.000  C
  C117     1.0000 0.31600  0.72980  0.88850  Biso   1.000  C
  C118     1.0000 0.18400  0.27020  0.38850  Biso   1.000  C
  C119     1.0000 0.68400  0.22980  0.61150  Biso   1.000  C
  C120     1.0000 0.81600  0.77020  0.11150  Biso   1.000  C
  H149     1.0000 0.29170  0.69140  0.91590  Biso   1.000  H
  H150     1.0000 0.20830  0.30860  0.41590  Biso   1.000  H
  H151     1.0000 0.70830  0.19140  0.58410  Biso   1.000  H
  H152     1.0000 0.79170  0.80860  0.08410  Biso   1.000  H
  C121     1.0000 0.28810  0.81810  0.88600  Biso   1.000  C
  C122     1.0000 0.21190  0.18190  0.38600  Biso   1.000  C
  C123     1.0000 0.71190  0.31810  0.61400  Biso   1.000  C
  C124     1.0000 0.78810  0.68190  0.11400  Biso   1.000  C
  H153     1.0000 0.24560  0.83900  0.91220  Biso   1.000  H
  H154     1.0000 0.25440  0.16100  0.41220  Biso   1.000  H
  H155     1.0000 0.75440  0.33900  0.58780  Biso   1.000  H
  H156     1.0000 0.74560  0.66100  0.08780  Biso   1.000  H
  N25      1.0000 0.85120  0.46550  0.65120  Biso   1.000  N
  N26      1.0000 0.64880  0.53450  0.15120  Biso   1.000  N
  N27      1.0000 0.14880  0.96550  0.84880  Biso   1.000  N
  N28      1.0000 0.35120  0.03450  0.34880  Biso   1.000  N
  N29      1.0000 0.11310  0.35280  0.63390  Biso   1.000  N
  N30      1.0000 0.38690  0.64720  0.13390  Biso   1.000  N
  N31      1.0000 0.88690  0.85280  0.86610  Biso   1.000  N
  N32      1.0000 0.61310  0.14720  0.36610  Biso   1.000  N
  H157     1.0000 0.14710  0.37970  0.60940  Biso   1.000  H
  H158     1.0000 0.35290  0.62030  0.10940  Biso   1.000  H
  H159     1.0000 0.85290  0.87970  0.89060  Biso   1.000  H
  H160     1.0000 0.64710  0.12030  0.39060  Biso   1.000  H
  C125     1.0000 0.90590  0.48550  0.60840  Biso   1.000  C
  C126     1.0000 0.59410  0.51450  0.10840  Biso   1.000  C
  C127     1.0000 0.09410  0.98550  0.89160  Biso   1.000  C
  C128     1.0000 0.40590  0.01450  0.39160  Biso   1.000  C
  H161     1.0000 0.88380  0.52480  0.58080  Biso   1.000  H
  H162     1.0000 0.61620  0.47520  0.08080  Biso   1.000  H
  H163     1.0000 0.11620  0.02480  0.91920  Biso   1.000  H
  H164     1.0000 0.38380  0.97520  0.41920  Biso   1.000  H
  C129     1.0000 0.99200  0.45180  0.60260  Biso   1.000  C
  C130     1.0000 0.50800  0.54820  0.10260  Biso   1.000  C
  C131     1.0000 0.00800  0.95180  0.89740  Biso   1.000  C
  C132     1.0000 0.49200  0.04820  0.39740  Biso   1.000  C
  H165     1.0000 0.02850  0.46970  0.57240  Biso   1.000  H
  H166     1.0000 0.47150  0.53030  0.07240  Biso   1.000  H
  H167     1.0000 0.97150  0.96970  0.92760  Biso   1.000  H
  H168     1.0000 0.52850  0.03030  0.42760  Biso   1.000  H
  C133     1.0000 0.02560  0.39030  0.64220  Biso   1.000  C
  C134     1.0000 0.47440  0.60970  0.14220  Biso   1.000  C
  C135     1.0000 0.97440  0.89030  0.85780  Biso   1.000  C
  C136     1.0000 0.52560  0.10970  0.35780  Biso   1.000  C
  C137     1.0000 0.96960  0.36760  0.68660  Biso   1.000  C
  C138     1.0000 0.53040  0.63240  0.18660  Biso   1.000  C
  C139     1.0000 0.03040  0.86760  0.81340  Biso   1.000  C
  C140     1.0000 0.46960  0.13240  0.31340  Biso   1.000  C
  H169     1.0000 0.98960  0.32640  0.71380  Biso   1.000  H
  H170     1.0000 0.51040  0.67360  0.21380  Biso   1.000  H
  H171     1.0000 0.01040  0.82640  0.78620  Biso   1.000  H
  H172     1.0000 0.48960  0.17360  0.28620  Biso   1.000  H
  C141     1.0000 0.88300  0.40680  0.69010  Biso   1.000  C
  C142     1.0000 0.61700  0.59320  0.19010  Biso   1.000  C
  C143     1.0000 0.11700  0.90680  0.80990  Biso   1.000  C
  C144     1.0000 0.38300  0.09320  0.30990  Biso   1.000  C
  H173     1.0000 0.84560  0.39200  0.72040  Biso   1.000  H
  H174     1.0000 0.65440  0.60800  0.22040  Biso   1.000  H
  H175     1.0000 0.15440  0.89200  0.77960  Biso   1.000  H
  H176     1.0000 0.34560  0.10800  0.27960  Biso   1.000  H
  O9       1.0000 0.11040  0.23150  0.69360  Biso   1.000  O
  O10      1.0000 0.38960  0.76850  0.19360  Biso   1.000  O
  O11      1.0000 0.88960  0.73150  0.80640  Biso   1.000  O
  O12      1.0000 0.61040  0.26850  0.30640  Biso   1.000  O
  O13      1.0000 0.53000  0.59740  0.79880  Biso   1.000  O
  O14      1.0000 0.97000  0.40260  0.29880  Biso   1.000  O
  O15      1.0000 0.47000  0.09740  0.70120  Biso   1.000  O
  O16      1.0000 0.03000  0.90260  0.20120  Biso   1.000  O
  O17      1.0000 0.30150  0.02900  0.75037  Biso   1.000  O
  O18      1.0000 0.19850  0.97100  0.25037  Biso   1.000  O
  O19      1.0000 0.69850  0.52900  0.74963  Biso   1.000  O
  O20      1.0000 0.80150  0.47100  0.24963  Biso   1.000  O
  O21      1.0000 0.28430  0.99140  0.96900  Biso   1.000  O
  O22      1.0000 0.21570  0.00860  0.46900  Biso   1.000  O
  O23      1.0000 0.71570  0.49140  0.53100  Biso   1.000  O
  O24      1.0000 0.78430  0.50860  0.03100  Biso   1.000  O
  O25      1.0000 0.79640  0.43040  0.82750  Biso   1.000  O
  O26      1.0000 0.70360  0.56960  0.32750  Biso   1.000  O
  O27      1.0000 0.20360  0.93040  0.67250  Biso   1.000  O
  O28      1.0000 0.29640  0.06960  0.17250  Biso   1.000  O
  O29      1.0000 0.04210  0.13700  0.02020  Biso   1.000  O
  O30      1.0000 0.45790  0.86300  0.52020  Biso   1.000  O
  O31      1.0000 0.95790  0.63700  0.47980  Biso   1.000  O
  O32      1.0000 0.54210  0.36300  0.97980  Biso   1.000  O
  O33      1.0000 0.99460  0.26300  0.99070  Biso   1.000  O
  O34      1.0000 0.50540  0.73700  0.49070  Biso   1.000  O
  O35      1.0000 0.00540  0.76300  0.50930  Biso   1.000  O
  O36      1.0000 0.49460  0.23700  0.00930  Biso   1.000  O
