data_image0
_cell_length_a       14.262
_cell_length_b       14.562
_cell_length_c       23.545
_cell_angle_alpha    90
_cell_angle_beta     90
_cell_angle_gamma    90

_symmetry_space_group_name_H-M    "P 1"
_symmetry_int_tables_number       1

loop_
  _symmetry_equiv_pos_as_xyz
  'x, y, z'

loop_
  _atom_site_label
  _atom_site_occupancy
  _atom_site_fract_x
  _atom_site_fract_y
  _atom_site_fract_z
  _atom_site_thermal_displace_type
  _atom_site_B_iso_or_equiv
  _atom_site_type_symbol
  Cu1      1.0000 0.22721  0.96890  0.88705  Biso   1.000  Cu
  Cu2      1.0000 0.27279  0.03110  0.38705  Biso   1.000  Cu
  Cu3      1.0000 0.77279  0.46890  0.61295  Biso   1.000  Cu
  Cu4      1.0000 0.72721  0.53110  0.11295  Biso   1.000  Cu
  S1       1.0000 0.28863  0.46316  0.74627  Biso   1.000  S
  S2       1.0000 0.21137  0.53684  0.24627  Biso   1.000  S
  S3       1.0000 0.71137  0.96316  0.75373  Biso   1.000  S
  S4       1.0000 0.78863  0.03684  0.25373  Biso   1.000  S
  O1       1.0000 0.38010  0.43760  0.76909  Biso   1.000  O
  O2       1.0000 0.11990  0.56240  0.26909  Biso   1.000  O
  O3       1.0000 0.61990  0.93760  0.73091  Biso   1.000  O
  O4       1.0000 0.88010  0.06240  0.23091  Biso   1.000  O
  O5       1.0000 0.26250  0.40020  0.70047  Biso   1.000  O
  O6       1.0000 0.23750  0.59980  0.20047  Biso   1.000  O
  O7       1.0000 0.73750  0.90020  0.79953  Biso   1.000  O
  O8       1.0000 0.76250  0.09980  0.29953  Biso   1.000  O
  O9       1.0000 0.29460  0.55660  0.72329  Biso   1.000  O
  O10      1.0000 0.20540  0.44340  0.22329  Biso   1.000  O
  O11      1.0000 0.70540  0.05660  0.77671  Biso   1.000  O
  O12      1.0000 0.79460  0.94340  0.27671  Biso   1.000  O
  O13      1.0000 0.21770  0.45750  0.79028  Biso   1.000  O
  O14      1.0000 0.28230  0.54250  0.29028  Biso   1.000  O
  O15      1.0000 0.78230  0.95750  0.70972  Biso   1.000  O
  O16      1.0000 0.71770  0.04250  0.20972  Biso   1.000  O
  O17      1.0000 0.14070  0.77850  0.04125  Biso   1.000  O
  O18      1.0000 0.35930  0.22150  0.54125  Biso   1.000  O
  O19      1.0000 0.85930  0.27850  0.45875  Biso   1.000  O
  O20      1.0000 0.64070  0.72150  0.95875  Biso   1.000  O
  N1       1.0000 0.39720  0.35860  0.88050  Biso   1.000  N
  N2       1.0000 0.10280  0.64140  0.38050  Biso   1.000  N
  N3       1.0000 0.60280  0.85860  0.61950  Biso   1.000  N
  N4       1.0000 0.89720  0.14140  0.11950  Biso   1.000  N
  H1       1.0000 0.37810  0.39160  0.85250  Biso   1.000  H
  H2       1.0000 0.12190  0.60840  0.35250  Biso   1.000  H
  H3       1.0000 0.62190  0.89160  0.64750  Biso   1.000  H
  H4       1.0000 0.87810  0.10840  0.14750  Biso   1.000  H
  N5       1.0000 0.14140  0.65740  0.10186  Biso   1.000  N
  N6       1.0000 0.35860  0.34260  0.60186  Biso   1.000  N
  N7       1.0000 0.85860  0.15740  0.39814  Biso   1.000  N
  N8       1.0000 0.64140  0.84260  0.89814  Biso   1.000  N
  H5       1.0000 0.17750  0.62660  0.12400  Biso   1.000  H
  H6       1.0000 0.32250  0.37340  0.62400  Biso   1.000  H
  H7       1.0000 0.82250  0.12660  0.37600  Biso   1.000  H
  H8       1.0000 0.67750  0.87340  0.87600  Biso   1.000  H
  O21      1.0000 0.48000  0.95110  0.08188  Biso   1.000  O
  O22      1.0000 0.02000  0.04890  0.58188  Biso   1.000  O
  O23      1.0000 0.52000  0.45110  0.41812  Biso   1.000  O
  O24      1.0000 0.98000  0.54890  0.91812  Biso   1.000  O
  N9       1.0000 0.09448  0.01507  0.87923  Biso   1.000  N
  N10      1.0000 0.40552  0.98493  0.37923  Biso   1.000  N
  N11      1.0000 0.90552  0.51507  0.62077  Biso   1.000  N
  N12      1.0000 0.59448  0.48493  0.12077  Biso   1.000  N
  C1       1.0000 0.03740  0.99390  0.83580  Biso   1.000  C
  C2       1.0000 0.46260  0.00610  0.33580  Biso   1.000  C
  C3       1.0000 0.96260  0.49390  0.66420  Biso   1.000  C
  C4       1.0000 0.53740  0.50610  0.16420  Biso   1.000  C
  H9       1.0000 0.05850  0.95180  0.80900  Biso   1.000  H
  H10      1.0000 0.44150  0.04820  0.30900  Biso   1.000  H
  H11      1.0000 0.94150  0.45180  0.69100  Biso   1.000  H
  H12      1.0000 0.55850  0.54820  0.19100  Biso   1.000  H
  C5       1.0000 0.95060  0.03040  0.82891  Biso   1.000  C
  C6       1.0000 0.54940  0.96960  0.32891  Biso   1.000  C
  C7       1.0000 0.04940  0.53040  0.67109  Biso   1.000  C
  C8       1.0000 0.45060  0.46960  0.17109  Biso   1.000  C
  H13      1.0000 0.91310  0.01170  0.79880  Biso   1.000  H
  H14      1.0000 0.58690  0.98830  0.29880  Biso   1.000  H
  H15      1.0000 0.08690  0.51170  0.70120  Biso   1.000  H
  H16      1.0000 0.41310  0.48830  0.20120  Biso   1.000  H
  C9       1.0000 0.91790  0.09590  0.86690  Biso   1.000  C
  C10      1.0000 0.58210  0.90410  0.36690  Biso   1.000  C
  C11      1.0000 0.08210  0.59590  0.63310  Biso   1.000  C
  C12      1.0000 0.41790  0.40410  0.13310  Biso   1.000  C
  C13      1.0000 0.97600  0.11830  0.91185  Biso   1.000  C
  C14      1.0000 0.52400  0.88170  0.41185  Biso   1.000  C
  C15      1.0000 0.02400  0.61830  0.58815  Biso   1.000  C
  C16      1.0000 0.47600  0.38170  0.08815  Biso   1.000  C
  H17      1.0000 0.95720  0.16150  0.93860  Biso   1.000  H
  H18      1.0000 0.54280  0.83850  0.43860  Biso   1.000  H
  H19      1.0000 0.04280  0.66150  0.56140  Biso   1.000  H
  H20      1.0000 0.45720  0.33850  0.06140  Biso   1.000  H
  C17      1.0000 0.06160  0.07610  0.91655  Biso   1.000  C
  C18      1.0000 0.43840  0.92390  0.41655  Biso   1.000  C
  C19      1.0000 0.93840  0.57610  0.58345  Biso   1.000  C
  C20      1.0000 0.56160  0.42390  0.08345  Biso   1.000  C
  H21      1.0000 0.09900  0.09090  0.94760  Biso   1.000  H
  H22      1.0000 0.40100  0.90910  0.44760  Biso   1.000  H
  H23      1.0000 0.90100  0.59090  0.55240  Biso   1.000  H
  H24      1.0000 0.59900  0.40910  0.05240  Biso   1.000  H
  N13      1.0000 0.68650  0.66368  0.12169  Biso   1.000  N
  N14      1.0000 0.81350  0.33632  0.62169  Biso   1.000  N
  N15      1.0000 0.31350  0.16368  0.37831  Biso   1.000  N
  N16      1.0000 0.18650  0.83632  0.87831  Biso   1.000  N
  C21      1.0000 0.73270  0.72340  0.15537  Biso   1.000  C
  C22      1.0000 0.76730  0.27660  0.65537  Biso   1.000  C
  C23      1.0000 0.26730  0.22340  0.34463  Biso   1.000  C
  C24      1.0000 0.23270  0.77660  0.84463  Biso   1.000  C
  H25      1.0000 0.78360  0.70200  0.17620  Biso   1.000  H
  H26      1.0000 0.71640  0.29800  0.67620  Biso   1.000  H
  H27      1.0000 0.21640  0.20200  0.32380  Biso   1.000  H
  H28      1.0000 0.28360  0.79800  0.82380  Biso   1.000  H
  C25      1.0000 0.70870  0.81280  0.16031  Biso   1.000  C
  C26      1.0000 0.79130  0.18720  0.66031  Biso   1.000  C
  C27      1.0000 0.29130  0.31280  0.33969  Biso   1.000  C
  C28      1.0000 0.20870  0.68720  0.83969  Biso   1.000  C
  H29      1.0000 0.74230  0.85120  0.18450  Biso   1.000  H
  H30      1.0000 0.75770  0.14880  0.68450  Biso   1.000  H
  H31      1.0000 0.25770  0.35120  0.31550  Biso   1.000  H
  H32      1.0000 0.24230  0.64880  0.81550  Biso   1.000  H
  C29      1.0000 0.63370  0.84720  0.12913  Biso   1.000  C
  C30      1.0000 0.86630  0.15280  0.62913  Biso   1.000  C
  C31      1.0000 0.36630  0.34720  0.37087  Biso   1.000  C
  C32      1.0000 0.13370  0.65280  0.87087  Biso   1.000  C
  C33      1.0000 0.58550  0.78610  0.09443  Biso   1.000  C
  C34      1.0000 0.91450  0.21390  0.59443  Biso   1.000  C
  C35      1.0000 0.41450  0.28610  0.40557  Biso   1.000  C
  C36      1.0000 0.08550  0.71390  0.90557  Biso   1.000  C
  H33      1.0000 0.53460  0.80570  0.07290  Biso   1.000  H
  H34      1.0000 0.96540  0.19430  0.57290  Biso   1.000  H
  H35      1.0000 0.46540  0.30570  0.42710  Biso   1.000  H
  H36      1.0000 0.03460  0.69430  0.92710  Biso   1.000  H
  C37      1.0000 0.61440  0.69670  0.09256  Biso   1.000  C
  C38      1.0000 0.88560  0.30330  0.59256  Biso   1.000  C
  C39      1.0000 0.38560  0.19670  0.40744  Biso   1.000  C
  C40      1.0000 0.11440  0.80330  0.90744  Biso   1.000  C
  H37      1.0000 0.58140  0.65630  0.06940  Biso   1.000  H
  H38      1.0000 0.91860  0.34370  0.56940  Biso   1.000  H
  H39      1.0000 0.41860  0.15630  0.43060  Biso   1.000  H
  H40      1.0000 0.08140  0.84370  0.93060  Biso   1.000  H
  C41      1.0000 0.79600  0.21340  0.88280  Biso   1.000  C
  C42      1.0000 0.70400  0.78660  0.38280  Biso   1.000  C
  C43      1.0000 0.20400  0.71340  0.61720  Biso   1.000  C
  C44      1.0000 0.29600  0.28660  0.11720  Biso   1.000  C
  C45      1.0000 0.69210  0.22720  0.87510  Biso   1.000  C
  C46      1.0000 0.80790  0.77280  0.37510  Biso   1.000  C
  C47      1.0000 0.30790  0.72720  0.62490  Biso   1.000  C
  C48      1.0000 0.19210  0.27280  0.12490  Biso   1.000  C
  H41      1.0000 0.67530  0.21510  0.83590  Biso   1.000  H
  H42      1.0000 0.82470  0.78490  0.33590  Biso   1.000  H
  H43      1.0000 0.32470  0.71510  0.66410  Biso   1.000  H
  H44      1.0000 0.17530  0.28490  0.16410  Biso   1.000  H
  H45      1.0000 0.67610  0.29050  0.88350  Biso   1.000  H
  H46      1.0000 0.82390  0.70950  0.38350  Biso   1.000  H
  H47      1.0000 0.32390  0.79050  0.61650  Biso   1.000  H
  H48      1.0000 0.17610  0.20950  0.11650  Biso   1.000  H
  C49      1.0000 0.63720  0.16420  0.91360  Biso   1.000  C
  C50      1.0000 0.86280  0.83580  0.41360  Biso   1.000  C
  C51      1.0000 0.36280  0.66420  0.58640  Biso   1.000  C
  C52      1.0000 0.13720  0.33580  0.08640  Biso   1.000  C
  H49      1.0000 0.65130  0.10110  0.90350  Biso   1.000  H
  H50      1.0000 0.84870  0.89890  0.40350  Biso   1.000  H
  H51      1.0000 0.34870  0.60110  0.59650  Biso   1.000  H
  H52      1.0000 0.15130  0.39890  0.09650  Biso   1.000  H
  H53      1.0000 0.57080  0.17400  0.90710  Biso   1.000  H
  H54      1.0000 0.92920  0.82600  0.40710  Biso   1.000  H
  H55      1.0000 0.42920  0.67400  0.59290  Biso   1.000  H
  H56      1.0000 0.07080  0.32600  0.09290  Biso   1.000  H
  C53      1.0000 0.65760  0.17770  0.97560  Biso   1.000  C
  C54      1.0000 0.84240  0.82230  0.47560  Biso   1.000  C
  C55      1.0000 0.34240  0.67770  0.52440  Biso   1.000  C
  C56      1.0000 0.15760  0.32230  0.02440  Biso   1.000  C
  H57      1.0000 0.65070  0.24240  0.98470  Biso   1.000  H
  H58      1.0000 0.84930  0.75760  0.48470  Biso   1.000  H
  H59      1.0000 0.34930  0.74240  0.51530  Biso   1.000  H
  H60      1.0000 0.15070  0.25760  0.01530  Biso   1.000  H
  H61      1.0000 0.72230  0.16090  0.98290  Biso   1.000  H
  H62      1.0000 0.77770  0.83910  0.48290  Biso   1.000  H
  H63      1.0000 0.27770  0.66090  0.51710  Biso   1.000  H
  H64      1.0000 0.22230  0.33910  0.01710  Biso   1.000  H
  C57      1.0000 0.59290  0.12090  0.01600  Biso   1.000  C
  C58      1.0000 0.90710  0.87910  0.51600  Biso   1.000  C
  C59      1.0000 0.40710  0.62090  0.48400  Biso   1.000  C
  C60      1.0000 0.09290  0.37910  0.98400  Biso   1.000  C
  H65      1.0000 0.52820  0.13910  0.01000  Biso   1.000  H
  H66      1.0000 0.97180  0.86090  0.51000  Biso   1.000  H
  H67      1.0000 0.47180  0.63910  0.49000  Biso   1.000  H
  H68      1.0000 0.02820  0.36090  0.99000  Biso   1.000  H
  H69      1.0000 0.59820  0.05630  0.00650  Biso   1.000  H
  H70      1.0000 0.90180  0.94370  0.50650  Biso   1.000  H
  H71      1.0000 0.40180  0.55630  0.49350  Biso   1.000  H
  H72      1.0000 0.09820  0.44370  0.99350  Biso   1.000  H
  C61      1.0000 0.61700  0.13370  0.07610  Biso   1.000  C
  C62      1.0000 0.88300  0.86630  0.57610  Biso   1.000  C
  C63      1.0000 0.38300  0.63370  0.42390  Biso   1.000  C
  C64      1.0000 0.11700  0.36630  0.92390  Biso   1.000  C
  H73      1.0000 0.62070  0.19910  0.08380  Biso   1.000  H
  H74      1.0000 0.87930  0.80090  0.58380  Biso   1.000  H
  H75      1.0000 0.37930  0.69910  0.41620  Biso   1.000  H
  H76      1.0000 0.12070  0.30090  0.91620  Biso   1.000  H
  H77      1.0000 0.67880  0.10790  0.08270  Biso   1.000  H
  H78      1.0000 0.82120  0.89210  0.58270  Biso   1.000  H
  H79      1.0000 0.32120  0.60790  0.41730  Biso   1.000  H
  H80      1.0000 0.17880  0.39210  0.91730  Biso   1.000  H
  C65      1.0000 0.54880  0.09070  0.11790  Biso   1.000  C
  C66      1.0000 0.95120  0.90930  0.61790  Biso   1.000  C
  C67      1.0000 0.45120  0.59070  0.38210  Biso   1.000  C
  C68      1.0000 0.04880  0.40930  0.88210  Biso   1.000  C
  H81      1.0000 0.48740  0.11830  0.11300  Biso   1.000  H
  H82      1.0000 0.01260  0.88170  0.61300  Biso   1.000  H
  H83      1.0000 0.51260  0.61830  0.38700  Biso   1.000  H
  H84      1.0000 0.98740  0.38170  0.88700  Biso   1.000  H
  H85      1.0000 0.56960  0.10340  0.15630  Biso   1.000  H
  H86      1.0000 0.93040  0.89660  0.65630  Biso   1.000  H
  H87      1.0000 0.43040  0.60340  0.34370  Biso   1.000  H
  H88      1.0000 0.06960  0.39660  0.84370  Biso   1.000  H
  C69      1.0000 0.54160  0.98780  0.10940  Biso   1.000  C
  C70      1.0000 0.95840  0.01220  0.60940  Biso   1.000  C
  C71      1.0000 0.45840  0.48780  0.39060  Biso   1.000  C
  C72      1.0000 0.04160  0.51220  0.89060  Biso   1.000  C
  N17      1.0000 0.27130  0.10007  0.89029  Biso   1.000  N
  N18      1.0000 0.22870  0.89993  0.39029  Biso   1.000  N
  N19      1.0000 0.72870  0.60007  0.60971  Biso   1.000  N
  N20      1.0000 0.77130  0.39993  0.10971  Biso   1.000  N
  C73      1.0000 0.25670  0.15720  0.84673  Biso   1.000  C
  C74      1.0000 0.24330  0.84280  0.34673  Biso   1.000  C
  C75      1.0000 0.74330  0.65720  0.65327  Biso   1.000  C
  C76      1.0000 0.75670  0.34280  0.15327  Biso   1.000  C
  H89      1.0000 0.21730  0.13810  0.81750  Biso   1.000  H
  H90      1.0000 0.28270  0.86190  0.31750  Biso   1.000  H
  H91      1.0000 0.78270  0.63810  0.68250  Biso   1.000  H
  H92      1.0000 0.71730  0.36190  0.18250  Biso   1.000  H
  C77      1.0000 0.29660  0.24210  0.84292  Biso   1.000  C
  C78      1.0000 0.20340  0.75790  0.34292  Biso   1.000  C
  C79      1.0000 0.70340  0.74210  0.65708  Biso   1.000  C
  C80      1.0000 0.79660  0.25790  0.15708  Biso   1.000  C
  H93      1.0000 0.28450  0.27930  0.81160  Biso   1.000  H
  H94      1.0000 0.21550  0.72070  0.31160  Biso   1.000  H
  H95      1.0000 0.71550  0.77930  0.68840  Biso   1.000  H
  H96      1.0000 0.78450  0.22070  0.18840  Biso   1.000  H
  C81      1.0000 0.35560  0.27300  0.88600  Biso   1.000  C
  C82      1.0000 0.14440  0.72700  0.38600  Biso   1.000  C
  C83      1.0000 0.64440  0.77300  0.61400  Biso   1.000  C
  C84      1.0000 0.85560  0.22700  0.11400  Biso   1.000  C
  C85      1.0000 0.36770  0.21580  0.93271  Biso   1.000  C
  C86      1.0000 0.13230  0.78420  0.43271  Biso   1.000  C
  C87      1.0000 0.63230  0.71580  0.56729  Biso   1.000  C
  C88      1.0000 0.86770  0.28420  0.06729  Biso   1.000  C
  H97      1.0000 0.40400  0.23430  0.96350  Biso   1.000  H
  H98      1.0000 0.09600  0.76570  0.46350  Biso   1.000  H
  H99      1.0000 0.59600  0.73430  0.53650  Biso   1.000  H
  H100     1.0000 0.90400  0.26570  0.03650  Biso   1.000  H
  C89      1.0000 0.32490  0.13120  0.93239  Biso   1.000  C
  C90      1.0000 0.17510  0.86880  0.43239  Biso   1.000  C
  C91      1.0000 0.67510  0.63120  0.56761  Biso   1.000  C
  C92      1.0000 0.82490  0.36880  0.06761  Biso   1.000  C
  H101     1.0000 0.33410  0.09320  0.96360  Biso   1.000  H
  H102     1.0000 0.16590  0.90680  0.46360  Biso   1.000  H
  H103     1.0000 0.66590  0.59320  0.53640  Biso   1.000  H
  H104     1.0000 0.83410  0.40680  0.03640  Biso   1.000  H
  N21      1.0000 0.86243  0.56993  0.10471  Biso   1.000  N
  N22      1.0000 0.63757  0.43007  0.60471  Biso   1.000  N
  N23      1.0000 0.13757  0.06993  0.39529  Biso   1.000  N
  N24      1.0000 0.36243  0.93007  0.89529  Biso   1.000  N
  C93      1.0000 0.89000  0.63160  0.06736  Biso   1.000  C
  C94      1.0000 0.61000  0.36840  0.56736  Biso   1.000  C
  C95      1.0000 0.11000  0.13160  0.43264  Biso   1.000  C
  C96      1.0000 0.39000  0.86840  0.93264  Biso   1.000  C
  H105     1.0000 0.84570  0.65480  0.04220  Biso   1.000  H
  H106     1.0000 0.65430  0.34520  0.54220  Biso   1.000  H
  H107     1.0000 0.15430  0.15480  0.45780  Biso   1.000  H
  H108     1.0000 0.34570  0.84520  0.95780  Biso   1.000  H
  C97      1.0000 0.98150  0.66400  0.06334  Biso   1.000  C
  C98      1.0000 0.51850  0.33600  0.56334  Biso   1.000  C
  C99      1.0000 0.01850  0.16400  0.43666  Biso   1.000  C
  C100     1.0000 0.48150  0.83600  0.93666  Biso   1.000  C
  H109     1.0000 0.99740  0.70790  0.03630  Biso   1.000  H
  H110     1.0000 0.50260  0.29210  0.53630  Biso   1.000  H
  H111     1.0000 0.00260  0.20790  0.46370  Biso   1.000  H
  H112     1.0000 0.49740  0.79210  0.96370  Biso   1.000  H
  C101     1.0000 0.04840  0.62970  0.10023  Biso   1.000  C
  C102     1.0000 0.45160  0.37030  0.60023  Biso   1.000  C
  C103     1.0000 0.95160  0.12970  0.39977  Biso   1.000  C
  C104     1.0000 0.54840  0.87030  0.89977  Biso   1.000  C
  C105     1.0000 0.01930  0.56250  0.13816  Biso   1.000  C
  C106     1.0000 0.48070  0.43750  0.63816  Biso   1.000  C
  C107     1.0000 0.98070  0.06250  0.36184  Biso   1.000  C
  C108     1.0000 0.51930  0.93750  0.86184  Biso   1.000  C
  H113     1.0000 0.06220  0.53620  0.16300  Biso   1.000  H
  H114     1.0000 0.43780  0.46380  0.66300  Biso   1.000  H
  H115     1.0000 0.93780  0.03620  0.33700  Biso   1.000  H
  H116     1.0000 0.56220  0.96380  0.83700  Biso   1.000  H
  C109     1.0000 0.92800  0.53520  0.13913  Biso   1.000  C
  C110     1.0000 0.57200  0.46480  0.63913  Biso   1.000  C
  C111     1.0000 0.07200  0.03520  0.36087  Biso   1.000  C
  C112     1.0000 0.42800  0.96480  0.86087  Biso   1.000  C
  H117     1.0000 0.91040  0.49020  0.16500  Biso   1.000  H
  H118     1.0000 0.58960  0.50980  0.66500  Biso   1.000  H
  H119     1.0000 0.08960  0.99020  0.33500  Biso   1.000  H
  H120     1.0000 0.41040  0.00980  0.83500  Biso   1.000  H
  C113     1.0000 0.18260  0.72760  0.07264  Biso   1.000  C
  C114     1.0000 0.31740  0.27240  0.57264  Biso   1.000  C
  C115     1.0000 0.81740  0.22760  0.42736  Biso   1.000  C
  C116     1.0000 0.68260  0.77240  0.92736  Biso   1.000  C
  C117     1.0000 0.46440  0.39690  0.91383  Biso   1.000  C
  C118     1.0000 0.03560  0.60310  0.41383  Biso   1.000  C
  C119     1.0000 0.53560  0.89690  0.58617  Biso   1.000  C
  C120     1.0000 0.96440  0.10310  0.08617  Biso   1.000  C
  C121     1.0000 0.48860  0.49450  0.89910  Biso   1.000  C
  C122     1.0000 0.01140  0.50550  0.39910  Biso   1.000  C
  C123     1.0000 0.51140  0.99450  0.60090  Biso   1.000  C
  C124     1.0000 0.98860  0.00550  0.10090  Biso   1.000  C
  H121     1.0000 0.46040  0.51100  0.86300  Biso   1.000  H
  H122     1.0000 0.03960  0.48900  0.36300  Biso   1.000  H
  H123     1.0000 0.53960  0.01100  0.63700  Biso   1.000  H
  H124     1.0000 0.96040  0.98900  0.13700  Biso   1.000  H
  H125     1.0000 0.55600  0.50120  0.89570  Biso   1.000  H
  H126     1.0000 0.94400  0.49880  0.39570  Biso   1.000  H
  H127     1.0000 0.44400  0.00120  0.60430  Biso   1.000  H
  H128     1.0000 0.05600  0.99880  0.10430  Biso   1.000  H
  C125     1.0000 0.45210  0.55670  0.94530  Biso   1.000  C
  C126     1.0000 0.04790  0.44330  0.44530  Biso   1.000  C
  C127     1.0000 0.54790  0.05670  0.55470  Biso   1.000  C
  C128     1.0000 0.95210  0.94330  0.05470  Biso   1.000  C
  H129     1.0000 0.48600  0.54360  0.98010  Biso   1.000  H
  H130     1.0000 0.01400  0.45640  0.48010  Biso   1.000  H
  H131     1.0000 0.51400  0.04360  0.51990  Biso   1.000  H
  H132     1.0000 0.98600  0.95640  0.01990  Biso   1.000  H
  H133     1.0000 0.46540  0.61980  0.93490  Biso   1.000  H
  H134     1.0000 0.03460  0.38020  0.43490  Biso   1.000  H
  H135     1.0000 0.53460  0.11980  0.56510  Biso   1.000  H
  H136     1.0000 0.96540  0.88020  0.06510  Biso   1.000  H
  C129     1.0000 0.35200  0.54780  0.95630  Biso   1.000  C
  C130     1.0000 0.14800  0.45220  0.45630  Biso   1.000  C
  C131     1.0000 0.64800  0.04780  0.54370  Biso   1.000  C
  C132     1.0000 0.85200  0.95220  0.04370  Biso   1.000  C
  H137     1.0000 0.33890  0.48990  0.97500  Biso   1.000  H
  H138     1.0000 0.16110  0.51010  0.47500  Biso   1.000  H
  H139     1.0000 0.66110  0.98990  0.52500  Biso   1.000  H
  H140     1.0000 0.83890  0.01010  0.02500  Biso   1.000  H
  H141     1.0000 0.31710  0.54990  0.92100  Biso   1.000  H
  H142     1.0000 0.18290  0.45010  0.42100  Biso   1.000  H
  H143     1.0000 0.68290  0.04990  0.57900  Biso   1.000  H
  H144     1.0000 0.81710  0.95010  0.07900  Biso   1.000  H
  C133     1.0000 0.32200  0.63330  0.99700  Biso   1.000  C
  C134     1.0000 0.17800  0.36670  0.49700  Biso   1.000  C
  C135     1.0000 0.67800  0.13330  0.50300  Biso   1.000  C
  C136     1.0000 0.82200  0.86670  0.00300  Biso   1.000  C
  H145     1.0000 0.34750  0.68710  0.97830  Biso   1.000  H
  H146     1.0000 0.15250  0.31290  0.47830  Biso   1.000  H
  H147     1.0000 0.65250  0.18710  0.52170  Biso   1.000  H
  H148     1.0000 0.84750  0.81290  0.02170  Biso   1.000  H
  H149     1.0000 0.25450  0.63790  0.99270  Biso   1.000  H
  H150     1.0000 0.24550  0.36210  0.49270  Biso   1.000  H
  H151     1.0000 0.74550  0.13790  0.50730  Biso   1.000  H
  H152     1.0000 0.75450  0.86210  0.00730  Biso   1.000  H
  C137     1.0000 0.33870  0.65000  0.05860  Biso   1.000  C
  C138     1.0000 0.16130  0.35000  0.55860  Biso   1.000  C
  C139     1.0000 0.66130  0.15000  0.44140  Biso   1.000  C
  C140     1.0000 0.83870  0.85000  0.94140  Biso   1.000  C
  H153     1.0000 0.40540  0.65800  0.06470  Biso   1.000  H
  H154     1.0000 0.09460  0.34200  0.56470  Biso   1.000  H
  H155     1.0000 0.59460  0.15800  0.43530  Biso   1.000  H
  H156     1.0000 0.90540  0.84200  0.93530  Biso   1.000  H
  H157     1.0000 0.31900  0.59620  0.07970  Biso   1.000  H
  H158     1.0000 0.18100  0.40380  0.57970  Biso   1.000  H
  H159     1.0000 0.68100  0.09620  0.42030  Biso   1.000  H
  H160     1.0000 0.81900  0.90380  0.92030  Biso   1.000  H
  C141     1.0000 0.28730  0.73370  0.08170  Biso   1.000  C
  C142     1.0000 0.21270  0.26630  0.58170  Biso   1.000  C
  C143     1.0000 0.71270  0.23370  0.41830  Biso   1.000  C
  C144     1.0000 0.78730  0.76630  0.91830  Biso   1.000  C
  H161     1.0000 0.30000  0.73940  0.12200  Biso   1.000  H
  H162     1.0000 0.20000  0.26060  0.62200  Biso   1.000  H
  H163     1.0000 0.70000  0.23940  0.37800  Biso   1.000  H
  H164     1.0000 0.80000  0.76060  0.87800  Biso   1.000  H
  H165     1.0000 0.31090  0.78840  0.06310  Biso   1.000  H
  H166     1.0000 0.18910  0.21160  0.56310  Biso   1.000  H
  H167     1.0000 0.68910  0.28840  0.43690  Biso   1.000  H
  H168     1.0000 0.81090  0.71160  0.93690  Biso   1.000  H
  O25      1.0000 0.25690  0.96380  0.77590  Biso   1.000  O
  O26      1.0000 0.24310  0.03620  0.27590  Biso   1.000  O
  O27      1.0000 0.74310  0.46380  0.72410  Biso   1.000  O
  O28      1.0000 0.75690  0.53620  0.22410  Biso   1.000  O
  O29      1.0000 0.20273  0.94971  0.99172  Biso   1.000  O
  O30      1.0000 0.29727  0.05029  0.49172  Biso   1.000  O
  O31      1.0000 0.79727  0.44971  0.50828  Biso   1.000  O
  O32      1.0000 0.70273  0.55029  0.00828  Biso   1.000  O
  N25      1.0000 0.61350  0.94020  0.13390  Biso   1.000  N
  N26      1.0000 0.88650  0.05980  0.63390  Biso   1.000  N
  N27      1.0000 0.38650  0.44020  0.36610  Biso   1.000  N
  N28      1.0000 0.11350  0.55980  0.86610  Biso   1.000  N
  H169     1.0000 0.65080  0.97180  0.15490  Biso   1.000  H
  H170     1.0000 0.84920  0.02820  0.65490  Biso   1.000  H
  H171     1.0000 0.34920  0.47180  0.34510  Biso   1.000  H
  H172     1.0000 0.15080  0.52820  0.84510  Biso   1.000  H
  N29      1.0000 0.82940  0.13320  0.85937  Biso   1.000  N
  N30      1.0000 0.67060  0.86680  0.35937  Biso   1.000  N
  N31      1.0000 0.17060  0.63320  0.64063  Biso   1.000  N
  N32      1.0000 0.32940  0.36680  0.14063  Biso   1.000  N
  H173     1.0000 0.79150  0.10320  0.83790  Biso   1.000  H
  H174     1.0000 0.70850  0.89680  0.33790  Biso   1.000  H
  H175     1.0000 0.20850  0.60320  0.66210  Biso   1.000  H
  H176     1.0000 0.29150  0.39680  0.16210  Biso   1.000  H
  O33      1.0000 0.84490  0.26600  0.90920  Biso   1.000  O
  O34      1.0000 0.65510  0.73400  0.40920  Biso   1.000  O
  O35      1.0000 0.15510  0.76600  0.59080  Biso   1.000  O
  O36      1.0000 0.34490  0.23400  0.09080  Biso   1.000  O
  O37      1.0000 0.50030  0.35730  0.95314  Biso   1.000  O
  O38      1.0000 0.99970  0.64270  0.45314  Biso   1.000  O
  O39      1.0000 0.49970  0.85730  0.54686  Biso   1.000  O
  O40      1.0000 0.00030  0.14270  0.04686  Biso   1.000  O
  O41      1.0000 0.81060  0.45810  0.92914  Biso   1.000  O
  O42      1.0000 0.68940  0.54190  0.42914  Biso   1.000  O
  O43      1.0000 0.18940  0.95810  0.57086  Biso   1.000  O
  O44      1.0000 0.31060  0.04190  0.07086  Biso   1.000  O
  O45      1.0000 0.42160  0.68340  0.76160  Biso   1.000  O
  O46      1.0000 0.07840  0.31660  0.26160  Biso   1.000  O
  O47      1.0000 0.57840  0.18340  0.73840  Biso   1.000  O
  O48      1.0000 0.92160  0.81660  0.23840  Biso   1.000  O
  O49      1.0000 0.42170  0.87250  0.73329  Biso   1.000  O
  O50      1.0000 0.07830  0.12750  0.23329  Biso   1.000  O
  O51      1.0000 0.57830  0.37250  0.76671  Biso   1.000  O
  O52      1.0000 0.92170  0.62750  0.26671  Biso   1.000  O
  O53      1.0000 0.84230  0.74700  0.77430  Biso   1.000  O
  O54      1.0000 0.65770  0.25300  0.27430  Biso   1.000  O
  O55      1.0000 0.15770  0.24700  0.72570  Biso   1.000  O
  O56      1.0000 0.34230  0.75300  0.22570  Biso   1.000  O
  C145     1.0000 0.51250  0.64420  0.75430  Biso   1.000  C
  C146     1.0000 0.98750  0.35580  0.25430  Biso   1.000  C
  C147     1.0000 0.48750  0.14420  0.74570  Biso   1.000  C
  C148     1.0000 0.01250  0.85580  0.24570  Biso   1.000  C
  H177     1.0000 0.50920  0.57850  0.76060  Biso   1.000  H
  H178     1.0000 0.99080  0.42150  0.26060  Biso   1.000  H
  H179     1.0000 0.49080  0.07850  0.73940  Biso   1.000  H
  H180     1.0000 0.00920  0.92150  0.23940  Biso   1.000  H
  H181     1.0000 0.53340  0.65440  0.71560  Biso   1.000  H
  H182     1.0000 0.96660  0.34560  0.21560  Biso   1.000  H
  H183     1.0000 0.46660  0.15440  0.78440  Biso   1.000  H
  H184     1.0000 0.03340  0.84560  0.28440  Biso   1.000  H
  O57      1.0000 0.16860  0.06180  0.69530  Biso   1.000  O
  O58      1.0000 0.33140  0.93820  0.19530  Biso   1.000  O
  O59      1.0000 0.83140  0.56180  0.80470  Biso   1.000  O
  O60      1.0000 0.66860  0.43820  0.30470  Biso   1.000  O
  C149     1.0000 0.57980  0.68390  0.79320  Biso   1.000  C
  C150     1.0000 0.92020  0.31610  0.29320  Biso   1.000  C
  C151     1.0000 0.42020  0.18390  0.70680  Biso   1.000  C
  C152     1.0000 0.07980  0.81610  0.20680  Biso   1.000  C
  H185     1.0000 0.63990  0.65590  0.78740  Biso   1.000  H
  H186     1.0000 0.86010  0.34410  0.28740  Biso   1.000  H
  H187     1.0000 0.36010  0.15590  0.71260  Biso   1.000  H
  H188     1.0000 0.13990  0.84410  0.21260  Biso   1.000  H
  H189     1.0000 0.55960  0.67340  0.83150  Biso   1.000  H
  H190     1.0000 0.94040  0.32660  0.33150  Biso   1.000  H
  H191     1.0000 0.44040  0.17340  0.66850  Biso   1.000  H
  H192     1.0000 0.05960  0.82660  0.16850  Biso   1.000  H
  H193     1.0000 0.58430  0.74880  0.78640  Biso   1.000  H
  H194     1.0000 0.91570  0.25120  0.28640  Biso   1.000  H
  H195     1.0000 0.41570  0.24880  0.71360  Biso   1.000  H
  H196     1.0000 0.08430  0.75120  0.21360  Biso   1.000  H
  C153     1.0000 0.93610  0.78640  0.77260  Biso   1.000  C
  C154     1.0000 0.56390  0.21360  0.27260  Biso   1.000  C
  C155     1.0000 0.06390  0.28640  0.72740  Biso   1.000  C
  C156     1.0000 0.43610  0.71360  0.22740  Biso   1.000  C
  H197     1.0000 0.93040  0.84850  0.75800  Biso   1.000  H
  H198     1.0000 0.56960  0.15150  0.25800  Biso   1.000  H
  H199     1.0000 0.06960  0.34850  0.74200  Biso   1.000  H
  H200     1.0000 0.43040  0.65150  0.24200  Biso   1.000  H
  H201     1.0000 0.95790  0.79140  0.81150  Biso   1.000  H
  H202     1.0000 0.54210  0.20860  0.31150  Biso   1.000  H
  H203     1.0000 0.04210  0.29140  0.68850  Biso   1.000  H
  H204     1.0000 0.45790  0.70860  0.18850  Biso   1.000  H
  C157     1.0000 0.00610  0.74280  0.74160  Biso   1.000  C
  C158     1.0000 0.49390  0.25720  0.24160  Biso   1.000  C
  C159     1.0000 0.99390  0.24280  0.75840  Biso   1.000  C
  C160     1.0000 0.50610  0.75720  0.25840  Biso   1.000  C
  H205     1.0000 0.06250  0.77860  0.74310  Biso   1.000  H
  H206     1.0000 0.43750  0.22140  0.24310  Biso   1.000  H
  H207     1.0000 0.93750  0.27860  0.75690  Biso   1.000  H
  H208     1.0000 0.56250  0.72140  0.25690  Biso   1.000  H
  H209     1.0000 0.98640  0.73660  0.70280  Biso   1.000  H
  H210     1.0000 0.51360  0.26340  0.20280  Biso   1.000  H
  H211     1.0000 0.01360  0.23660  0.79720  Biso   1.000  H
  H212     1.0000 0.48640  0.76340  0.29720  Biso   1.000  H
  H213     1.0000 0.01760  0.68310  0.75740  Biso   1.000  H
  H214     1.0000 0.48240  0.31690  0.25740  Biso   1.000  H
  H215     1.0000 0.98240  0.18310  0.74260  Biso   1.000  H
  H216     1.0000 0.51760  0.81690  0.24260  Biso   1.000  H
  C161     1.0000 0.40930  0.56180  0.91720  Biso   1.000  C
  C162     1.0000 0.09070  0.43820  0.41720  Biso   1.000  C
  C163     1.0000 0.59070  0.06180  0.58280  Biso   1.000  C
  C164     1.0000 0.90930  0.93820  0.08280  Biso   1.000  C
  C165     1.0000 0.40610  0.56800  0.98230  Biso   1.000  C
  C166     1.0000 0.09390  0.43200  0.48230  Biso   1.000  C
  C167     1.0000 0.59390  0.06800  0.51770  Biso   1.000  C
  C168     1.0000 0.90610  0.93200  0.01770  Biso   1.000  C
  H217     1.0000 0.42110  0.62210  0.90120  Biso   1.000  H
  H218     1.0000 0.07890  0.37790  0.40120  Biso   1.000  H
  H219     1.0000 0.57890  0.12210  0.59880  Biso   1.000  H
  H220     1.0000 0.92110  0.87790  0.09880  Biso   1.000  H
  H221     1.0000 0.34950  0.54000  0.90290  Biso   1.000  H
  H222     1.0000 0.15050  0.46000  0.40290  Biso   1.000  H
  H223     1.0000 0.65050  0.04000  0.59710  Biso   1.000  H
  H224     1.0000 0.84950  0.96000  0.09710  Biso   1.000  H
  H225     1.0000 0.46440  0.59290  0.99690  Biso   1.000  H
  H226     1.0000 0.03560  0.40710  0.49690  Biso   1.000  H
  H227     1.0000 0.53560  0.09290  0.50310  Biso   1.000  H
  H228     1.0000 0.96440  0.90710  0.00310  Biso   1.000  H
  H229     1.0000 0.39640  0.50770  0.99870  Biso   1.000  H
  H230     1.0000 0.10360  0.49230  0.49870  Biso   1.000  H
  H231     1.0000 0.60360  0.00770  0.50130  Biso   1.000  H
  H232     1.0000 0.89640  0.99230  0.00130  Biso   1.000  H
