data_image0
_cell_length_a       15.132
_cell_length_b       22.9477
_cell_length_c       15.477
_cell_angle_alpha    90
_cell_angle_beta     90
_cell_angle_gamma    90

_symmetry_space_group_name_H-M    "P 1"
_symmetry_int_tables_number       1

loop_
  _symmetry_equiv_pos_as_xyz
  'x, y, z'

loop_
  _atom_site_label
  _atom_site_occupancy
  _atom_site_fract_x
  _atom_site_fract_y
  _atom_site_fract_z
  _atom_site_thermal_displace_type
  _atom_site_B_iso_or_equiv
  _atom_site_type_symbol
  Cu1      1.0000 0.50000  0.36983  0.75000  Biso   1.000  Cu
  Cu2      1.0000 0.50000  0.63017  0.25000  Biso   1.000  Cu
  Cu3      1.0000 0.00000  0.86983  0.75000  Biso   1.000  Cu
  Cu4      1.0000 0.00000  0.13017  0.25000  Biso   1.000  Cu
  O1       1.0000 0.11470  0.30780  0.99540  Biso   1.000  O
  O2       1.0000 0.88530  0.69220  0.49540  Biso   1.000  O
  O3       1.0000 0.88530  0.30780  0.50460  Biso   1.000  O
  O4       1.0000 0.11470  0.69220  0.00460  Biso   1.000  O
  O5       1.0000 0.61470  0.80780  0.99540  Biso   1.000  O
  O6       1.0000 0.38530  0.19220  0.49540  Biso   1.000  O
  O7       1.0000 0.38530  0.80780  0.50460  Biso   1.000  O
  O8       1.0000 0.61470  0.19220  0.00460  Biso   1.000  O
  O9       1.0000 0.72560  0.17740  0.61240  Biso   1.000  O
  O10      1.0000 0.27440  0.82260  0.11240  Biso   1.000  O
  O11      1.0000 0.27440  0.17740  0.88760  Biso   1.000  O
  O12      1.0000 0.72560  0.82260  0.38760  Biso   1.000  O
  O13      1.0000 0.22560  0.67740  0.61240  Biso   1.000  O
  O14      1.0000 0.77440  0.32260  0.11240  Biso   1.000  O
  O15      1.0000 0.77440  0.67740  0.88760  Biso   1.000  O
  O16      1.0000 0.22560  0.32260  0.38760  Biso   1.000  O
  O17      1.0000 0.50000  0.26680  0.75000  Biso   1.000  O
  O18      1.0000 0.50000  0.73320  0.25000  Biso   1.000  O
  O19      1.0000 0.00000  0.76680  0.75000  Biso   1.000  O
  O20      1.0000 0.00000  0.23320  0.25000  Biso   1.000  O
  N1       1.0000 0.37680  0.37020  0.79790  Biso   1.000  N
  N2       1.0000 0.62320  0.62980  0.29790  Biso   1.000  N
  N3       1.0000 0.62320  0.37020  0.70210  Biso   1.000  N
  N4       1.0000 0.37680  0.62980  0.20210  Biso   1.000  N
  N5       1.0000 0.87680  0.87020  0.79790  Biso   1.000  N
  N6       1.0000 0.12320  0.12980  0.29790  Biso   1.000  N
  N7       1.0000 0.12320  0.87020  0.70210  Biso   1.000  N
  N8       1.0000 0.87680  0.12980  0.20210  Biso   1.000  N
  N9       1.0000 0.11300  0.36120  0.87370  Biso   1.000  N
  N10      1.0000 0.88700  0.63880  0.37370  Biso   1.000  N
  N11      1.0000 0.88700  0.36120  0.62630  Biso   1.000  N
  N12      1.0000 0.11300  0.63880  0.12630  Biso   1.000  N
  N13      1.0000 0.61300  0.86120  0.87370  Biso   1.000  N
  N14      1.0000 0.38700  0.13880  0.37370  Biso   1.000  N
  N15      1.0000 0.38700  0.86120  0.62630  Biso   1.000  N
  N16      1.0000 0.61300  0.13880  0.12630  Biso   1.000  N
  H1       1.0000 0.07700  0.38060  0.84180  Biso   1.000  H
  H2       1.0000 0.92300  0.61940  0.34180  Biso   1.000  H
  H3       1.0000 0.92300  0.38060  0.65820  Biso   1.000  H
  H4       1.0000 0.07700  0.61940  0.15820  Biso   1.000  H
  H5       1.0000 0.57700  0.88060  0.84180  Biso   1.000  H
  H6       1.0000 0.42300  0.11940  0.34180  Biso   1.000  H
  H7       1.0000 0.42300  0.88060  0.65820  Biso   1.000  H
  H8       1.0000 0.57700  0.11940  0.15820  Biso   1.000  H
  N17      1.0000 0.95260  0.12830  0.37180  Biso   1.000  N
  N18      1.0000 0.04740  0.87170  0.87180  Biso   1.000  N
  N19      1.0000 0.04740  0.12830  0.12820  Biso   1.000  N
  N20      1.0000 0.95260  0.87170  0.62820  Biso   1.000  N
  N21      1.0000 0.45260  0.62830  0.37180  Biso   1.000  N
  N22      1.0000 0.54740  0.37170  0.87180  Biso   1.000  N
  N23      1.0000 0.54740  0.62830  0.12820  Biso   1.000  N
  N24      1.0000 0.45260  0.37170  0.62820  Biso   1.000  N
  N25      1.0000 0.85250  0.12430  0.62310  Biso   1.000  N
  N26      1.0000 0.14750  0.87570  0.12310  Biso   1.000  N
  N27      1.0000 0.14750  0.12430  0.87690  Biso   1.000  N
  N28      1.0000 0.85250  0.87570  0.37690  Biso   1.000  N
  N29      1.0000 0.35250  0.62430  0.62310  Biso   1.000  N
  N30      1.0000 0.64750  0.37570  0.12310  Biso   1.000  N
  N31      1.0000 0.64750  0.62430  0.87690  Biso   1.000  N
  N32      1.0000 0.35250  0.37570  0.37690  Biso   1.000  N
  H9       1.0000 0.88160  0.10230  0.65780  Biso   1.000  H
  H10      1.0000 0.11840  0.89770  0.15780  Biso   1.000  H
  H11      1.0000 0.11840  0.10230  0.84220  Biso   1.000  H
  H12      1.0000 0.88160  0.89770  0.34220  Biso   1.000  H
  H13      1.0000 0.38160  0.60230  0.65780  Biso   1.000  H
  H14      1.0000 0.61840  0.39770  0.15780  Biso   1.000  H
  H15      1.0000 0.61840  0.60230  0.84220  Biso   1.000  H
  H16      1.0000 0.38160  0.39770  0.34220  Biso   1.000  H
  C1       1.0000 0.31540  0.40820  0.77030  Biso   1.000  C
  C2       1.0000 0.68460  0.59180  0.27030  Biso   1.000  C
  C3       1.0000 0.68460  0.40820  0.72970  Biso   1.000  C
  C4       1.0000 0.31540  0.59180  0.22970  Biso   1.000  C
  C5       1.0000 0.81540  0.90820  0.77030  Biso   1.000  C
  C6       1.0000 0.18460  0.09180  0.27030  Biso   1.000  C
  C7       1.0000 0.18460  0.90820  0.72970  Biso   1.000  C
  C8       1.0000 0.81540  0.09180  0.22970  Biso   1.000  C
  H17      1.0000 0.33250  0.43700  0.73150  Biso   1.000  H
  H18      1.0000 0.66750  0.56300  0.23150  Biso   1.000  H
  H19      1.0000 0.66750  0.43700  0.76850  Biso   1.000  H
  H20      1.0000 0.33250  0.56300  0.26850  Biso   1.000  H
  H21      1.0000 0.83250  0.93700  0.73150  Biso   1.000  H
  H22      1.0000 0.16750  0.06300  0.23150  Biso   1.000  H
  H23      1.0000 0.16750  0.93700  0.76850  Biso   1.000  H
  H24      1.0000 0.83250  0.06300  0.26850  Biso   1.000  H
  C9       1.0000 0.34710  0.32990  0.85470  Biso   1.000  C
  C10      1.0000 0.65290  0.67010  0.35470  Biso   1.000  C
  C11      1.0000 0.65290  0.32990  0.64530  Biso   1.000  C
  C12      1.0000 0.34710  0.67010  0.14530  Biso   1.000  C
  C13      1.0000 0.84710  0.82990  0.85470  Biso   1.000  C
  C14      1.0000 0.15290  0.17010  0.35470  Biso   1.000  C
  C15      1.0000 0.15290  0.82990  0.64530  Biso   1.000  C
  C16      1.0000 0.84710  0.17010  0.14530  Biso   1.000  C
  H25      1.0000 0.38740  0.30250  0.87500  Biso   1.000  H
  H26      1.0000 0.61260  0.69750  0.37500  Biso   1.000  H
  H27      1.0000 0.61260  0.30250  0.62500  Biso   1.000  H
  H28      1.0000 0.38740  0.69750  0.12500  Biso   1.000  H
  H29      1.0000 0.88740  0.80250  0.87500  Biso   1.000  H
  H30      1.0000 0.11260  0.19750  0.37500  Biso   1.000  H
  H31      1.0000 0.11260  0.80250  0.62500  Biso   1.000  H
  H32      1.0000 0.88740  0.19750  0.12500  Biso   1.000  H
  C17      1.0000 0.22880  0.40670  0.79660  Biso   1.000  C
  C18      1.0000 0.77120  0.59330  0.29660  Biso   1.000  C
  C19      1.0000 0.77120  0.40670  0.70340  Biso   1.000  C
  C20      1.0000 0.22880  0.59330  0.20340  Biso   1.000  C
  C21      1.0000 0.72880  0.90670  0.79660  Biso   1.000  C
  C22      1.0000 0.27120  0.09330  0.29660  Biso   1.000  C
  C23      1.0000 0.27120  0.90670  0.70340  Biso   1.000  C
  C24      1.0000 0.72880  0.09330  0.20340  Biso   1.000  C
  H33      1.0000 0.18870  0.43400  0.77580  Biso   1.000  H
  H34      1.0000 0.81130  0.56600  0.27580  Biso   1.000  H
  H35      1.0000 0.81130  0.43400  0.72420  Biso   1.000  H
  H36      1.0000 0.18870  0.56600  0.22420  Biso   1.000  H
  H37      1.0000 0.68870  0.93400  0.77580  Biso   1.000  H
  H38      1.0000 0.31130  0.06600  0.27580  Biso   1.000  H
  H39      1.0000 0.31130  0.93400  0.72420  Biso   1.000  H
  H40      1.0000 0.68870  0.06600  0.22420  Biso   1.000  H
  C25      1.0000 0.26460  0.32640  0.88360  Biso   1.000  C
  C26      1.0000 0.73540  0.67360  0.38360  Biso   1.000  C
  C27      1.0000 0.73540  0.32640  0.61640  Biso   1.000  C
  C28      1.0000 0.26460  0.67360  0.11640  Biso   1.000  C
  C29      1.0000 0.76460  0.82640  0.88360  Biso   1.000  C
  C30      1.0000 0.23540  0.17360  0.38360  Biso   1.000  C
  C31      1.0000 0.23540  0.82640  0.61640  Biso   1.000  C
  C32      1.0000 0.76460  0.17360  0.11640  Biso   1.000  C
  H41      1.0000 0.24950  0.29810  0.92400  Biso   1.000  H
  H42      1.0000 0.75050  0.70190  0.42400  Biso   1.000  H
  H43      1.0000 0.75050  0.29810  0.57600  Biso   1.000  H
  H44      1.0000 0.24950  0.70190  0.07600  Biso   1.000  H
  H45      1.0000 0.74950  0.79810  0.92400  Biso   1.000  H
  H46      1.0000 0.25050  0.20190  0.42400  Biso   1.000  H
  H47      1.0000 0.25050  0.79810  0.57600  Biso   1.000  H
  H48      1.0000 0.74950  0.20190  0.07600  Biso   1.000  H
  C33      1.0000 0.20180  0.36460  0.85380  Biso   1.000  C
  C34      1.0000 0.79820  0.63540  0.35380  Biso   1.000  C
  C35      1.0000 0.79820  0.36460  0.64620  Biso   1.000  C
  C36      1.0000 0.20180  0.63540  0.14620  Biso   1.000  C
  C37      1.0000 0.70180  0.86460  0.85380  Biso   1.000  C
  C38      1.0000 0.29820  0.13540  0.35380  Biso   1.000  C
  C39      1.0000 0.29820  0.86460  0.64620  Biso   1.000  C
  C40      1.0000 0.70180  0.13540  0.14620  Biso   1.000  C
  C41      1.0000 0.88820  0.16550  0.39670  Biso   1.000  C
  C42      1.0000 0.11180  0.83450  0.89670  Biso   1.000  C
  C43      1.0000 0.11180  0.16550  0.10330  Biso   1.000  C
  C44      1.0000 0.88820  0.83450  0.60330  Biso   1.000  C
  C45      1.0000 0.38820  0.66550  0.39670  Biso   1.000  C
  C46      1.0000 0.61180  0.33450  0.89670  Biso   1.000  C
  C47      1.0000 0.61180  0.66550  0.10330  Biso   1.000  C
  C48      1.0000 0.38820  0.33450  0.60330  Biso   1.000  C
  H49      1.0000 0.86650  0.19190  0.35630  Biso   1.000  H
  H50      1.0000 0.13350  0.80810  0.85630  Biso   1.000  H
  H51      1.0000 0.13350  0.19190  0.14370  Biso   1.000  H
  H52      1.0000 0.86650  0.80810  0.64370  Biso   1.000  H
  H53      1.0000 0.36650  0.69190  0.35630  Biso   1.000  H
  H54      1.0000 0.63350  0.30810  0.85630  Biso   1.000  H
  H55      1.0000 0.63350  0.69190  0.14370  Biso   1.000  H
  H56      1.0000 0.36650  0.30810  0.64370  Biso   1.000  H
  C49      1.0000 0.85290  0.16630  0.47920  Biso   1.000  C
  C50      1.0000 0.14710  0.83370  0.97920  Biso   1.000  C
  C51      1.0000 0.14710  0.16630  0.02080  Biso   1.000  C
  C52      1.0000 0.85290  0.83370  0.52080  Biso   1.000  C
  C53      1.0000 0.35290  0.66630  0.47920  Biso   1.000  C
  C54      1.0000 0.64710  0.33370  0.97920  Biso   1.000  C
  C55      1.0000 0.64710  0.66630  0.02080  Biso   1.000  C
  C56      1.0000 0.35290  0.33370  0.52080  Biso   1.000  C
  H57      1.0000 0.80950  0.19320  0.49400  Biso   1.000  H
  H58      1.0000 0.19050  0.80680  0.99400  Biso   1.000  H
  H59      1.0000 0.19050  0.19320  0.00600  Biso   1.000  H
  H60      1.0000 0.80950  0.80680  0.50600  Biso   1.000  H
  H61      1.0000 0.30950  0.69320  0.49400  Biso   1.000  H
  H62      1.0000 0.69050  0.30680  0.99400  Biso   1.000  H
  H63      1.0000 0.69050  0.69320  0.00600  Biso   1.000  H
  H64      1.0000 0.30950  0.30680  0.50600  Biso   1.000  H
  C57      1.0000 0.88270  0.12720  0.53820  Biso   1.000  C
  C58      1.0000 0.11730  0.87280  0.03820  Biso   1.000  C
  C59      1.0000 0.11730  0.12720  0.96180  Biso   1.000  C
  C60      1.0000 0.88270  0.87280  0.46180  Biso   1.000  C
  C61      1.0000 0.38270  0.62720  0.53820  Biso   1.000  C
  C62      1.0000 0.61730  0.37280  0.03820  Biso   1.000  C
  C63      1.0000 0.61730  0.62720  0.96180  Biso   1.000  C
  C64      1.0000 0.38270  0.37280  0.46180  Biso   1.000  C
  C65      1.0000 0.95160  0.09040  0.51330  Biso   1.000  C
  C66      1.0000 0.04840  0.90960  0.01330  Biso   1.000  C
  C67      1.0000 0.04840  0.09040  0.98670  Biso   1.000  C
  C68      1.0000 0.95160  0.90960  0.48670  Biso   1.000  C
  C69      1.0000 0.45160  0.59040  0.51330  Biso   1.000  C
  C70      1.0000 0.54840  0.40960  0.01330  Biso   1.000  C
  C71      1.0000 0.54840  0.59040  0.98670  Biso   1.000  C
  C72      1.0000 0.45160  0.40960  0.48670  Biso   1.000  C
  H65      1.0000 0.97660  0.06500  0.55320  Biso   1.000  H
  H66      1.0000 0.02340  0.93500  0.05320  Biso   1.000  H
  H67      1.0000 0.02340  0.06500  0.94680  Biso   1.000  H
  H68      1.0000 0.97660  0.93500  0.44680  Biso   1.000  H
  H69      1.0000 0.47660  0.56500  0.55320  Biso   1.000  H
  H70      1.0000 0.52340  0.43500  0.05320  Biso   1.000  H
  H71      1.0000 0.52340  0.56500  0.94680  Biso   1.000  H
  H72      1.0000 0.47660  0.43500  0.44680  Biso   1.000  H
  C73      1.0000 0.98180  0.09180  0.43100  Biso   1.000  C
  C74      1.0000 0.01820  0.90820  0.93100  Biso   1.000  C
  C75      1.0000 0.01820  0.09180  0.06900  Biso   1.000  C
  C76      1.0000 0.98180  0.90820  0.56900  Biso   1.000  C
  C77      1.0000 0.48180  0.59180  0.43100  Biso   1.000  C
  C78      1.0000 0.51820  0.40820  0.93100  Biso   1.000  C
  C79      1.0000 0.51820  0.59180  0.06900  Biso   1.000  C
  C80      1.0000 0.48180  0.40820  0.56900  Biso   1.000  C
  H73      1.0000 0.02580  0.06550  0.41530  Biso   1.000  H
  H74      1.0000 0.97420  0.93450  0.91530  Biso   1.000  H
  H75      1.0000 0.97420  0.06550  0.08470  Biso   1.000  H
  H76      1.0000 0.02580  0.93450  0.58470  Biso   1.000  H
  H77      1.0000 0.52580  0.56550  0.41530  Biso   1.000  H
  H78      1.0000 0.47420  0.43450  0.91530  Biso   1.000  H
  H79      1.0000 0.47420  0.56550  0.08470  Biso   1.000  H
  H80      1.0000 0.52580  0.43450  0.58470  Biso   1.000  H
  C81      1.0000 0.07320  0.33100  0.93940  Biso   1.000  C
  C82      1.0000 0.92680  0.66900  0.43940  Biso   1.000  C
  C83      1.0000 0.92680  0.33100  0.56060  Biso   1.000  C
  C84      1.0000 0.07320  0.66900  0.06060  Biso   1.000  C
  C85      1.0000 0.57320  0.83100  0.93940  Biso   1.000  C
  C86      1.0000 0.42680  0.16900  0.43940  Biso   1.000  C
  C87      1.0000 0.42680  0.83100  0.56060  Biso   1.000  C
  C88      1.0000 0.57320  0.16900  0.06060  Biso   1.000  C
  C89      1.0000 0.97260  0.33030  0.93480  Biso   1.000  C
  C90      1.0000 0.02740  0.66970  0.43480  Biso   1.000  C
  C91      1.0000 0.02740  0.33030  0.56520  Biso   1.000  C
  C92      1.0000 0.97260  0.66970  0.06520  Biso   1.000  C
  C93      1.0000 0.47260  0.83030  0.93480  Biso   1.000  C
  C94      1.0000 0.52740  0.16970  0.43480  Biso   1.000  C
  C95      1.0000 0.52740  0.83030  0.56520  Biso   1.000  C
  C96      1.0000 0.47260  0.16970  0.06520  Biso   1.000  C
  H81      1.0000 0.95100  0.36450  0.90460  Biso   1.000  H
  H82      1.0000 0.04900  0.63550  0.40460  Biso   1.000  H
  H83      1.0000 0.04900  0.36450  0.59540  Biso   1.000  H
  H84      1.0000 0.95100  0.63550  0.09540  Biso   1.000  H
  H85      1.0000 0.45100  0.86450  0.90460  Biso   1.000  H
  H86      1.0000 0.54900  0.13550  0.40460  Biso   1.000  H
  H87      1.0000 0.54900  0.86450  0.59540  Biso   1.000  H
  H88      1.0000 0.45100  0.13550  0.09540  Biso   1.000  H
  H89      1.0000 0.94740  0.32980  0.99240  Biso   1.000  H
  H90      1.0000 0.05260  0.67020  0.49240  Biso   1.000  H
  H91      1.0000 0.05260  0.32980  0.50760  Biso   1.000  H
  H92      1.0000 0.94740  0.67020  0.00760  Biso   1.000  H
  H93      1.0000 0.44740  0.82980  0.99240  Biso   1.000  H
  H94      1.0000 0.55260  0.17020  0.49240  Biso   1.000  H
  H95      1.0000 0.55260  0.82980  0.50760  Biso   1.000  H
  H96      1.0000 0.44740  0.17020  0.00760  Biso   1.000  H
  C97      1.0000 0.94840  0.27550  0.88630  Biso   1.000  C
  C98      1.0000 0.05160  0.72450  0.38630  Biso   1.000  C
  C99      1.0000 0.05160  0.27550  0.61370  Biso   1.000  C
  C100     1.0000 0.94840  0.72450  0.11370  Biso   1.000  C
  C101     1.0000 0.44840  0.77550  0.88630  Biso   1.000  C
  C102     1.0000 0.55160  0.22450  0.38630  Biso   1.000  C
  C103     1.0000 0.55160  0.77550  0.61370  Biso   1.000  C
  C104     1.0000 0.44840  0.22450  0.11370  Biso   1.000  C
  H97      1.0000 0.96840  0.28160  0.82740  Biso   1.000  H
  H98      1.0000 0.03160  0.71840  0.32740  Biso   1.000  H
  H99      1.0000 0.03160  0.28160  0.67260  Biso   1.000  H
  H100     1.0000 0.96840  0.71840  0.17260  Biso   1.000  H
  H101     1.0000 0.46840  0.78160  0.82740  Biso   1.000  H
  H102     1.0000 0.53160  0.21840  0.32740  Biso   1.000  H
  H103     1.0000 0.53160  0.78160  0.67260  Biso   1.000  H
  H104     1.0000 0.46840  0.21840  0.17260  Biso   1.000  H
  H105     1.0000 0.98560  0.24500  0.91010  Biso   1.000  H
  H106     1.0000 0.01440  0.75500  0.41010  Biso   1.000  H
  H107     1.0000 0.01440  0.24500  0.58990  Biso   1.000  H
  H108     1.0000 0.98560  0.75500  0.08990  Biso   1.000  H
  H109     1.0000 0.48560  0.74500  0.91010  Biso   1.000  H
  H110     1.0000 0.51440  0.25500  0.41010  Biso   1.000  H
  H111     1.0000 0.51440  0.74500  0.58990  Biso   1.000  H
  H112     1.0000 0.48560  0.25500  0.08990  Biso   1.000  H
  C105     1.0000 0.85900  0.25000  0.87930  Biso   1.000  C
  C106     1.0000 0.14100  0.75000  0.37930  Biso   1.000  C
  C107     1.0000 0.14100  0.25000  0.62070  Biso   1.000  C
  C108     1.0000 0.85900  0.75000  0.12070  Biso   1.000  C
  C109     1.0000 0.35900  0.75000  0.87930  Biso   1.000  C
  C110     1.0000 0.64100  0.25000  0.37930  Biso   1.000  C
  C111     1.0000 0.64100  0.75000  0.62070  Biso   1.000  C
  C112     1.0000 0.35900  0.25000  0.12070  Biso   1.000  C
  H113     1.0000 0.81640  0.28130  0.87310  Biso   1.000  H
  H114     1.0000 0.18360  0.71870  0.37310  Biso   1.000  H
  H115     1.0000 0.18360  0.28130  0.62690  Biso   1.000  H
  H116     1.0000 0.81640  0.71870  0.12690  Biso   1.000  H
  H117     1.0000 0.31640  0.78130  0.87310  Biso   1.000  H
  H118     1.0000 0.68360  0.21870  0.37310  Biso   1.000  H
  H119     1.0000 0.68360  0.78130  0.62690  Biso   1.000  H
  H120     1.0000 0.31640  0.21870  0.12690  Biso   1.000  H
  H121     1.0000 0.84550  0.22940  0.93240  Biso   1.000  H
  H122     1.0000 0.15450  0.77060  0.43240  Biso   1.000  H
  H123     1.0000 0.15450  0.22940  0.56760  Biso   1.000  H
  H124     1.0000 0.84550  0.77060  0.06760  Biso   1.000  H
  H125     1.0000 0.34550  0.72940  0.93240  Biso   1.000  H
  H126     1.0000 0.65450  0.27060  0.43240  Biso   1.000  H
  H127     1.0000 0.65450  0.72940  0.56760  Biso   1.000  H
  H128     1.0000 0.34550  0.27060  0.06760  Biso   1.000  H
  C113     1.0000 0.84870  0.20850  0.80430  Biso   1.000  C
  C114     1.0000 0.15130  0.79150  0.30430  Biso   1.000  C
  C115     1.0000 0.15130  0.20850  0.69570  Biso   1.000  C
  C116     1.0000 0.84870  0.79150  0.19570  Biso   1.000  C
  C117     1.0000 0.34870  0.70850  0.80430  Biso   1.000  C
  C118     1.0000 0.65130  0.29150  0.30430  Biso   1.000  C
  C119     1.0000 0.65130  0.70850  0.69570  Biso   1.000  C
  C120     1.0000 0.34870  0.29150  0.19570  Biso   1.000  C
  H129     1.0000 0.86680  0.22750  0.75120  Biso   1.000  H
  H130     1.0000 0.13320  0.77250  0.25120  Biso   1.000  H
  H131     1.0000 0.13320  0.22750  0.74880  Biso   1.000  H
  H132     1.0000 0.86680  0.77250  0.24880  Biso   1.000  H
  H133     1.0000 0.36680  0.72750  0.75120  Biso   1.000  H
  H134     1.0000 0.63320  0.27250  0.25120  Biso   1.000  H
  H135     1.0000 0.63320  0.72750  0.74880  Biso   1.000  H
  H136     1.0000 0.36680  0.27250  0.24880  Biso   1.000  H
  H137     1.0000 0.88580  0.17460  0.81310  Biso   1.000  H
  H138     1.0000 0.11420  0.82540  0.31310  Biso   1.000  H
  H139     1.0000 0.11420  0.17460  0.68690  Biso   1.000  H
  H140     1.0000 0.88580  0.82540  0.18690  Biso   1.000  H
  H141     1.0000 0.38580  0.67460  0.81310  Biso   1.000  H
  H142     1.0000 0.61420  0.32540  0.31310  Biso   1.000  H
  H143     1.0000 0.61420  0.67460  0.68690  Biso   1.000  H
  H144     1.0000 0.38580  0.32540  0.18690  Biso   1.000  H
  C121     1.0000 0.75430  0.19050  0.79810  Biso   1.000  C
  C122     1.0000 0.24570  0.80950  0.29810  Biso   1.000  C
  C123     1.0000 0.24570  0.19050  0.70190  Biso   1.000  C
  C124     1.0000 0.75430  0.80950  0.20190  Biso   1.000  C
  C125     1.0000 0.25430  0.69050  0.79810  Biso   1.000  C
  C126     1.0000 0.74570  0.30950  0.29810  Biso   1.000  C
  C127     1.0000 0.74570  0.69050  0.70190  Biso   1.000  C
  C128     1.0000 0.25430  0.30950  0.20190  Biso   1.000  C
  H145     1.0000 0.72870  0.18450  0.85490  Biso   1.000  H
  H146     1.0000 0.27130  0.81550  0.35490  Biso   1.000  H
  H147     1.0000 0.27130  0.18450  0.64510  Biso   1.000  H
  H148     1.0000 0.72870  0.81550  0.14510  Biso   1.000  H
  H149     1.0000 0.22870  0.68450  0.85490  Biso   1.000  H
  H150     1.0000 0.77130  0.31550  0.35490  Biso   1.000  H
  H151     1.0000 0.77130  0.68450  0.64510  Biso   1.000  H
  H152     1.0000 0.22870  0.31550  0.14510  Biso   1.000  H
  H153     1.0000 0.71960  0.21930  0.76710  Biso   1.000  H
  H154     1.0000 0.28040  0.78070  0.26710  Biso   1.000  H
  H155     1.0000 0.28040  0.21930  0.73290  Biso   1.000  H
  H156     1.0000 0.71960  0.78070  0.23290  Biso   1.000  H
  H157     1.0000 0.21960  0.71930  0.76710  Biso   1.000  H
  H158     1.0000 0.78040  0.28070  0.26710  Biso   1.000  H
  H159     1.0000 0.78040  0.71930  0.73290  Biso   1.000  H
  H160     1.0000 0.21960  0.28070  0.23290  Biso   1.000  H
  C129     1.0000 0.75980  0.13580  0.74990  Biso   1.000  C
  C130     1.0000 0.24020  0.86420  0.24990  Biso   1.000  C
  C131     1.0000 0.24020  0.13580  0.75010  Biso   1.000  C
  C132     1.0000 0.75980  0.86420  0.25010  Biso   1.000  C
  C133     1.0000 0.25980  0.63580  0.74990  Biso   1.000  C
  C134     1.0000 0.74020  0.36420  0.24990  Biso   1.000  C
  C135     1.0000 0.74020  0.63580  0.75010  Biso   1.000  C
  C136     1.0000 0.25980  0.36420  0.25010  Biso   1.000  C
  H161     1.0000 0.70460  0.11460  0.75520  Biso   1.000  H
  H162     1.0000 0.29540  0.88540  0.25520  Biso   1.000  H
  H163     1.0000 0.29540  0.11460  0.74480  Biso   1.000  H
  H164     1.0000 0.70460  0.88540  0.24480  Biso   1.000  H
  H165     1.0000 0.20460  0.61460  0.75520  Biso   1.000  H
  H166     1.0000 0.79540  0.38540  0.25520  Biso   1.000  H
  H167     1.0000 0.79540  0.61460  0.74480  Biso   1.000  H
  H168     1.0000 0.20460  0.38540  0.24480  Biso   1.000  H
  H169     1.0000 0.80670  0.11170  0.77340  Biso   1.000  H
  H170     1.0000 0.19330  0.88830  0.27340  Biso   1.000  H
  H171     1.0000 0.19330  0.11170  0.72660  Biso   1.000  H
  H172     1.0000 0.80670  0.88830  0.22660  Biso   1.000  H
  H173     1.0000 0.30670  0.61170  0.77340  Biso   1.000  H
  H174     1.0000 0.69330  0.38830  0.27340  Biso   1.000  H
  H175     1.0000 0.69330  0.61170  0.72660  Biso   1.000  H
  H176     1.0000 0.30670  0.38830  0.22660  Biso   1.000  H
  C137     1.0000 0.77800  0.14860  0.65650  Biso   1.000  C
  C138     1.0000 0.22200  0.85140  0.15650  Biso   1.000  C
  C139     1.0000 0.22200  0.14860  0.84350  Biso   1.000  C
  C140     1.0000 0.77800  0.85140  0.34350  Biso   1.000  C
  C141     1.0000 0.27800  0.64860  0.65650  Biso   1.000  C
  C142     1.0000 0.72200  0.35140  0.15650  Biso   1.000  C
  C143     1.0000 0.72200  0.64860  0.84350  Biso   1.000  C
  C144     1.0000 0.27800  0.35140  0.34350  Biso   1.000  C
  C145     1.0000 0.50010  0.12840  0.83250  Biso   1.000  C
  C146     1.0000 0.49990  0.87160  0.33250  Biso   1.000  C
  C147     1.0000 0.49990  0.12840  0.66750  Biso   1.000  C
  C148     1.0000 0.50010  0.87160  0.16750  Biso   1.000  C
  C149     1.0000 0.00010  0.62840  0.83250  Biso   1.000  C
  C150     1.0000 0.99990  0.37160  0.33250  Biso   1.000  C
  C151     1.0000 0.99990  0.62840  0.66750  Biso   1.000  C
  C152     1.0000 0.00010  0.37160  0.16750  Biso   1.000  C
  C153     1.0000 0.48470  0.22640  0.70720  Biso   1.000  C
  C154     1.0000 0.51530  0.77360  0.20720  Biso   1.000  C
  C155     1.0000 0.51530  0.22640  0.79280  Biso   1.000  C
  C156     1.0000 0.48470  0.77360  0.29280  Biso   1.000  C
  C157     1.0000 0.98470  0.72640  0.70720  Biso   1.000  C
  C158     1.0000 0.01530  0.27360  0.20720  Biso   1.000  C
  C159     1.0000 0.01530  0.72640  0.79280  Biso   1.000  C
  C160     1.0000 0.98470  0.27360  0.29280  Biso   1.000  C
  N33      1.0000 0.50000  0.16940  0.75000  Biso   1.000  N
  N34      1.0000 0.50000  0.83060  0.25000  Biso   1.000  N
  N35      1.0000 0.00000  0.66940  0.75000  Biso   1.000  N
  N36      1.0000 0.00000  0.33060  0.25000  Biso   1.000  N
  N37      1.0000 0.50000  0.03610  0.25000  Biso   1.000  N
  N38      1.0000 0.50000  0.96390  0.75000  Biso   1.000  N
  N39      1.0000 0.00000  0.53610  0.25000  Biso   1.000  N
  N40      1.0000 0.00000  0.46390  0.75000  Biso   1.000  N
  O21      1.0000 0.44670  0.00590  0.29430  Biso   1.000  O
  O22      1.0000 0.55330  0.99410  0.79430  Biso   1.000  O
  O23      1.0000 0.55330  0.00590  0.20570  Biso   1.000  O
  O24      1.0000 0.44670  0.99410  0.70570  Biso   1.000  O
  O25      1.0000 0.94670  0.50590  0.29430  Biso   1.000  O
  O26      1.0000 0.05330  0.49410  0.79430  Biso   1.000  O
  O27      1.0000 0.05330  0.50590  0.20570  Biso   1.000  O
  O28      1.0000 0.94670  0.49410  0.70570  Biso   1.000  O
  O29      1.0000 0.50000  0.08510  0.25000  Biso   1.000  O
  O30      1.0000 0.50000  0.91490  0.75000  Biso   1.000  O
  O31      1.0000 0.00000  0.58510  0.25000  Biso   1.000  O
  O32      1.0000 0.00000  0.41490  0.75000  Biso   1.000  O
  O33      1.0000 0.50000  0.48610  0.75000  Biso   1.000  O
  O34      1.0000 0.50000  0.51390  0.25000  Biso   1.000  O
  O35      1.0000 0.00000  0.98610  0.75000  Biso   1.000  O
  O36      1.0000 0.00000  0.01390  0.25000  Biso   1.000  O
  C161     1.0000 0.41800  0.51710  0.69650  Biso   1.000  C
  C162     1.0000 0.58200  0.48290  0.19650  Biso   1.000  C
  C163     1.0000 0.58200  0.51710  0.80350  Biso   1.000  C
  C164     1.0000 0.41800  0.48290  0.30350  Biso   1.000  C
  C165     1.0000 0.91800  0.01710  0.69650  Biso   1.000  C
  C166     1.0000 0.08200  0.98290  0.19650  Biso   1.000  C
  C167     1.0000 0.08200  0.01710  0.80350  Biso   1.000  C
  C168     1.0000 0.91800  0.98290  0.30350  Biso   1.000  C
  C169     1.0000 0.50000  0.53080  0.75000  Biso   1.000  C
  C170     1.0000 0.50000  0.46920  0.25000  Biso   1.000  C
  C171     1.0000 0.00000  0.03080  0.75000  Biso   1.000  C
  C172     1.0000 0.00000  0.96920  0.25000  Biso   1.000  C
  C173     1.0000 0.50000  0.58070  0.75000  Biso   1.000  C
  C174     1.0000 0.50000  0.41930  0.25000  Biso   1.000  C
  C175     1.0000 0.00000  0.08070  0.75000  Biso   1.000  C
  C176     1.0000 0.00000  0.91930  0.25000  Biso   1.000  C
