data_image0
_cell_length_a       8.772
_cell_length_b       12.5373
_cell_length_c       14.2431
_cell_angle_alpha    90
_cell_angle_beta     99.244
_cell_angle_gamma    90

_symmetry_space_group_name_H-M    "P 1"
_symmetry_int_tables_number       1

loop_
  _symmetry_equiv_pos_as_xyz
  'x, y, z'

loop_
  _atom_site_label
  _atom_site_occupancy
  _atom_site_fract_x
  _atom_site_fract_y
  _atom_site_fract_z
  _atom_site_thermal_displace_type
  _atom_site_B_iso_or_equiv
  _atom_site_type_symbol
  Mn1      1.0000 0.98243  0.87630  0.20982  Biso   1.000  Mn
  Mn2      1.0000 0.01757  0.37630  0.79018  Biso   1.000  Mn
  Cu1      1.0000 0.46382  0.87081  0.71040  Biso   1.000  Cu
  Cu2      1.0000 0.53618  0.37081  0.28960  Biso   1.000  Cu
  N1       1.0000 0.38330  0.72440  0.66460  Biso   1.000  N
  N2       1.0000 0.61670  0.22440  0.33540  Biso   1.000  N
  H1       1.0000 0.31870  0.73620  0.60450  Biso   1.000  H
  H2       1.0000 0.68130  0.23620  0.39550  Biso   1.000  H
  C1       1.0000 0.50110  0.64290  0.64590  Biso   1.000  C
  C2       1.0000 0.49890  0.14290  0.35410  Biso   1.000  C
  C3       1.0000 0.59140  0.69040  0.57320  Biso   1.000  C
  C4       1.0000 0.40860  0.19040  0.42680  Biso   1.000  C
  H3       1.0000 0.64220  0.63210  0.54580  Biso   1.000  H
  H4       1.0000 0.35780  0.13210  0.45420  Biso   1.000  H
  H5       1.0000 0.51710  0.72070  0.52230  Biso   1.000  H
  H6       1.0000 0.48290  0.22070  0.47770  Biso   1.000  H
  C5       1.0000 0.71220  0.77490  0.60450  Biso   1.000  C
  C6       1.0000 0.28780  0.27490  0.39550  Biso   1.000  C
  H7       1.0000 0.78240  0.74790  0.65990  Biso   1.000  H
  H8       1.0000 0.21760  0.24790  0.34010  Biso   1.000  H
  N3       1.0000 0.63890  0.87340  0.63280  Biso   1.000  N
  N4       1.0000 0.36110  0.37340  0.36720  Biso   1.000  N
  H9       1.0000 0.59250  0.90390  0.57320  Biso   1.000  H
  H10      1.0000 0.40750  0.40390  0.42680  Biso   1.000  H
  C7       1.0000 0.75070  0.95520  0.67350  Biso   1.000  C
  C8       1.0000 0.24930  0.45520  0.32650  Biso   1.000  C
  H11      1.0000 0.82830  0.92280  0.72110  Biso   1.000  H
  H12      1.0000 0.17170  0.42280  0.27890  Biso   1.000  H
  H13      1.0000 0.80240  0.98400  0.62370  Biso   1.000  H
  H14      1.0000 0.19760  0.48400  0.37630  Biso   1.000  H
  C9       1.0000 0.67570  0.04040  0.71620  Biso   1.000  C
  C10      1.0000 0.32430  0.54040  0.28380  Biso   1.000  C
  H15      1.0000 0.62470  0.08660  0.66610  Biso   1.000  H
  H16      1.0000 0.37530  0.58660  0.33390  Biso   1.000  H
  H17      1.0000 0.75370  0.08240  0.75580  Biso   1.000  H
  H18      1.0000 0.24630  0.58240  0.24420  Biso   1.000  H
  N5       1.0000 0.56140  0.00460  0.77420  Biso   1.000  N
  N6       1.0000 0.43860  0.50460  0.22580  Biso   1.000  N
  H19      1.0000 0.48110  0.05740  0.76520  Biso   1.000  H
  H20      1.0000 0.51890  0.55740  0.23480  Biso   1.000  H
  C11      1.0000 0.60480  0.99430  0.88060  Biso   1.000  C
  C12      1.0000 0.39520  0.49430  0.11940  Biso   1.000  C
  C13      1.0000 0.46290  0.97310  0.92410  Biso   1.000  C
  C14      1.0000 0.53710  0.47310  0.07590  Biso   1.000  C
  H21      1.0000 0.39350  0.03280  0.90770  Biso   1.000  H
  H22      1.0000 0.60650  0.53280  0.09230  Biso   1.000  H
  H23      1.0000 0.49390  0.97480  0.99260  Biso   1.000  H
  H24      1.0000 0.50610  0.47480  0.00740  Biso   1.000  H
  C15      1.0000 0.36920  0.87200  0.90070  Biso   1.000  C
  C16      1.0000 0.63080  0.37200  0.09930  Biso   1.000  C
  H25      1.0000 0.43770  0.81060  0.91620  Biso   1.000  H
  H26      1.0000 0.56230  0.31060  0.08380  Biso   1.000  H
  N7       1.0000 0.30680  0.86830  0.79810  Biso   1.000  N
  N8       1.0000 0.69320  0.36830  0.20190  Biso   1.000  N
  H27      1.0000 0.24950  0.93340  0.78560  Biso   1.000  H
  H28      1.0000 0.75050  0.43340  0.21440  Biso   1.000  H
  C17      1.0000 0.19600  0.78200  0.76110  Biso   1.000  C
  C18      1.0000 0.80400  0.28200  0.23890  Biso   1.000  C
  H29      1.0000 0.13910  0.75980  0.81080  Biso   1.000  H
  H30      1.0000 0.86090  0.25980  0.18920  Biso   1.000  H
  H31      1.0000 0.12260  0.80910  0.70830  Biso   1.000  H
  H32      1.0000 0.87740  0.30910  0.29170  Biso   1.000  H
  C19      1.0000 0.27880  0.68940  0.72920  Biso   1.000  C
  C20      1.0000 0.72120  0.18940  0.27080  Biso   1.000  C
  H33      1.0000 0.33760  0.65400  0.78390  Biso   1.000  H
  H34      1.0000 0.66240  0.15400  0.21610  Biso   1.000  H
  H35      1.0000 0.20480  0.63880  0.69680  Biso   1.000  H
  H36      1.0000 0.79520  0.13880  0.30320  Biso   1.000  H
  C21      1.0000 0.61060  0.61500  0.74080  Biso   1.000  C
  C22      1.0000 0.38940  0.11500  0.25920  Biso   1.000  C
  H37      1.0000 0.66300  0.67840  0.76640  Biso   1.000  H
  H38      1.0000 0.33700  0.17840  0.23360  Biso   1.000  H
  H39      1.0000 0.68520  0.56310  0.72830  Biso   1.000  H
  H40      1.0000 0.31480  0.06310  0.27170  Biso   1.000  H
  H41      1.0000 0.55080  0.58650  0.78580  Biso   1.000  H
  H42      1.0000 0.44920  0.08650  0.21420  Biso   1.000  H
  C23      1.0000 0.41750  0.54280  0.60350  Biso   1.000  C
  C24      1.0000 0.58250  0.04280  0.39650  Biso   1.000  C
  H43      1.0000 0.35900  0.51270  0.64840  Biso   1.000  H
  H44      1.0000 0.64100  0.01270  0.35160  Biso   1.000  H
  H45      1.0000 0.49180  0.49160  0.58920  Biso   1.000  H
  H46      1.0000 0.50820  0.99160  0.41080  Biso   1.000  H
  H47      1.0000 0.34910  0.56120  0.54620  Biso   1.000  H
  H48      1.0000 0.65090  0.06120  0.45380  Biso   1.000  H
  C25      1.0000 0.80520  0.79530  0.52530  Biso   1.000  C
  C26      1.0000 0.19480  0.29530  0.47470  Biso   1.000  C
  H49      1.0000 0.87140  0.85580  0.54130  Biso   1.000  H
  H50      1.0000 0.12860  0.35580  0.45870  Biso   1.000  H
  H51      1.0000 0.73630  0.80930  0.46710  Biso   1.000  H
  H52      1.0000 0.26370  0.30930  0.53290  Biso   1.000  H
  H53      1.0000 0.86690  0.73370  0.51730  Biso   1.000  H
  H54      1.0000 0.13310  0.23370  0.48270  Biso   1.000  H
  C27      1.0000 0.67590  0.10120  0.92380  Biso   1.000  C
  C28      1.0000 0.32410  0.60120  0.07620  Biso   1.000  C
  H55      1.0000 0.76760  0.11720  0.89770  Biso   1.000  H
  H56      1.0000 0.23240  0.61720  0.10230  Biso   1.000  H
  H57      1.0000 0.70130  0.09440  0.99160  Biso   1.000  H
  H58      1.0000 0.29870  0.59440  0.00840  Biso   1.000  H
  H59      1.0000 0.60230  0.15780  0.90850  Biso   1.000  H
  H60      1.0000 0.39770  0.65780  0.09150  Biso   1.000  H
  C29      1.0000 0.71860  0.90770  0.90960  Biso   1.000  C
  C30      1.0000 0.28140  0.40770  0.09040  Biso   1.000  C
  H61      1.0000 0.81020  0.92060  0.88250  Biso   1.000  H
  H62      1.0000 0.18980  0.42060  0.11750  Biso   1.000  H
  H63      1.0000 0.67450  0.84040  0.88730  Biso   1.000  H
  H64      1.0000 0.32550  0.34040  0.11270  Biso   1.000  H
  H65      1.0000 0.74430  0.90610  0.97770  Biso   1.000  H
  H66      1.0000 0.25570  0.40610  0.02230  Biso   1.000  H
  C31      1.0000 0.24380  0.86720  0.96200  Biso   1.000  C
  C32      1.0000 0.75620  0.36720  0.03800  Biso   1.000  C
  H67      1.0000 0.18570  0.80250  0.94890  Biso   1.000  H
  H68      1.0000 0.81430  0.30250  0.05110  Biso   1.000  H
  H69      1.0000 0.17620  0.92740  0.94830  Biso   1.000  H
  H70      1.0000 0.82380  0.42740  0.05170  Biso   1.000  H
  H71      1.0000 0.28980  0.86870  0.02790  Biso   1.000  H
  H72      1.0000 0.71020  0.36870  0.97210  Biso   1.000  H
  N9       1.0000 0.32390  0.96670  0.59690  Biso   1.000  N
  N10      1.0000 0.67610  0.46670  0.40310  Biso   1.000  N
  C33      1.0000 0.20710  0.98610  0.55150  Biso   1.000  C
  C34      1.0000 0.79290  0.48610  0.44850  Biso   1.000  C
  N11      1.0000 0.07130  0.01280  0.50620  Biso   1.000  N
  N12      1.0000 0.92870  0.51280  0.49380  Biso   1.000  N
  C35      1.0000 0.03690  0.99060  0.41720  Biso   1.000  C
  C36      1.0000 0.96310  0.49060  0.58280  Biso   1.000  C
  N13      1.0000 0.99910  0.97500  0.33810  Biso   1.000  N
  N14      1.0000 0.00090  0.47500  0.66190  Biso   1.000  N
  N15      1.0000 0.18340  0.73420  0.46230  Biso   1.000  N
  N16      1.0000 0.81660  0.23420  0.53770  Biso   1.000  N
  C37      1.0000 0.09650  0.72600  0.39330  Biso   1.000  C
  C38      1.0000 0.90350  0.22600  0.60670  Biso   1.000  C
  N17      1.0000 0.00010  0.72720  0.31210  Biso   1.000  N
  N18      1.0000 0.99990  0.22720  0.68790  Biso   1.000  N
  C39      1.0000 0.93170  0.63850  0.28060  Biso   1.000  C
  C40      1.0000 0.06830  0.13850  0.71940  Biso   1.000  C
  N19      1.0000 0.87310  0.56570  0.24560  Biso   1.000  N
  N20      1.0000 0.12690  0.06570  0.75440  Biso   1.000  N
  N21      1.0000 0.99670  0.01770  0.12260  Biso   1.000  N
  N22      1.0000 0.00330  0.51770  0.87740  Biso   1.000  N
  C41      1.0000 0.04840  0.08510  0.08660  Biso   1.000  C
  C42      1.0000 0.95160  0.58510  0.91340  Biso   1.000  C
  N23      1.0000 0.09700  0.18100  0.06500  Biso   1.000  N
  N24      1.0000 0.90300  0.68100  0.93500  Biso   1.000  N
  C43      1.0000 0.07750  0.21230  0.97430  Biso   1.000  C
  C44      1.0000 0.92250  0.71230  0.02570  Biso   1.000  C
  N25      1.0000 0.04950  0.26550  0.91060  Biso   1.000  N
  N26      1.0000 0.95050  0.76550  0.08940  Biso   1.000  N
  N27      1.0000 0.23690  0.85400  0.22910  Biso   1.000  N
  N28      1.0000 0.76310  0.35400  0.77090  Biso   1.000  N
  C45      1.0000 0.36090  0.82560  0.23490  Biso   1.000  C
  C46      1.0000 0.63910  0.32560  0.76510  Biso   1.000  C
  N29      1.0000 0.49780  0.78220  0.24790  Biso   1.000  N
  N30      1.0000 0.50220  0.28220  0.75210  Biso   1.000  N
  C47      1.0000 0.61810  0.83320  0.22150  Biso   1.000  C
  C48      1.0000 0.38190  0.33320  0.77850  Biso   1.000  C
  N31      1.0000 0.72810  0.86830  0.20270  Biso   1.000  N
  N32      1.0000 0.27190  0.36830  0.79730  Biso   1.000  N
  N33      1.0000 0.14600  0.13900  0.04000  Biso   1.000  N
  N34      1.0000 0.85400  0.63900  0.96000  Biso   1.000  N
