data_image0
_cell_length_a       12.3596
_cell_length_b       25.978
_cell_length_c       7.9585
_cell_angle_alpha    90
_cell_angle_beta     90
_cell_angle_gamma    90

_symmetry_space_group_name_H-M    "P 1"
_symmetry_int_tables_number       1

loop_
  _symmetry_equiv_pos_as_xyz
  'x, y, z'

loop_
  _atom_site_label
  _atom_site_occupancy
  _atom_site_fract_x
  _atom_site_fract_y
  _atom_site_fract_z
  _atom_site_thermal_displace_type
  _atom_site_B_iso_or_equiv
  _atom_site_type_symbol
  Cu1      1.0000 0.19233  0.08301  0.44734  Biso   1.000  Cu
  Cu2      1.0000 0.80767  0.91699  0.44734  Biso   1.000  Cu
  Cu3      1.0000 0.30767  0.58301  0.55266  Biso   1.000  Cu
  Cu4      1.0000 0.69233  0.41699  0.55266  Biso   1.000  Cu
  Cu5      1.0000 0.50000  0.00000  0.88000  Biso   1.000  Cu
  Cu6      1.0000 0.00000  0.50000  0.12000  Biso   1.000  Cu
  Cl1      1.0000 0.61937  0.21492  0.73350  Biso   1.000  Cl
  Cl2      1.0000 0.38063  0.78508  0.73350  Biso   1.000  Cl
  Cl3      1.0000 0.88063  0.71492  0.26650  Biso   1.000  Cl
  Cl4      1.0000 0.11937  0.28508  0.26650  Biso   1.000  Cl
  O1       1.0000 0.02470  0.11430  0.40930  Biso   1.000  O
  O2       1.0000 0.97530  0.88570  0.40930  Biso   1.000  O
  O3       1.0000 0.47530  0.61430  0.59070  Biso   1.000  O
  O4       1.0000 0.52470  0.38570  0.59070  Biso   1.000  O
  O5       1.0000 0.17170  0.03565  0.25220  Biso   1.000  O
  O6       1.0000 0.82830  0.96435  0.25220  Biso   1.000  O
  O7       1.0000 0.32830  0.53565  0.74780  Biso   1.000  O
  O8       1.0000 0.67170  0.46435  0.74780  Biso   1.000  O
  O9       1.0000 0.14050  0.03348  0.61810  Biso   1.000  O
  O10      1.0000 0.85950  0.96652  0.61810  Biso   1.000  O
  O11      1.0000 0.35950  0.53348  0.38190  Biso   1.000  O
  O12      1.0000 0.64050  0.46652  0.38190  Biso   1.000  O
  O13      1.0000 0.12830  0.96189  0.46460  Biso   1.000  O
  O14      1.0000 0.87170  0.03811  0.46460  Biso   1.000  O
  O15      1.0000 0.37170  0.46189  0.53540  Biso   1.000  O
  O16      1.0000 0.62830  0.53811  0.53540  Biso   1.000  O
  O17      1.0000 0.47030  0.29140  0.39540  Biso   1.000  O
  O18      1.0000 0.52970  0.70860  0.39540  Biso   1.000  O
  O19      1.0000 0.02970  0.79140  0.60460  Biso   1.000  O
  O20      1.0000 0.97030  0.20860  0.60460  Biso   1.000  O
  O21      1.0000 0.35970  0.30460  0.69140  Biso   1.000  O
  O22      1.0000 0.64030  0.69540  0.69140  Biso   1.000  O
  O23      1.0000 0.14030  0.80460  0.30860  Biso   1.000  O
  O24      1.0000 0.85970  0.19540  0.30860  Biso   1.000  O
  O25      1.0000 0.55870  0.04720  0.69880  Biso   1.000  O
  O26      1.0000 0.44130  0.95280  0.69880  Biso   1.000  O
  O27      1.0000 0.94130  0.54720  0.30120  Biso   1.000  O
  O28      1.0000 0.05870  0.45280  0.30120  Biso   1.000  O
  O29      1.0000 0.38080  0.04630  0.54440  Biso   1.000  O
  O30      1.0000 0.61920  0.95370  0.54440  Biso   1.000  O
  O31      1.0000 0.11920  0.54630  0.45560  Biso   1.000  O
  O32      1.0000 0.88080  0.45370  0.45560  Biso   1.000  O
  O33      1.0000 0.67470  0.96040  0.87880  Biso   1.000  O
  O34      1.0000 0.32530  0.03960  0.87880  Biso   1.000  O
  O35      1.0000 0.82530  0.46040  0.12120  Biso   1.000  O
  O36      1.0000 0.17470  0.53960  0.12120  Biso   1.000  O
  O37      1.0000 0.64930  0.19520  0.89490  Biso   1.000  O
  O38      1.0000 0.35070  0.80480  0.89490  Biso   1.000  O
  O39      1.0000 0.85070  0.69520  0.10510  Biso   1.000  O
  O40      1.0000 0.14930  0.30480  0.10510  Biso   1.000  O
  O41      1.0000 0.70070  0.19940  0.62470  Biso   1.000  O
  O42      1.0000 0.29930  0.80060  0.62470  Biso   1.000  O
  O43      1.0000 0.79930  0.69940  0.37530  Biso   1.000  O
  O44      1.0000 0.20070  0.30060  0.37530  Biso   1.000  O
  O45      1.0000 0.61570  0.27030  0.73970  Biso   1.000  O
  O46      1.0000 0.38430  0.72970  0.73970  Biso   1.000  O
  O47      1.0000 0.88430  0.77030  0.26030  Biso   1.000  O
  O48      1.0000 0.11570  0.22970  0.26030  Biso   1.000  O
  O49      1.0000 0.51820  0.19370  0.68710  Biso   1.000  O
  O50      1.0000 0.48180  0.80630  0.68710  Biso   1.000  O
  O51      1.0000 0.98180  0.69370  0.31290  Biso   1.000  O
  O52      1.0000 0.01820  0.30630  0.31290  Biso   1.000  O
  N1       1.0000 0.21220  0.13737  0.62370  Biso   1.000  N
  N2       1.0000 0.78780  0.86263  0.62370  Biso   1.000  N
  N3       1.0000 0.28780  0.63737  0.37630  Biso   1.000  N
  N4       1.0000 0.71220  0.36263  0.37630  Biso   1.000  N
  N5       1.0000 0.29210  0.13095  0.32250  Biso   1.000  N
  N6       1.0000 0.70790  0.86905  0.32250  Biso   1.000  N
  N7       1.0000 0.20790  0.63095  0.67750  Biso   1.000  N
  N8       1.0000 0.79210  0.36905  0.67750  Biso   1.000  N
  N9       1.0000 0.04800  0.89780  0.03350  Biso   1.000  N
  N10      1.0000 0.95200  0.10220  0.03350  Biso   1.000  N
  N11      1.0000 0.45200  0.39780  0.96650  Biso   1.000  N
  N12      1.0000 0.54800  0.60220  0.96650  Biso   1.000  N
  N13      1.0000 0.56560  0.03860  0.09100  Biso   1.000  N
  N14      1.0000 0.43440  0.96140  0.09100  Biso   1.000  N
  N15      1.0000 0.93440  0.53860  0.90900  Biso   1.000  N
  N16      1.0000 0.06560  0.46140  0.90900  Biso   1.000  N
  C1       1.0000 0.33490  0.12400  0.16870  Biso   1.000  C
  C2       1.0000 0.66510  0.87600  0.16870  Biso   1.000  C
  C3       1.0000 0.16510  0.62400  0.83130  Biso   1.000  C
  C4       1.0000 0.83490  0.37600  0.83130  Biso   1.000  C
  H1       1.0000 0.31690  0.09470  0.10790  Biso   1.000  H
  H2       1.0000 0.68310  0.90530  0.10790  Biso   1.000  H
  H3       1.0000 0.18310  0.59470  0.89210  Biso   1.000  H
  H4       1.0000 0.81690  0.40530  0.89210  Biso   1.000  H
  C5       1.0000 0.40610  0.16000  0.09850  Biso   1.000  C
  C6       1.0000 0.59390  0.84000  0.09850  Biso   1.000  C
  C7       1.0000 0.09390  0.66000  0.90150  Biso   1.000  C
  C8       1.0000 0.90610  0.34000  0.90150  Biso   1.000  C
  H5       1.0000 0.43580  0.15440  0.99270  Biso   1.000  H
  H6       1.0000 0.56420  0.84560  0.99270  Biso   1.000  H
  H7       1.0000 0.06420  0.65440  0.00730  Biso   1.000  H
  H8       1.0000 0.93580  0.34560  0.00730  Biso   1.000  H
  C9       1.0000 0.43120  0.20310  0.18590  Biso   1.000  C
  C10      1.0000 0.56880  0.79690  0.18590  Biso   1.000  C
  C11      1.0000 0.06880  0.70310  0.81410  Biso   1.000  C
  C12      1.0000 0.93120  0.29690  0.81410  Biso   1.000  C
  H9       1.0000 0.47820  0.22710  0.13960  Biso   1.000  H
  H10      1.0000 0.52180  0.77290  0.13960  Biso   1.000  H
  H11      1.0000 0.02180  0.72710  0.86040  Biso   1.000  H
  H12      1.0000 0.97820  0.27290  0.86040  Biso   1.000  H
  C13      1.0000 0.38750  0.21150  0.34370  Biso   1.000  C
  C14      1.0000 0.61250  0.78850  0.34370  Biso   1.000  C
  C15      1.0000 0.11250  0.71150  0.65630  Biso   1.000  C
  C16      1.0000 0.88750  0.28850  0.65630  Biso   1.000  C
  C17      1.0000 0.40920  0.25860  0.44270  Biso   1.000  C
  C18      1.0000 0.59080  0.74140  0.44270  Biso   1.000  C
  C19      1.0000 0.09080  0.75860  0.55730  Biso   1.000  C
  C20      1.0000 0.90920  0.24140  0.55730  Biso   1.000  C
  C21      1.0000 0.34980  0.26490  0.61490  Biso   1.000  C
  C22      1.0000 0.65020  0.73510  0.61490  Biso   1.000  C
  C23      1.0000 0.15020  0.76490  0.38510  Biso   1.000  C
  C24      1.0000 0.84980  0.23510  0.38510  Biso   1.000  C
  C25      1.0000 0.28080  0.22200  0.67590  Biso   1.000  C
  C26      1.0000 0.71920  0.77800  0.67590  Biso   1.000  C
  C27      1.0000 0.21920  0.72200  0.32410  Biso   1.000  C
  C28      1.0000 0.78080  0.27800  0.32410  Biso   1.000  C
  C29      1.0000 0.22940  0.22330  0.82820  Biso   1.000  C
  C30      1.0000 0.77060  0.77670  0.82820  Biso   1.000  C
  C31      1.0000 0.27060  0.72330  0.17180  Biso   1.000  C
  C32      1.0000 0.72940  0.27670  0.17180  Biso   1.000  C
  H13      1.0000 0.23540  0.25220  0.89680  Biso   1.000  H
  H14      1.0000 0.76460  0.74780  0.89680  Biso   1.000  H
  H15      1.0000 0.26460  0.75220  0.10320  Biso   1.000  H
  H16      1.0000 0.73540  0.24780  0.10320  Biso   1.000  H
  C33      1.0000 0.16930  0.18190  0.87870  Biso   1.000  C
  C34      1.0000 0.83070  0.81810  0.87870  Biso   1.000  C
  C35      1.0000 0.33070  0.68190  0.12130  Biso   1.000  C
  C36      1.0000 0.66930  0.31810  0.12130  Biso   1.000  C
  H17      1.0000 0.13360  0.18220  0.98150  Biso   1.000  H
  H18      1.0000 0.86640  0.81780  0.98150  Biso   1.000  H
  H19      1.0000 0.36640  0.68220  0.01850  Biso   1.000  H
  H20      1.0000 0.63360  0.31780  0.01850  Biso   1.000  H
  C37      1.0000 0.16270  0.13930  0.77280  Biso   1.000  C
  C38      1.0000 0.83730  0.86070  0.77280  Biso   1.000  C
  C39      1.0000 0.33730  0.63930  0.22720  Biso   1.000  C
  C40      1.0000 0.66270  0.36070  0.22720  Biso   1.000  C
  H21      1.0000 0.12230  0.11100  0.80740  Biso   1.000  H
  H22      1.0000 0.87770  0.88900  0.80740  Biso   1.000  H
  H23      1.0000 0.37770  0.61100  0.19260  Biso   1.000  H
  H24      1.0000 0.62230  0.38900  0.19260  Biso   1.000  H
  C41      1.0000 0.26980  0.17800  0.57560  Biso   1.000  C
  C42      1.0000 0.73020  0.82200  0.57560  Biso   1.000  C
  C43      1.0000 0.23020  0.67800  0.42440  Biso   1.000  C
  C44      1.0000 0.76980  0.32200  0.42440  Biso   1.000  C
  C45      1.0000 0.31760  0.17360  0.40670  Biso   1.000  C
  C46      1.0000 0.68240  0.82640  0.40670  Biso   1.000  C
  C47      1.0000 0.18240  0.67360  0.59330  Biso   1.000  C
  C48      1.0000 0.81760  0.32640  0.59330  Biso   1.000  C
  C49      1.0000 0.09390  0.95580  0.75450  Biso   1.000  C
  C50      1.0000 0.90610  0.04420  0.75450  Biso   1.000  C
  C51      1.0000 0.40610  0.45580  0.24550  Biso   1.000  C
  C52      1.0000 0.59390  0.54420  0.24550  Biso   1.000  C
  C53      1.0000 0.13550  0.90610  0.76920  Biso   1.000  C
  C54      1.0000 0.86450  0.09390  0.76920  Biso   1.000  C
  C55      1.0000 0.36450  0.40610  0.23080  Biso   1.000  C
  C56      1.0000 0.63550  0.59390  0.23080  Biso   1.000  C
  H25      1.0000 0.17780  0.89250  0.68330  Biso   1.000  H
  H26      1.0000 0.82220  0.10750  0.68330  Biso   1.000  H
  H27      1.0000 0.32220  0.39250  0.31670  Biso   1.000  H
  H28      1.0000 0.67780  0.60750  0.31670  Biso   1.000  H
  C57      1.0000 0.11420  0.87690  0.91070  Biso   1.000  C
  C58      1.0000 0.88580  0.12310  0.91070  Biso   1.000  C
  C59      1.0000 0.38580  0.37690  0.08930  Biso   1.000  C
  C60      1.0000 0.61420  0.62310  0.08930  Biso   1.000  C
  H29      1.0000 0.14350  0.84410  0.92310  Biso   1.000  H
  H30      1.0000 0.85650  0.15590  0.92310  Biso   1.000  H
  H31      1.0000 0.35650  0.34410  0.07690  Biso   1.000  H
  H32      1.0000 0.64350  0.65590  0.07690  Biso   1.000  H
  C61      1.0000 0.00330  0.94590  0.01980  Biso   1.000  C
  C62      1.0000 0.99670  0.05410  0.01980  Biso   1.000  C
  C63      1.0000 0.49670  0.44590  0.98020  Biso   1.000  C
  C64      1.0000 0.50330  0.55410  0.98020  Biso   1.000  C
  H33      1.0000 0.95840  0.95890  0.10360  Biso   1.000  H
  H34      1.0000 0.04160  0.04110  0.10360  Biso   1.000  H
  H35      1.0000 0.54160  0.45890  0.89640  Biso   1.000  H
  H36      1.0000 0.45840  0.54110  0.89640  Biso   1.000  H
  C65      1.0000 0.02570  0.97350  0.88390  Biso   1.000  C
  C66      1.0000 0.97430  0.02650  0.88390  Biso   1.000  C
  C67      1.0000 0.47430  0.47350  0.11610  Biso   1.000  C
  C68      1.0000 0.52570  0.52650  0.11610  Biso   1.000  C
  C69      1.0000 0.12240  0.98550  0.60020  Biso   1.000  C
  C70      1.0000 0.87760  0.01450  0.60020  Biso   1.000  C
  C71      1.0000 0.37760  0.48550  0.39980  Biso   1.000  C
  C72      1.0000 0.62240  0.51450  0.39980  Biso   1.000  C
  C73      1.0000 0.53770  0.02490  0.25100  Biso   1.000  C
  C74      1.0000 0.46230  0.97510  0.25100  Biso   1.000  C
  C75      1.0000 0.96230  0.52490  0.74900  Biso   1.000  C
  C76      1.0000 0.03770  0.47510  0.74900  Biso   1.000  C
  C77      1.0000 0.56080  0.05180  0.38600  Biso   1.000  C
  C78      1.0000 0.43920  0.94820  0.38600  Biso   1.000  C
  C79      1.0000 0.93920  0.55180  0.61400  Biso   1.000  C
  C80      1.0000 0.06080  0.44820  0.61400  Biso   1.000  C
  C81      1.0000 0.62880  0.09460  0.36700  Biso   1.000  C
  C82      1.0000 0.37120  0.90540  0.36700  Biso   1.000  C
  C83      1.0000 0.87120  0.59460  0.63300  Biso   1.000  C
  C84      1.0000 0.12880  0.40540  0.63300  Biso   1.000  C
  H37      1.0000 0.65140  0.11310  0.46060  Biso   1.000  H
  H38      1.0000 0.34860  0.88690  0.46060  Biso   1.000  H
  H39      1.0000 0.84860  0.61310  0.53940  Biso   1.000  H
  H40      1.0000 0.15140  0.38690  0.53940  Biso   1.000  H
  C85      1.0000 0.66200  0.10940  0.20800  Biso   1.000  C
  C86      1.0000 0.33800  0.89060  0.20800  Biso   1.000  C
  C87      1.0000 0.83800  0.60940  0.79200  Biso   1.000  C
  C88      1.0000 0.16200  0.39060  0.79200  Biso   1.000  C
  H41      1.0000 0.70690  0.13770  0.19370  Biso   1.000  H
  H42      1.0000 0.29310  0.86230  0.19370  Biso   1.000  H
  H43      1.0000 0.79310  0.63770  0.80630  Biso   1.000  H
  H44      1.0000 0.20690  0.36230  0.80630  Biso   1.000  H
  C89      1.0000 0.62710  0.08100  0.07200  Biso   1.000  C
  C90      1.0000 0.37290  0.91900  0.07200  Biso   1.000  C
  C91      1.0000 0.87290  0.58100  0.92800  Biso   1.000  C
  C92      1.0000 0.12710  0.41900  0.92800  Biso   1.000  C
  H45      1.0000 0.64650  0.09140  0.96460  Biso   1.000  H
  H46      1.0000 0.35350  0.90860  0.96460  Biso   1.000  H
  H47      1.0000 0.85350  0.59140  0.03540  Biso   1.000  H
  H48      1.0000 0.14650  0.40860  0.03540  Biso   1.000  H
  C93      1.0000 0.48810  0.05200  0.57400  Biso   1.000  C
  C94      1.0000 0.51190  0.94800  0.57400  Biso   1.000  C
  C95      1.0000 0.01190  0.55200  0.42600  Biso   1.000  C
  C96      1.0000 0.98810  0.44800  0.42600  Biso   1.000  C
  H49      1.0000 0.97260  0.09070  0.43000  Biso   1.000  H
  H50      1.0000 0.02740  0.90930  0.43000  Biso   1.000  H
  H51      1.0000 0.52740  0.59070  0.57000  Biso   1.000  H
  H52      1.0000 0.47260  0.40930  0.57000  Biso   1.000  H
  H53      1.0000 0.00040  0.14080  0.46680  Biso   1.000  H
  H54      1.0000 0.99960  0.85920  0.46680  Biso   1.000  H
  H55      1.0000 0.49960  0.64080  0.53320  Biso   1.000  H
  H56      1.0000 0.50040  0.35920  0.53320  Biso   1.000  H
  H57      1.0000 0.16560  0.00470  0.30300  Biso   1.000  H
  H58      1.0000 0.83440  0.99530  0.30300  Biso   1.000  H
  H59      1.0000 0.33440  0.50470  0.69700  Biso   1.000  H
  H60      1.0000 0.66560  0.49530  0.69700  Biso   1.000  H
  H61      1.0000 0.09880  0.03860  0.24340  Biso   1.000  H
  H62      1.0000 0.90120  0.96140  0.24340  Biso   1.000  H
  H63      1.0000 0.40120  0.53860  0.75660  Biso   1.000  H
  H64      1.0000 0.59880  0.46140  0.75660  Biso   1.000  H
