data_image0
_cell_length_a       8.585
_cell_length_b       8.9606
_cell_length_c       11.9532
_cell_angle_alpha    70.215
_cell_angle_beta     76.919
_cell_angle_gamma    69.639

_symmetry_space_group_name_H-M    "P 1"
_symmetry_int_tables_number       1

loop_
  _symmetry_equiv_pos_as_xyz
  'x, y, z'

loop_
  _atom_site_label
  _atom_site_occupancy
  _atom_site_fract_x
  _atom_site_fract_y
  _atom_site_fract_z
  _atom_site_thermal_displace_type
  _atom_site_B_iso_or_equiv
  _atom_site_type_symbol
  Cu1      1.0000 0.00000  0.50000  0.50000  Biso   1.000  Cu
  O1       1.0000 0.08296  0.26120  0.95247  Biso   1.000  O
  O2       1.0000 0.91704  0.73880  0.04753  Biso   1.000  O
  N1       1.0000 0.26520  0.64091  0.16764  Biso   1.000  N
  N2       1.0000 0.73480  0.35909  0.83236  Biso   1.000  N
  N3       1.0000 0.31398  0.87405  0.84104  Biso   1.000  N
  N4       1.0000 0.68602  0.12595  0.15896  Biso   1.000  N
  N5       1.0000 0.45139  0.14158  0.68510  Biso   1.000  N
  N6       1.0000 0.54861  0.85842  0.31490  Biso   1.000  N
  N7       1.0000 0.92352  0.89351  0.62971  Biso   1.000  N
  N8       1.0000 0.07648  0.10649  0.37029  Biso   1.000  N
  N9       1.0000 0.09113  0.83537  0.62496  Biso   1.000  N
  N10      1.0000 0.90887  0.16463  0.37504  Biso   1.000  N
  N11      1.0000 0.51791  0.16580  0.56908  Biso   1.000  N
  N12      1.0000 0.48209  0.83420  0.43092  Biso   1.000  N
  O3       1.0000 0.12256  0.33420  0.09631  Biso   1.000  O
  O4       1.0000 0.87744  0.66580  0.90369  Biso   1.000  O
  N13      1.0000 0.26386  0.33399  0.58036  Biso   1.000  N
  N14      1.0000 0.73614  0.66601  0.41964  Biso   1.000  N
  N15      1.0000 0.13444  0.58446  0.34399  Biso   1.000  N
  N16      1.0000 0.86556  0.41554  0.65601  Biso   1.000  N
  N17      1.0000 0.40565  0.28120  0.50673  Biso   1.000  N
  N18      1.0000 0.59435  0.71880  0.49327  Biso   1.000  N
  C1       1.0000 0.26990  0.84640  0.96978  Biso   1.000  C
  C2       1.0000 0.73010  0.15360  0.03022  Biso   1.000  C
  C3       1.0000 0.53720  0.00770  0.78111  Biso   1.000  C
  C4       1.0000 0.46280  0.99230  0.21889  Biso   1.000  C
  N19      1.0000 0.31950  0.70370  0.23399  Biso   1.000  N
  N20      1.0000 0.68050  0.29630  0.76601  Biso   1.000  N
  N21      1.0000 0.16730  0.31200  0.99546  Biso   1.000  N
  N22      1.0000 0.83270  0.68800  0.00454  Biso   1.000  N
  N23      1.0000 0.01313  0.67854  0.56278  Biso   1.000  N
  N24      1.0000 0.98687  0.32146  0.43722  Biso   1.000  N
  N25      1.0000 0.87667  0.79847  0.59197  Biso   1.000  N
  N26      1.0000 0.12333  0.20153  0.40803  Biso   1.000  N
  O5       1.0000 0.29690  0.34260  0.93590  Biso   1.000  O
  O6       1.0000 0.70310  0.65740  0.06410  Biso   1.000  O
  C5       1.0000 0.49300  0.85070  0.79997  Biso   1.000  C
  C6       1.0000 0.50700  0.14930  0.20003  Biso   1.000  C
  N27      1.0000 0.23990  0.66960  0.33984  Biso   1.000  N
  N28      1.0000 0.76010  0.33040  0.66016  Biso   1.000  N
  C7       1.0000 0.32650  0.66360  0.04065  Biso   1.000  C
  C8       1.0000 0.67350  0.33640  0.95935  Biso   1.000  C
  C9       1.0000 0.29670  0.24430  0.68979  Biso   1.000  C
  C10      1.0000 0.70330  0.75570  0.31021  Biso   1.000  C
  C11      1.0000 0.18380  0.90790  0.67099  Biso   1.000  C
  C12      1.0000 0.81620  0.09210  0.32901  Biso   1.000  C
  C13      1.0000 0.14430  0.70520  0.58362  Biso   1.000  C
  C14      1.0000 0.85570  0.29480  0.41638  Biso   1.000  C
  C15      1.0000 0.23550  0.79500  0.79127  Biso   1.000  C
  C16      1.0000 0.76450  0.20500  0.20873  Biso   1.000  C
  C17      1.0000 0.15380  0.56680  0.23688  Biso   1.000  C
  C18      1.0000 0.84620  0.43320  0.76312  Biso   1.000  C
  H1       1.0000 0.50000  0.04400  0.84880  Biso   1.000  H
  H2       1.0000 0.50000  0.95600  0.15120  Biso   1.000  H
  H3       1.0000 0.64700  0.99400  0.75770  Biso   1.000  H
  H4       1.0000 0.35300  0.00600  0.24230  Biso   1.000  H
  H5       1.0000 0.25500  0.64600  0.57090  Biso   1.000  H
  H6       1.0000 0.74500  0.35400  0.42910  Biso   1.000  H
  H7       1.0000 0.52100  0.82800  0.72250  Biso   1.000  H
  H8       1.0000 0.47900  0.17200  0.27750  Biso   1.000  H
  H9       1.0000 0.11100  0.01100  0.67680  Biso   1.000  H
  H10      1.0000 0.88900  0.98900  0.32320  Biso   1.000  H
  H11      1.0000 0.27600  0.92200  0.61460  Biso   1.000  H
  H12      1.0000 0.72400  0.07800  0.38540  Biso   1.000  H
  H13      1.0000 0.23300  0.25000  0.75290  Biso   1.000  H
  H14      1.0000 0.76700  0.75000  0.24710  Biso   1.000  H
  H15      1.0000 0.30400  0.69200  0.78200  Biso   1.000  H
  H16      1.0000 0.69600  0.30800  0.21800  Biso   1.000  H
  H17      1.0000 0.56800  0.75800  0.85540  Biso   1.000  H
  H18      1.0000 0.43200  0.24200  0.14460  Biso   1.000  H
  H19      1.0000 0.13200  0.77700  0.83990  Biso   1.000  H
  H20      1.0000 0.86800  0.22300  0.16010  Biso   1.000  H
  H21      1.0000 0.28300  0.59700  0.01600  Biso   1.000  H
  H22      1.0000 0.71700  0.40300  0.98400  Biso   1.000  H
  H23      1.0000 0.32100  0.90500  0.99550  Biso   1.000  H
  H24      1.0000 0.67900  0.09500  0.00450  Biso   1.000  H
  H25      1.0000 0.15500  0.88800  0.98890  Biso   1.000  H
  H26      1.0000 0.84500  0.11200  0.01110  Biso   1.000  H
  H27      1.0000 0.44400  0.62500  0.03520  Biso   1.000  H
  H28      1.0000 0.55600  0.37500  0.96480  Biso   1.000  H
  H29      1.0000 0.10200  0.51300  0.21040  Biso   1.000  H
  H30      1.0000 0.89800  0.48700  0.78960  Biso   1.000  H
