data_image0
_cell_length_a       12.2599
_cell_length_b       22.356
_cell_length_c       8.8705
_cell_angle_alpha    90
_cell_angle_beta     92.112
_cell_angle_gamma    90

_symmetry_space_group_name_H-M    "P 1"
_symmetry_int_tables_number       1

loop_
  _symmetry_equiv_pos_as_xyz
  'x, y, z'

loop_
  _atom_site_label
  _atom_site_occupancy
  _atom_site_fract_x
  _atom_site_fract_y
  _atom_site_fract_z
  _atom_site_thermal_displace_type
  _atom_site_B_iso_or_equiv
  _atom_site_type_symbol
  Cu1      1.0000 0.80746  0.63755  0.00593  Biso   1.000  Cu
  Cu2      1.0000 0.80746  0.36246  0.50593  Biso   1.000  Cu
  Cu3      1.0000 0.30746  0.13755  0.00593  Biso   1.000  Cu
  Cu4      1.0000 0.30746  0.86245  0.50593  Biso   1.000  Cu
  Cu5      1.0000 0.69131  0.71667  0.49426  Biso   1.000  Cu
  Cu6      1.0000 0.69131  0.28333  0.99426  Biso   1.000  Cu
  Cu7      1.0000 0.19131  0.21667  0.49426  Biso   1.000  Cu
  Cu8      1.0000 0.19131  0.78333  0.99426  Biso   1.000  Cu
  C1       1.0000 0.02030  0.71765  0.60800  Biso   1.000  C
  C2       1.0000 0.02030  0.28235  0.10800  Biso   1.000  C
  C3       1.0000 0.52030  0.21765  0.60800  Biso   1.000  C
  C4       1.0000 0.52030  0.78235  0.10800  Biso   1.000  C
  H1       1.0000 0.00470  0.67490  0.59470  Biso   1.000  H
  H2       1.0000 0.00470  0.32510  0.09470  Biso   1.000  H
  H3       1.0000 0.50470  0.17490  0.59470  Biso   1.000  H
  H4       1.0000 0.50470  0.82510  0.09470  Biso   1.000  H
  C5       1.0000 0.91580  0.74828  0.65260  Biso   1.000  C
  C6       1.0000 0.91580  0.25172  0.15260  Biso   1.000  C
  C7       1.0000 0.41580  0.24828  0.65260  Biso   1.000  C
  C8       1.0000 0.41580  0.75172  0.15260  Biso   1.000  C
  H5       1.0000 0.93400  0.78300  0.71630  Biso   1.000  H
  H6       1.0000 0.93400  0.21700  0.21630  Biso   1.000  H
  H7       1.0000 0.43400  0.28300  0.71630  Biso   1.000  H
  H8       1.0000 0.43400  0.71700  0.21630  Biso   1.000  H
  C9       1.0000 0.92300  0.75153  0.38870  Biso   1.000  C
  C10      1.0000 0.92300  0.24847  0.88870  Biso   1.000  C
  C11      1.0000 0.42300  0.25153  0.38870  Biso   1.000  C
  C12      1.0000 0.42300  0.74847  0.88870  Biso   1.000  C
  H9       1.0000 0.92050  0.78450  0.31580  Biso   1.000  H
  H10      1.0000 0.92050  0.21550  0.81580  Biso   1.000  H
  H11      1.0000 0.42050  0.28450  0.31580  Biso   1.000  H
  H12      1.0000 0.42050  0.71550  0.81580  Biso   1.000  H
  C13      1.0000 0.04100  0.74471  0.44990  Biso   1.000  C
  C14      1.0000 0.04100  0.25529  0.94990  Biso   1.000  C
  C15      1.0000 0.54100  0.24471  0.44990  Biso   1.000  C
  C16      1.0000 0.54100  0.75529  0.94990  Biso   1.000  C
  H13      1.0000 0.07910  0.71540  0.38890  Biso   1.000  H
  H14      1.0000 0.07910  0.28460  0.88890  Biso   1.000  H
  H15      1.0000 0.57910  0.21540  0.38890  Biso   1.000  H
  H16      1.0000 0.57910  0.78460  0.88890  Biso   1.000  H
  C17      1.0000 0.11390  0.72392  0.72840  Biso   1.000  C
  C18      1.0000 0.11390  0.27608  0.22840  Biso   1.000  C
  C19      1.0000 0.61390  0.22392  0.72840  Biso   1.000  C
  C20      1.0000 0.61390  0.77608  0.22840  Biso   1.000  C
  C21      1.0000 0.84610  0.70512  0.73960  Biso   1.000  C
  C22      1.0000 0.84610  0.29488  0.23960  Biso   1.000  C
  C23      1.0000 0.34610  0.20512  0.73960  Biso   1.000  C
  C24      1.0000 0.34610  0.79488  0.23960  Biso   1.000  C
  C25      1.0000 0.87450  0.69546  0.31110  Biso   1.000  C
  C26      1.0000 0.87450  0.30454  0.81110  Biso   1.000  C
  C27      1.0000 0.37450  0.19546  0.31110  Biso   1.000  C
  C28      1.0000 0.37450  0.80454  0.81110  Biso   1.000  C
  C29      1.0000 0.10470  0.80360  0.45340  Biso   1.000  C
  C30      1.0000 0.10470  0.19640  0.95340  Biso   1.000  C
  C31      1.0000 0.60470  0.30360  0.45340  Biso   1.000  C
  C32      1.0000 0.60470  0.69640  0.95340  Biso   1.000  C
  C33      1.0000 0.99000  0.56660  0.88250  Biso   1.000  C
  C34      1.0000 0.99000  0.43340  0.38250  Biso   1.000  C
  C35      1.0000 0.49000  0.06660  0.88250  Biso   1.000  C
  C36      1.0000 0.49000  0.93340  0.38250  Biso   1.000  C
  H17      1.0000 0.02160  0.60290  0.85700  Biso   1.000  H
  H18      1.0000 0.02160  0.39710  0.35700  Biso   1.000  H
  H19      1.0000 0.52160  0.10290  0.85700  Biso   1.000  H
  H20      1.0000 0.52160  0.89710  0.35700  Biso   1.000  H
  C37      1.0000 0.03940  0.51210  0.83840  Biso   1.000  C
  C38      1.0000 0.03940  0.48790  0.33840  Biso   1.000  C
  C39      1.0000 0.53940  0.01210  0.83840  Biso   1.000  C
  C40      1.0000 0.53940  0.98790  0.33840  Biso   1.000  C
  H21      1.0000 0.10270  0.51240  0.78390  Biso   1.000  H
  H22      1.0000 0.10270  0.48760  0.28390  Biso   1.000  H
  H23      1.0000 0.60270  0.01240  0.78390  Biso   1.000  H
  H24      1.0000 0.60270  0.98760  0.28390  Biso   1.000  H
  C41      1.0000 0.99270  0.46040  0.87690  Biso   1.000  C
  C42      1.0000 0.99270  0.53960  0.37690  Biso   1.000  C
  C43      1.0000 0.49270  0.96040  0.87690  Biso   1.000  C
  C44      1.0000 0.49270  0.03960  0.37690  Biso   1.000  C
  H25      1.0000 0.02320  0.42440  0.84690  Biso   1.000  H
  H26      1.0000 0.02320  0.57560  0.34690  Biso   1.000  H
  H27      1.0000 0.52320  0.92440  0.84690  Biso   1.000  H
  H28      1.0000 0.52320  0.07560  0.34690  Biso   1.000  H
  C45      1.0000 0.90260  0.45980  0.95830  Biso   1.000  C
  C46      1.0000 0.90260  0.54020  0.45830  Biso   1.000  C
  C47      1.0000 0.40260  0.95980  0.95830  Biso   1.000  C
  C48      1.0000 0.40260  0.04020  0.45830  Biso   1.000  C
  H29      1.0000 0.87140  0.42380  0.98640  Biso   1.000  H
  H30      1.0000 0.87140  0.57620  0.48640  Biso   1.000  H
  H31      1.0000 0.37140  0.92380  0.98640  Biso   1.000  H
  H32      1.0000 0.37140  0.07620  0.48640  Biso   1.000  H
  C49      1.0000 0.85690  0.51350  0.99960  Biso   1.000  C
  C50      1.0000 0.85690  0.48650  0.49960  Biso   1.000  C
  C51      1.0000 0.35690  0.01350  0.99960  Biso   1.000  C
  C52      1.0000 0.35690  0.98650  0.49960  Biso   1.000  C
  C53      1.0000 0.75810  0.51870  0.09330  Biso   1.000  C
  C54      1.0000 0.75810  0.48130  0.59330  Biso   1.000  C
  C55      1.0000 0.25810  0.01870  0.09330  Biso   1.000  C
  C56      1.0000 0.25810  0.98130  0.59330  Biso   1.000  C
  C57      1.0000 0.70410  0.47120  0.15760  Biso   1.000  C
  C58      1.0000 0.70410  0.52880  0.65760  Biso   1.000  C
  C59      1.0000 0.20410  0.97120  0.15760  Biso   1.000  C
  C60      1.0000 0.20410  0.02880  0.65760  Biso   1.000  C
  H33      1.0000 0.72630  0.43220  0.13890  Biso   1.000  H
  H34      1.0000 0.72630  0.56780  0.63890  Biso   1.000  H
  H35      1.0000 0.22630  0.93220  0.13890  Biso   1.000  H
  H36      1.0000 0.22630  0.06780  0.63890  Biso   1.000  H
  C61      1.0000 0.61940  0.48130  0.24750  Biso   1.000  C
  C62      1.0000 0.61940  0.51870  0.74750  Biso   1.000  C
  C63      1.0000 0.11940  0.98130  0.24750  Biso   1.000  C
  C64      1.0000 0.11940  0.01870  0.74750  Biso   1.000  C
  H37      1.0000 0.58400  0.44940  0.29220  Biso   1.000  H
  H38      1.0000 0.58400  0.55060  0.79220  Biso   1.000  H
  H39      1.0000 0.08400  0.94940  0.29220  Biso   1.000  H
  H40      1.0000 0.08400  0.05060  0.79220  Biso   1.000  H
  C65      1.0000 0.58590  0.53930  0.27230  Biso   1.000  C
  C66      1.0000 0.58590  0.46070  0.77230  Biso   1.000  C
  C67      1.0000 0.08590  0.03930  0.27230  Biso   1.000  C
  C68      1.0000 0.08590  0.96070  0.77230  Biso   1.000  C
  H41      1.0000 0.52790  0.54720  0.33420  Biso   1.000  H
  H42      1.0000 0.52790  0.45280  0.83420  Biso   1.000  H
  H43      1.0000 0.02790  0.04720  0.33420  Biso   1.000  H
  H44      1.0000 0.02790  0.95280  0.83420  Biso   1.000  H
  C69      1.0000 0.64090  0.58590  0.20250  Biso   1.000  C
  C70      1.0000 0.64090  0.41410  0.70250  Biso   1.000  C
  C71      1.0000 0.14090  0.08590  0.20250  Biso   1.000  C
  C72      1.0000 0.14090  0.91410  0.70250  Biso   1.000  C
  H45      1.0000 0.61850  0.62510  0.21740  Biso   1.000  H
  H46      1.0000 0.61850  0.37490  0.71740  Biso   1.000  H
  H47      1.0000 0.11850  0.12510  0.21740  Biso   1.000  H
  H48      1.0000 0.11850  0.87490  0.71740  Biso   1.000  H
  N1       1.0000 0.72480  0.57526  0.11500  Biso   1.000  N
  N2       1.0000 0.72480  0.42474  0.61500  Biso   1.000  N
  N3       1.0000 0.22480  0.07526  0.11500  Biso   1.000  N
  N4       1.0000 0.22480  0.92474  0.61500  Biso   1.000  N
  N5       1.0000 0.90000  0.56631  0.95910  Biso   1.000  N
  N6       1.0000 0.90000  0.43369  0.45910  Biso   1.000  N
  N7       1.0000 0.40000  0.06631  0.95910  Biso   1.000  N
  N8       1.0000 0.40000  0.93369  0.45910  Biso   1.000  N
  O1       1.0000 0.79620  0.66974  0.37030  Biso   1.000  O
  O2       1.0000 0.79620  0.33026  0.87030  Biso   1.000  O
  O3       1.0000 0.29620  0.16974  0.37030  Biso   1.000  O
  O4       1.0000 0.29620  0.83026  0.87030  Biso   1.000  O
  O5       1.0000 0.84010  0.81180  0.00620  Biso   1.000  O
  O6       1.0000 0.84010  0.18820  0.50620  Biso   1.000  O
  O7       1.0000 0.34010  0.31180  0.00620  Biso   1.000  O
  O8       1.0000 0.34010  0.68820  0.50620  Biso   1.000  O
  H49      1.0000 0.84060  0.77630  0.97200  Biso   1.000  H
  H50      1.0000 0.84060  0.22370  0.47200  Biso   1.000  H
  H51      1.0000 0.34060  0.27630  0.97200  Biso   1.000  H
  H52      1.0000 0.34060  0.72370  0.47200  Biso   1.000  H
  H53      1.0000 0.79010  0.81350  0.06990  Biso   1.000  H
  H54      1.0000 0.79010  0.18650  0.56990  Biso   1.000  H
  H55      1.0000 0.29010  0.31350  0.06990  Biso   1.000  H
  H56      1.0000 0.29010  0.68650  0.56990  Biso   1.000  H
  O9       1.0000 0.91760  0.67872  0.19180  Biso   1.000  O
  O10      1.0000 0.91760  0.32128  0.69180  Biso   1.000  O
  O11      1.0000 0.41760  0.17872  0.19180  Biso   1.000  O
  O12      1.0000 0.41760  0.82128  0.69180  Biso   1.000  O
  O13      1.0000 0.73010  0.87340  0.76270  Biso   1.000  O
  O14      1.0000 0.73010  0.12660  0.26270  Biso   1.000  O
  O15      1.0000 0.23010  0.37340  0.76270  Biso   1.000  O
  O16      1.0000 0.23010  0.62660  0.26270  Biso   1.000  O
  H57      1.0000 0.78850  0.86990  0.81660  Biso   1.000  H
  H58      1.0000 0.78850  0.13010  0.31660  Biso   1.000  H
  H59      1.0000 0.28850  0.36990  0.81660  Biso   1.000  H
  H60      1.0000 0.28850  0.63010  0.31660  Biso   1.000  H
  H61      1.0000 0.73520  0.90520  0.71110  Biso   1.000  H
  H62      1.0000 0.73520  0.09480  0.21110  Biso   1.000  H
  H63      1.0000 0.23520  0.40520  0.71110  Biso   1.000  H
  H64      1.0000 0.23520  0.59480  0.21110  Biso   1.000  H
  O17      1.0000 0.19860  0.79908  0.51830  Biso   1.000  O
  O18      1.0000 0.19860  0.20092  0.01830  Biso   1.000  O
  O19      1.0000 0.69860  0.29908  0.51830  Biso   1.000  O
  O20      1.0000 0.69860  0.70092  0.01830  Biso   1.000  O
  O21      1.0000 0.34040  0.59540  0.88350  Biso   1.000  O
  O22      1.0000 0.34040  0.40460  0.38350  Biso   1.000  O
  O23      1.0000 0.84040  0.09540  0.88350  Biso   1.000  O
  O24      1.0000 0.84040  0.90460  0.38350  Biso   1.000  O
  H65      1.0000 0.29370  0.62330  0.87330  Biso   1.000  H
  H66      1.0000 0.29370  0.37670  0.37330  Biso   1.000  H
  H67      1.0000 0.79370  0.12330  0.87330  Biso   1.000  H
  H68      1.0000 0.79370  0.87670  0.37330  Biso   1.000  H
  H69      1.0000 0.40380  0.61080  0.88960  Biso   1.000  H
  H70      1.0000 0.40380  0.38920  0.38960  Biso   1.000  H
  H71      1.0000 0.90380  0.11080  0.88960  Biso   1.000  H
  H72      1.0000 0.90380  0.88920  0.38960  Biso   1.000  H
  O25      1.0000 0.06530  0.84901  0.39430  Biso   1.000  O
  O26      1.0000 0.06530  0.15099  0.89430  Biso   1.000  O
  O27      1.0000 0.56530  0.34901  0.39430  Biso   1.000  O
  O28      1.0000 0.56530  0.65099  0.89430  Biso   1.000  O
  O29      1.0000 0.10330  0.76863  0.81700  Biso   1.000  O
  O30      1.0000 0.10330  0.23137  0.31700  Biso   1.000  O
  O31      1.0000 0.60330  0.26863  0.81700  Biso   1.000  O
  O32      1.0000 0.60330  0.73137  0.31700  Biso   1.000  O
  O33      1.0000 0.18770  0.68620  0.73480  Biso   1.000  O
  O34      1.0000 0.18770  0.31380  0.23480  Biso   1.000  O
  O35      1.0000 0.68770  0.18620  0.73480  Biso   1.000  O
  O36      1.0000 0.68770  0.81380  0.23480  Biso   1.000  O
  O37      1.0000 0.75740  0.68628  0.68480  Biso   1.000  O
  O38      1.0000 0.75740  0.31372  0.18480  Biso   1.000  O
  O39      1.0000 0.25740  0.18628  0.68480  Biso   1.000  O
  O40      1.0000 0.25740  0.81372  0.18480  Biso   1.000  O
  O41      1.0000 0.88750  0.68905  0.86620  Biso   1.000  O
  O42      1.0000 0.88750  0.31095  0.36620  Biso   1.000  O
  O43      1.0000 0.38750  0.18905  0.86620  Biso   1.000  O
  O44      1.0000 0.38750  0.81095  0.36620  Biso   1.000  O
  O45      1.0000 0.86100  0.76838  0.51490  Biso   1.000  O
  O46      1.0000 0.86100  0.23162  0.01490  Biso   1.000  O
  O47      1.0000 0.36100  0.26838  0.51490  Biso   1.000  O
  O48      1.0000 0.36100  0.73162  0.01490  Biso   1.000  O
  O49      1.0000 0.62480  0.78845  0.59850  Biso   1.000  O
  O50      1.0000 0.62480  0.21155  0.09850  Biso   1.000  O
  O51      1.0000 0.12480  0.28845  0.59850  Biso   1.000  O
  O52      1.0000 0.12480  0.71155  0.09850  Biso   1.000  O
  H73      1.0000 0.56270  0.80450  0.58110  Biso   1.000  H
  H74      1.0000 0.56270  0.19550  0.08110  Biso   1.000  H
  H75      1.0000 0.06270  0.30450  0.58110  Biso   1.000  H
  H76      1.0000 0.06270  0.69550  0.08110  Biso   1.000  H
  H77      1.0000 0.66500  0.80990  0.65680  Biso   1.000  H
  H78      1.0000 0.66500  0.19010  0.15680  Biso   1.000  H
  H79      1.0000 0.16500  0.30990  0.65680  Biso   1.000  H
  H80      1.0000 0.16500  0.69010  0.15680  Biso   1.000  H
  O53      1.0000 0.55710  0.65278  0.56330  Biso   1.000  O
  O54      1.0000 0.55710  0.34722  0.06330  Biso   1.000  O
  O55      1.0000 0.05710  0.15278  0.56330  Biso   1.000  O
  O56      1.0000 0.05710  0.84722  0.06330  Biso   1.000  O
  H81      1.0000 0.57000  0.65300  0.65820  Biso   1.000  H
  H82      1.0000 0.57000  0.34700  0.15820  Biso   1.000  H
  H83      1.0000 0.07000  0.15300  0.65820  Biso   1.000  H
  H84      1.0000 0.07000  0.84700  0.15820  Biso   1.000  H
  H85      1.0000 0.49320  0.66680  0.54750  Biso   1.000  H
  H86      1.0000 0.49320  0.33320  0.04750  Biso   1.000  H
  H87      1.0000 0.99320  0.16680  0.54750  Biso   1.000  H
  H88      1.0000 0.99320  0.83320  0.04750  Biso   1.000  H
