data_image0
_cell_length_a       8.8222
_cell_length_b       23.392
_cell_length_c       15.038
_cell_angle_alpha    90
_cell_angle_beta     124.92
_cell_angle_gamma    90

_symmetry_space_group_name_H-M    "P 1"
_symmetry_int_tables_number       1

loop_
  _symmetry_equiv_pos_as_xyz
  'x, y, z'

loop_
  _atom_site_label
  _atom_site_occupancy
  _atom_site_fract_x
  _atom_site_fract_y
  _atom_site_fract_z
  _atom_site_thermal_displace_type
  _atom_site_B_iso_or_equiv
  _atom_site_type_symbol
  Cu1      1.0000 0.27855  0.64390  0.93564  Biso   1.000  Cu
  Cu2      1.0000 0.72145  0.14390  0.56436  Biso   1.000  Cu
  Cu3      1.0000 0.72145  0.35610  0.06436  Biso   1.000  Cu
  Cu4      1.0000 0.27855  0.85610  0.43564  Biso   1.000  Cu
  Cu5      1.0000 0.67225  0.77524  0.31500  Biso   1.000  Cu
  Cu6      1.0000 0.32775  0.27524  0.18500  Biso   1.000  Cu
  Cu7      1.0000 0.32775  0.22476  0.68500  Biso   1.000  Cu
  Cu8      1.0000 0.67225  0.72476  0.81500  Biso   1.000  Cu
  C1       1.0000 0.89280  0.72240  0.14480  Biso   1.000  C
  C2       1.0000 0.10720  0.22240  0.35520  Biso   1.000  C
  C3       1.0000 0.10720  0.27760  0.85520  Biso   1.000  C
  C4       1.0000 0.89280  0.77760  0.64480  Biso   1.000  C
  H1       1.0000 0.89170  0.68180  0.12820  Biso   1.000  H
  H2       1.0000 0.10830  0.18180  0.37180  Biso   1.000  H
  H3       1.0000 0.10830  0.31820  0.87180  Biso   1.000  H
  H4       1.0000 0.89170  0.81820  0.62820  Biso   1.000  H
  C5       1.0000 0.73980  0.75230  0.04020  Biso   1.000  C
  C6       1.0000 0.26020  0.25230  0.45980  Biso   1.000  C
  C7       1.0000 0.26020  0.24770  0.95980  Biso   1.000  C
  C8       1.0000 0.73980  0.74770  0.54020  Biso   1.000  C
  H5       1.0000 0.69270  0.78460  0.05910  Biso   1.000  H
  H6       1.0000 0.30730  0.28460  0.44090  Biso   1.000  H
  H7       1.0000 0.30730  0.21540  0.94090  Biso   1.000  H
  H8       1.0000 0.69270  0.71540  0.55910  Biso   1.000  H
  C9       1.0000 0.01290  0.75770  0.04890  Biso   1.000  C
  C10      1.0000 0.98710  0.25770  0.45110  Biso   1.000  C
  C11      1.0000 0.98710  0.24230  0.95110  Biso   1.000  C
  C12      1.0000 0.01290  0.74230  0.54890  Biso   1.000  C
  H9       1.0000 0.08440  0.78940  0.04780  Biso   1.000  H
  H10      1.0000 0.91560  0.28940  0.45220  Biso   1.000  H
  H11      1.0000 0.91560  0.21060  0.95220  Biso   1.000  H
  H12      1.0000 0.08440  0.71060  0.54780  Biso   1.000  H
  C13      1.0000 0.07030  0.74940  0.16510  Biso   1.000  C
  C14      1.0000 0.92970  0.24940  0.33490  Biso   1.000  C
  C15      1.0000 0.92970  0.25060  0.83490  Biso   1.000  C
  C16      1.0000 0.07030  0.75060  0.66510  Biso   1.000  C
  H13      1.0000 0.17220  0.72190  0.20260  Biso   1.000  H
  H14      1.0000 0.82780  0.22190  0.29740  Biso   1.000  H
  H15      1.0000 0.82780  0.27810  0.79740  Biso   1.000  H
  H16      1.0000 0.17220  0.77810  0.70260  Biso   1.000  H
  C17      1.0000 0.86360  0.72660  0.23550  Biso   1.000  C
  C18      1.0000 0.13640  0.22660  0.26450  Biso   1.000  C
  C19      1.0000 0.13640  0.27340  0.76450  Biso   1.000  C
  C20      1.0000 0.86360  0.77340  0.73550  Biso   1.000  C
  C21      1.0000 0.58220  0.71150  0.96850  Biso   1.000  C
  C22      1.0000 0.41780  0.21150  0.53150  Biso   1.000  C
  C23      1.0000 0.41780  0.28850  0.03150  Biso   1.000  C
  C24      1.0000 0.58220  0.78850  0.46850  Biso   1.000  C
  C25      1.0000 0.04070  0.70510  0.99970  Biso   1.000  C
  C26      1.0000 0.95930  0.20510  0.50030  Biso   1.000  C
  C27      1.0000 0.95930  0.29490  0.00030  Biso   1.000  C
  C28      1.0000 0.04070  0.79490  0.49970  Biso   1.000  C
  C29      1.0000 0.12730  0.80540  0.23000  Biso   1.000  C
  C30      1.0000 0.87270  0.30540  0.27000  Biso   1.000  C
  C31      1.0000 0.87270  0.19460  0.77000  Biso   1.000  C
  C32      1.0000 0.12730  0.69460  0.73000  Biso   1.000  C
  C33      1.0000 0.90620  0.58950  0.77490  Biso   1.000  C
  C34      1.0000 0.09380  0.08950  0.72510  Biso   1.000  C
  C35      1.0000 0.09380  0.41050  0.22510  Biso   1.000  C
  C36      1.0000 0.90620  0.91050  0.27490  Biso   1.000  C
  H17      1.0000 0.86920  0.62420  0.73790  Biso   1.000  H
  H18      1.0000 0.13080  0.12420  0.76210  Biso   1.000  H
  H19      1.0000 0.13080  0.37580  0.26210  Biso   1.000  H
  H20      1.0000 0.86920  0.87580  0.23790  Biso   1.000  H
  C37      1.0000 0.77960  0.54470  0.73480  Biso   1.000  C
  C38      1.0000 0.22040  0.04470  0.76520  Biso   1.000  C
  C39      1.0000 0.22040  0.45530  0.26520  Biso   1.000  C
  C40      1.0000 0.77960  0.95530  0.23480  Biso   1.000  C
  H21      1.0000 0.66080  0.54950  0.67250  Biso   1.000  H
  H22      1.0000 0.33920  0.04950  0.82750  Biso   1.000  H
  H23      1.0000 0.33920  0.45050  0.32750  Biso   1.000  H
  H24      1.0000 0.66080  0.95050  0.17250  Biso   1.000  H
  C41      1.0000 0.83320  0.49290  0.78920  Biso   1.000  C
  C42      1.0000 0.16680  0.99290  0.71080  Biso   1.000  C
  C43      1.0000 0.16680  0.50710  0.21080  Biso   1.000  C
  C44      1.0000 0.83320  0.00710  0.28920  Biso   1.000  C
  H25      1.0000 0.75090  0.46230  0.76290  Biso   1.000  H
  H26      1.0000 0.24910  0.96230  0.73710  Biso   1.000  H
  H27      1.0000 0.24910  0.53770  0.23710  Biso   1.000  H
  H28      1.0000 0.75090  0.03770  0.26290  Biso   1.000  H
  C45      1.0000 0.01210  0.48660  0.88420  Biso   1.000  C
  C46      1.0000 0.98790  0.98660  0.61580  Biso   1.000  C
  C47      1.0000 0.98790  0.51340  0.11580  Biso   1.000  C
  C48      1.0000 0.01210  0.01340  0.38420  Biso   1.000  C
  C49      1.0000 0.08190  0.43580  0.94950  Biso   1.000  C
  C50      1.0000 0.91810  0.93580  0.55050  Biso   1.000  C
  C51      1.0000 0.91810  0.56420  0.05050  Biso   1.000  C
  C52      1.0000 0.08190  0.06420  0.44950  Biso   1.000  C
  H29      1.0000 0.00560  0.40400  0.92900  Biso   1.000  H
  H30      1.0000 0.99440  0.90400  0.57100  Biso   1.000  H
  H31      1.0000 0.99440  0.59600  0.07100  Biso   1.000  H
  H32      1.0000 0.00560  0.09600  0.42900  Biso   1.000  H
  C53      1.0000 0.24880  0.43340  0.03640  Biso   1.000  C
  C54      1.0000 0.75120  0.93340  0.46360  Biso   1.000  C
  C55      1.0000 0.75120  0.56660  0.96360  Biso   1.000  C
  C56      1.0000 0.24880  0.06660  0.53640  Biso   1.000  C
  H33      1.0000 0.28970  0.39940  0.07550  Biso   1.000  H
  H34      1.0000 0.71030  0.89940  0.42450  Biso   1.000  H
  H35      1.0000 0.71030  0.60060  0.92450  Biso   1.000  H
  H36      1.0000 0.28970  0.10060  0.57550  Biso   1.000  H
  C57      1.0000 0.37340  0.48130  0.07480  Biso   1.000  C
  C58      1.0000 0.62660  0.98130  0.42520  Biso   1.000  C
  C59      1.0000 0.62660  0.51870  0.92520  Biso   1.000  C
  C60      1.0000 0.37340  0.01870  0.57480  Biso   1.000  C
  C61      1.0000 0.55650  0.48130  0.17080  Biso   1.000  C
  C62      1.0000 0.44350  0.98130  0.32920  Biso   1.000  C
  C63      1.0000 0.44350  0.51870  0.82920  Biso   1.000  C
  C64      1.0000 0.55650  0.01870  0.67080  Biso   1.000  C
  H37      1.0000 0.60560  0.44860  0.21340  Biso   1.000  H
  H38      1.0000 0.39440  0.94860  0.28660  Biso   1.000  H
  H39      1.0000 0.39440  0.55140  0.78660  Biso   1.000  H
  H40      1.0000 0.60560  0.05140  0.71340  Biso   1.000  H
  C65      1.0000 0.65910  0.53050  0.19940  Biso   1.000  C
  C66      1.0000 0.34090  0.03050  0.30060  Biso   1.000  C
  C67      1.0000 0.34090  0.46950  0.80060  Biso   1.000  C
  C68      1.0000 0.65910  0.96950  0.69940  Biso   1.000  C
  H41      1.0000 0.77860  0.53140  0.26230  Biso   1.000  H
  H42      1.0000 0.22140  0.03140  0.23770  Biso   1.000  H
  H43      1.0000 0.22140  0.46860  0.73770  Biso   1.000  H
  H44      1.0000 0.77860  0.96860  0.76230  Biso   1.000  H
  C69      1.0000 0.58380  0.57970  0.13370  Biso   1.000  C
  C70      1.0000 0.41620  0.07970  0.36630  Biso   1.000  C
  C71      1.0000 0.41620  0.42030  0.86630  Biso   1.000  C
  C72      1.0000 0.58380  0.92030  0.63370  Biso   1.000  C
  H45      1.0000 0.65460  0.61280  0.15490  Biso   1.000  H
  H46      1.0000 0.34540  0.11280  0.34510  Biso   1.000  H
  H47      1.0000 0.34540  0.38720  0.84510  Biso   1.000  H
  H48      1.0000 0.65460  0.88720  0.65490  Biso   1.000  H
  C73      1.0000 0.31260  0.53190  0.01450  Biso   1.000  C
  C74      1.0000 0.68740  0.03190  0.48550  Biso   1.000  C
  C75      1.0000 0.68740  0.46810  0.98550  Biso   1.000  C
  C76      1.0000 0.31260  0.96810  0.51450  Biso   1.000  C
  C77      1.0000 0.13000  0.53430  0.91790  Biso   1.000  C
  C78      1.0000 0.87000  0.03430  0.58210  Biso   1.000  C
  C79      1.0000 0.87000  0.46570  0.08210  Biso   1.000  C
  C80      1.0000 0.13000  0.96570  0.41790  Biso   1.000  C
  C81      1.0000 0.85400  0.91340  0.01290  Biso   1.000  C
  C82      1.0000 0.14600  0.41340  0.48710  Biso   1.000  C
  C83      1.0000 0.14600  0.08660  0.98710  Biso   1.000  C
  C84      1.0000 0.85400  0.58660  0.51290  Biso   1.000  C
  H49      1.0000 0.89830  0.95050  0.04530  Biso   1.000  H
  H50      1.0000 0.10170  0.45050  0.45470  Biso   1.000  H
  H51      1.0000 0.10170  0.04950  0.95470  Biso   1.000  H
  H52      1.0000 0.89830  0.54950  0.54530  Biso   1.000  H
  H53      1.0000 0.87440  0.88670  0.06710  Biso   1.000  H
  H54      1.0000 0.12560  0.38670  0.43290  Biso   1.000  H
  H55      1.0000 0.12560  0.11330  0.93290  Biso   1.000  H
  H56      1.0000 0.87440  0.61330  0.56710  Biso   1.000  H
  H57      1.0000 0.72480  0.91550  0.95630  Biso   1.000  H
  H58      1.0000 0.27520  0.41550  0.54370  Biso   1.000  H
  H59      1.0000 0.27520  0.08450  0.04370  Biso   1.000  H
  H60      1.0000 0.72480  0.58450  0.45630  Biso   1.000  H
  N1       1.0000 0.07780  0.58504  0.86360  Biso   1.000  N
  N2       1.0000 0.92220  0.08504  0.63640  Biso   1.000  N
  N3       1.0000 0.92220  0.41496  0.13640  Biso   1.000  N
  N4       1.0000 0.07780  0.91496  0.36360  Biso   1.000  N
  N5       1.0000 0.41450  0.58001  0.04230  Biso   1.000  N
  N6       1.0000 0.58550  0.08001  0.45770  Biso   1.000  N
  N7       1.0000 0.58550  0.41999  0.95770  Biso   1.000  N
  N8       1.0000 0.41450  0.91999  0.54230  Biso   1.000  N
  O1       1.0000 0.75690  0.76676  0.22450  Biso   1.000  O
  O2       1.0000 0.24310  0.26676  0.27550  Biso   1.000  O
  O3       1.0000 0.24310  0.23324  0.77550  Biso   1.000  O
  O4       1.0000 0.75690  0.73324  0.72450  Biso   1.000  O
  O5       1.0000 0.31320  0.69020  0.46780  Biso   1.000  O
  O6       1.0000 0.68680  0.19020  0.03220  Biso   1.000  O
  O7       1.0000 0.68680  0.30980  0.53220  Biso   1.000  O
  O8       1.0000 0.31320  0.80980  0.96780  Biso   1.000  O
  H61      1.0000 0.34750  0.72480  0.48420  Biso   1.000  H
  H62      1.0000 0.65250  0.22480  0.01580  Biso   1.000  H
  H63      1.0000 0.65250  0.27520  0.51580  Biso   1.000  H
  H64      1.0000 0.34750  0.77520  0.98420  Biso   1.000  H
  H65      1.0000 0.20010  0.69420  0.41580  Biso   1.000  H
  H66      1.0000 0.79990  0.19420  0.08420  Biso   1.000  H
  H67      1.0000 0.79990  0.30580  0.58420  Biso   1.000  H
  H68      1.0000 0.20010  0.80580  0.91580  Biso   1.000  H
  O9       1.0000 0.93590  0.69099  0.30900  Biso   1.000  O
  O10      1.0000 0.06410  0.19099  0.19100  Biso   1.000  O
  O11      1.0000 0.06410  0.30901  0.69100  Biso   1.000  O
  O12      1.0000 0.93590  0.80901  0.80900  Biso   1.000  O
  O13      1.0000 0.45420  0.86970  0.86160  Biso   1.000  O
  O14      1.0000 0.54580  0.36970  0.63840  Biso   1.000  O
  O15      1.0000 0.54580  0.13030  0.13840  Biso   1.000  O
  O16      1.0000 0.45420  0.63030  0.36160  Biso   1.000  O
  H69      1.0000 0.54750  0.87410  0.85920  Biso   1.000  H
  H70      1.0000 0.45250  0.37410  0.64080  Biso   1.000  H
  H71      1.0000 0.45250  0.12590  0.14080  Biso   1.000  H
  H72      1.0000 0.54750  0.62590  0.35920  Biso   1.000  H
  H73      1.0000 0.39330  0.84230  0.86380  Biso   1.000  H
  H74      1.0000 0.60670  0.34230  0.63620  Biso   1.000  H
  H75      1.0000 0.60670  0.15770  0.13620  Biso   1.000  H
  H76      1.0000 0.39330  0.65770  0.36380  Biso   1.000  H
  O17      1.0000 0.15510  0.79937  0.32240  Biso   1.000  O
  O18      1.0000 0.84490  0.29937  0.17760  Biso   1.000  O
  O19      1.0000 0.84490  0.20063  0.67760  Biso   1.000  O
  O20      1.0000 0.15510  0.70063  0.82240  Biso   1.000  O
  O21      1.0000 0.15010  0.85022  0.19500  Biso   1.000  O
  O22      1.0000 0.84990  0.35022  0.30500  Biso   1.000  O
  O23      1.0000 0.84990  0.14978  0.80500  Biso   1.000  O
  O24      1.0000 0.15010  0.64978  0.69500  Biso   1.000  O
  O25      1.0000 0.90160  0.68079  0.91970  Biso   1.000  O
  O26      1.0000 0.09840  0.18079  0.58030  Biso   1.000  O
  O27      1.0000 0.09840  0.31921  0.08030  Biso   1.000  O
  O28      1.0000 0.90160  0.81921  0.41970  Biso   1.000  O
  O29      1.0000 0.20330  0.68795  0.04270  Biso   1.000  O
  O30      1.0000 0.79670  0.18795  0.45730  Biso   1.000  O
  O31      1.0000 0.79670  0.31205  0.95730  Biso   1.000  O
  O32      1.0000 0.20330  0.81205  0.54270  Biso   1.000  O
  O33      1.0000 0.54120  0.69762  0.87730  Biso   1.000  O
  O34      1.0000 0.45880  0.19762  0.62270  Biso   1.000  O
  O35      1.0000 0.45880  0.30238  0.12270  Biso   1.000  O
  O36      1.0000 0.54120  0.80238  0.37730  Biso   1.000  O
  O37      1.0000 0.50180  0.69233  0.01030  Biso   1.000  O
  O38      1.0000 0.49820  0.19233  0.48970  Biso   1.000  O
  O39      1.0000 0.49820  0.30767  0.98970  Biso   1.000  O
  O40      1.0000 0.50180  0.80767  0.51030  Biso   1.000  O
  O41      1.0000 0.82160  0.77383  0.98700  Biso   1.000  O
  O42      1.0000 0.17840  0.27383  0.51300  Biso   1.000  O
  O43      1.0000 0.17840  0.22617  0.01300  Biso   1.000  O
  O44      1.0000 0.82160  0.72617  0.48700  Biso   1.000  O
  O45      1.0000 0.50690  0.70740  0.24700  Biso   1.000  O
  O46      1.0000 0.49310  0.20740  0.25300  Biso   1.000  O
  O47      1.0000 0.49310  0.29260  0.75300  Biso   1.000  O
  O48      1.0000 0.50690  0.79260  0.74700  Biso   1.000  O
  H77      1.0000 0.50320  0.68920  0.19690  Biso   1.000  H
  H78      1.0000 0.49680  0.18920  0.30310  Biso   1.000  H
  H79      1.0000 0.49680  0.31080  0.80310  Biso   1.000  H
  H80      1.0000 0.50320  0.81080  0.69690  Biso   1.000  H
  H81      1.0000 0.44020  0.69680  0.26810  Biso   1.000  H
  H82      1.0000 0.55980  0.19680  0.23190  Biso   1.000  H
  H83      1.0000 0.55980  0.30320  0.73190  Biso   1.000  H
  H84      1.0000 0.44020  0.80320  0.76810  Biso   1.000  H
  O49      1.0000 0.47140  0.84430  0.18700  Biso   1.000  O
  O50      1.0000 0.52860  0.34430  0.31300  Biso   1.000  O
  O51      1.0000 0.52860  0.15570  0.81300  Biso   1.000  O
  O52      1.0000 0.47140  0.65570  0.68700  Biso   1.000  O
  H85      1.0000 0.47400  0.85150  0.13240  Biso   1.000  H
  H86      1.0000 0.52600  0.35150  0.36760  Biso   1.000  H
  H87      1.0000 0.52600  0.14850  0.86760  Biso   1.000  H
  H88      1.0000 0.47400  0.64850  0.63240  Biso   1.000  H
  H89      1.0000 0.39650  0.86220  0.19540  Biso   1.000  H
  H90      1.0000 0.60350  0.36220  0.30460  Biso   1.000  H
  H91      1.0000 0.60350  0.13780  0.80460  Biso   1.000  H
  H92      1.0000 0.39650  0.63780  0.69540  Biso   1.000  H
  O53      1.0000 0.95200  0.89500  0.96870  Biso   1.000  O
  O54      1.0000 0.04800  0.39500  0.53130  Biso   1.000  O
  O55      1.0000 0.04800  0.10500  0.03130  Biso   1.000  O
  O56      1.0000 0.95200  0.60500  0.46870  Biso   1.000  O
  H93      1.0000 0.99750  0.92250  0.95810  Biso   1.000  H
  H94      1.0000 0.00250  0.42250  0.54190  Biso   1.000  H
  H95      1.0000 0.00250  0.07750  0.04190  Biso   1.000  H
  H96      1.0000 0.99750  0.57750  0.45810  Biso   1.000  H
