data_image0
_cell_length_a       13.038
_cell_length_b       13.784
_cell_length_c       13.225
_cell_angle_alpha    90
_cell_angle_beta     93.44
_cell_angle_gamma    90

_symmetry_space_group_name_H-M    "P 1"
_symmetry_int_tables_number       1

loop_
  _symmetry_equiv_pos_as_xyz
  'x, y, z'

loop_
  _atom_site_label
  _atom_site_occupancy
  _atom_site_fract_x
  _atom_site_fract_y
  _atom_site_fract_z
  _atom_site_thermal_displace_type
  _atom_site_B_iso_or_equiv
  _atom_site_type_symbol
  W1       1.0000 0.11236  0.03930  0.79665  Biso   1.000  W
  W2       1.0000 0.88764  0.53930  0.70335  Biso   1.000  W
  W3       1.0000 0.88764  0.96070  0.20335  Biso   1.000  W
  W4       1.0000 0.11236  0.46070  0.29665  Biso   1.000  W
  Cu1      1.0000 0.11734  0.71849  0.00364  Biso   1.000  Cu
  Cu2      1.0000 0.88266  0.21849  0.49636  Biso   1.000  Cu
  Cu3      1.0000 0.88266  0.28151  0.99636  Biso   1.000  Cu
  Cu4      1.0000 0.11734  0.78151  0.50364  Biso   1.000  Cu
  Cu5      1.0000 0.75420  0.87326  0.83629  Biso   1.000  Cu
  Cu6      1.0000 0.24580  0.37326  0.66371  Biso   1.000  Cu
  Cu7      1.0000 0.24580  0.12674  0.16371  Biso   1.000  Cu
  Cu8      1.0000 0.75420  0.62674  0.33629  Biso   1.000  Cu
  O1       1.0000 0.61790  0.67760  0.35510  Biso   1.000  O
  O2       1.0000 0.38210  0.17760  0.14490  Biso   1.000  O
  O3       1.0000 0.38210  0.32240  0.64490  Biso   1.000  O
  O4       1.0000 0.61790  0.82240  0.85510  Biso   1.000  O
  O5       1.0000 0.67750  0.94620  0.71150  Biso   1.000  O
  O6       1.0000 0.32250  0.44620  0.78850  Biso   1.000  O
  O7       1.0000 0.32250  0.05380  0.28850  Biso   1.000  O
  O8       1.0000 0.67750  0.55380  0.21150  Biso   1.000  O
  O9       1.0000 0.25090  0.65600  0.96990  Biso   1.000  O
  O10      1.0000 0.74910  0.15600  0.53010  Biso   1.000  O
  O11      1.0000 0.74910  0.34400  0.03010  Biso   1.000  O
  O12      1.0000 0.25090  0.84400  0.46990  Biso   1.000  O
  O13      1.0000 0.47780  0.94390  0.59840  Biso   1.000  O
  O14      1.0000 0.52220  0.44390  0.90160  Biso   1.000  O
  O15      1.0000 0.52220  0.05610  0.40160  Biso   1.000  O
  O16      1.0000 0.47780  0.55610  0.09840  Biso   1.000  O
  O17      1.0000 0.25550  0.44750  0.96260  Biso   1.000  O
  O18      1.0000 0.74450  0.94750  0.53740  Biso   1.000  O
  O19      1.0000 0.74450  0.55250  0.03740  Biso   1.000  O
  O20      1.0000 0.25550  0.05250  0.46260  Biso   1.000  O
  H1       1.0000 0.29610  0.43040  0.00890  Biso   1.000  H
  H2       1.0000 0.70390  0.93040  0.49110  Biso   1.000  H
  H3       1.0000 0.70390  0.56960  0.99110  Biso   1.000  H
  H4       1.0000 0.29610  0.06960  0.50890  Biso   1.000  H
  N1       1.0000 0.14550  0.83000  0.91770  Biso   1.000  N
  N2       1.0000 0.85450  0.33000  0.58230  Biso   1.000  N
  N3       1.0000 0.85450  0.17000  0.08230  Biso   1.000  N
  N4       1.0000 0.14550  0.67000  0.41770  Biso   1.000  N
  N5       1.0000 0.35570  0.99520  0.75730  Biso   1.000  N
  N6       1.0000 0.64430  0.49520  0.74270  Biso   1.000  N
  N7       1.0000 0.64430  0.00480  0.24270  Biso   1.000  N
  N8       1.0000 0.35570  0.50480  0.25730  Biso   1.000  N
  N9       1.0000 0.11700  0.88210  0.60810  Biso   1.000  N
  N10      1.0000 0.88300  0.38210  0.89190  Biso   1.000  N
  N11      1.0000 0.88300  0.11790  0.39190  Biso   1.000  N
  N12      1.0000 0.11700  0.61790  0.10810  Biso   1.000  N
  N13      1.0000 0.97930  0.14430  0.60630  Biso   1.000  N
  N14      1.0000 0.02070  0.64430  0.89370  Biso   1.000  N
  N15      1.0000 0.02070  0.85570  0.39370  Biso   1.000  N
  N16      1.0000 0.97930  0.35570  0.10630  Biso   1.000  N
  N17      1.0000 0.21630  0.24760  0.73780  Biso   1.000  N
  N18      1.0000 0.78370  0.74760  0.76220  Biso   1.000  N
  N19      1.0000 0.78370  0.75240  0.26220  Biso   1.000  N
  N20      1.0000 0.21630  0.25240  0.23780  Biso   1.000  N
  N21      1.0000 0.88390  0.93430  0.80720  Biso   1.000  N
  N22      1.0000 0.11610  0.43430  0.69280  Biso   1.000  N
  N23      1.0000 0.11610  0.06570  0.19280  Biso   1.000  N
  N24      1.0000 0.88390  0.56570  0.30720  Biso   1.000  N
  N25      1.0000 0.96750  0.19600  0.91390  Biso   1.000  N
  N26      1.0000 0.03250  0.69600  0.58610  Biso   1.000  N
  N27      1.0000 0.03250  0.80400  0.08610  Biso   1.000  N
  N28      1.0000 0.96750  0.30400  0.41390  Biso   1.000  N
  N29      1.0000 0.22640  0.08520  0.02200  Biso   1.000  N
  N30      1.0000 0.77360  0.58520  0.47800  Biso   1.000  N
  N31      1.0000 0.77360  0.91480  0.97800  Biso   1.000  N
  N32      1.0000 0.22640  0.41480  0.52200  Biso   1.000  N
  N33      1.0000 0.56680  0.66960  0.44130  Biso   1.000  N
  N34      1.0000 0.43320  0.16960  0.05870  Biso   1.000  N
  N35      1.0000 0.43320  0.33040  0.55870  Biso   1.000  N
  N36      1.0000 0.56680  0.83040  0.94130  Biso   1.000  N
  N37      1.0000 0.29570  0.66430  0.88070  Biso   1.000  N
  N38      1.0000 0.70430  0.16430  0.61930  Biso   1.000  N
  N39      1.0000 0.70430  0.33570  0.11930  Biso   1.000  N
  N40      1.0000 0.29570  0.83570  0.38070  Biso   1.000  N
  C1       1.0000 0.13460  0.90320  0.87620  Biso   1.000  C
  C2       1.0000 0.86540  0.40320  0.62380  Biso   1.000  C
  C3       1.0000 0.86540  0.09680  0.12380  Biso   1.000  C
  C4       1.0000 0.13460  0.59680  0.37620  Biso   1.000  C
  C5       1.0000 0.27000  0.01050  0.77200  Biso   1.000  C
  C6       1.0000 0.73000  0.51050  0.72800  Biso   1.000  C
  C7       1.0000 0.73000  0.98950  0.22800  Biso   1.000  C
  C8       1.0000 0.27000  0.48950  0.27200  Biso   1.000  C
  C9       1.0000 0.11510  0.93790  0.67260  Biso   1.000  C
  C10      1.0000 0.88490  0.43790  0.82740  Biso   1.000  C
  C11      1.0000 0.88490  0.06210  0.32740  Biso   1.000  C
  C12      1.0000 0.11510  0.56210  0.17260  Biso   1.000  C
  C13      1.0000 0.02460  0.10640  0.67200  Biso   1.000  C
  C14      1.0000 0.97540  0.60640  0.82800  Biso   1.000  C
  C15      1.0000 0.97540  0.89360  0.32800  Biso   1.000  C
  C16      1.0000 0.02460  0.39360  0.17200  Biso   1.000  C
  C17      1.0000 0.18320  0.17370  0.76130  Biso   1.000  C
  C18      1.0000 0.81680  0.67370  0.73870  Biso   1.000  C
  C19      1.0000 0.81680  0.82630  0.23870  Biso   1.000  C
  C20      1.0000 0.18320  0.32630  0.26130  Biso   1.000  C
  C21      1.0000 0.01740  0.14160  0.87270  Biso   1.000  C
  C22      1.0000 0.98260  0.64160  0.62730  Biso   1.000  C
  C23      1.0000 0.98260  0.85840  0.12730  Biso   1.000  C
  C24      1.0000 0.01740  0.35840  0.37270  Biso   1.000  C
  C25      1.0000 0.18770  0.06910  0.94370  Biso   1.000  C
  C26      1.0000 0.81230  0.56910  0.55630  Biso   1.000  C
  C27      1.0000 0.81230  0.93090  0.05630  Biso   1.000  C
  C28      1.0000 0.18770  0.43090  0.44370  Biso   1.000  C
  C29      1.0000 0.96390  0.97120  0.80470  Biso   1.000  C
  C30      1.0000 0.03610  0.47120  0.69530  Biso   1.000  C
  C31      1.0000 0.03610  0.02880  0.19530  Biso   1.000  C
  C32      1.0000 0.96390  0.52880  0.30470  Biso   1.000  C
  C33      1.0000 0.60410  0.71940  0.52530  Biso   1.000  C
  C34      1.0000 0.39590  0.21940  0.97470  Biso   1.000  C
  C35      1.0000 0.39590  0.28060  0.47470  Biso   1.000  C
  C36      1.0000 0.60410  0.78060  0.02530  Biso   1.000  C
  H5       1.0000 0.66470  0.75460  0.52310  Biso   1.000  H
  H6       1.0000 0.33530  0.25460  0.97690  Biso   1.000  H
  H7       1.0000 0.33530  0.24540  0.47690  Biso   1.000  H
  H8       1.0000 0.66470  0.74540  0.02310  Biso   1.000  H
  C37      1.0000 0.55310  0.71770  0.61190  Biso   1.000  C
  C38      1.0000 0.44690  0.21770  0.88810  Biso   1.000  C
  C39      1.0000 0.44690  0.28230  0.38810  Biso   1.000  C
  C40      1.0000 0.55310  0.78230  0.11190  Biso   1.000  C
  H9       1.0000 0.57990  0.74830  0.67030  Biso   1.000  H
  H10      1.0000 0.42010  0.24830  0.82970  Biso   1.000  H
  H11      1.0000 0.42010  0.25170  0.32970  Biso   1.000  H
  H12      1.0000 0.57990  0.75170  0.17030  Biso   1.000  H
  C41      1.0000 0.45760  0.66770  0.61090  Biso   1.000  C
  C42      1.0000 0.54240  0.16770  0.88910  Biso   1.000  C
  C43      1.0000 0.54240  0.33230  0.38910  Biso   1.000  C
  C44      1.0000 0.45760  0.83230  0.11090  Biso   1.000  C
  C45      1.0000 0.42240  0.61980  0.52490  Biso   1.000  C
  C46      1.0000 0.57760  0.11980  0.97510  Biso   1.000  C
  C47      1.0000 0.57760  0.38020  0.47510  Biso   1.000  C
  C48      1.0000 0.42240  0.88020  0.02490  Biso   1.000  C
  H13      1.0000 0.36040  0.58640  0.52410  Biso   1.000  H
  H14      1.0000 0.63960  0.08640  0.97590  Biso   1.000  H
  H15      1.0000 0.63960  0.41360  0.47590  Biso   1.000  H
  H16      1.0000 0.36040  0.91360  0.02410  Biso   1.000  H
  C49      1.0000 0.47720  0.62080  0.44070  Biso   1.000  C
  C50      1.0000 0.52280  0.12080  0.05930  Biso   1.000  C
  C51      1.0000 0.52280  0.37920  0.55930  Biso   1.000  C
  C52      1.0000 0.47720  0.87920  0.94070  Biso   1.000  C
  H17      1.0000 0.45300  0.58790  0.38280  Biso   1.000  H
  H18      1.0000 0.54700  0.08790  0.11720  Biso   1.000  H
  H19      1.0000 0.54700  0.41210  0.61720  Biso   1.000  H
  H20      1.0000 0.45300  0.91210  0.88280  Biso   1.000  H
  C53      1.0000 0.39940  0.66810  0.70630  Biso   1.000  C
  C54      1.0000 0.60060  0.16810  0.79370  Biso   1.000  C
  C55      1.0000 0.60060  0.33190  0.29370  Biso   1.000  C
  C56      1.0000 0.39940  0.83190  0.20630  Biso   1.000  C
  C57      1.0000 0.45360  0.66370  0.80020  Biso   1.000  C
  C58      1.0000 0.54640  0.16370  0.69980  Biso   1.000  C
  C59      1.0000 0.54640  0.33630  0.19980  Biso   1.000  C
  C60      1.0000 0.45360  0.83630  0.30020  Biso   1.000  C
  H21      1.0000 0.52510  0.66140  0.80520  Biso   1.000  H
  H22      1.0000 0.47490  0.16140  0.69480  Biso   1.000  H
  H23      1.0000 0.47490  0.33860  0.19480  Biso   1.000  H
  H24      1.0000 0.52510  0.83860  0.30520  Biso   1.000  H
  C61      1.0000 0.39840  0.66280  0.88500  Biso   1.000  C
  C62      1.0000 0.60160  0.16280  0.61500  Biso   1.000  C
  C63      1.0000 0.60160  0.33720  0.11500  Biso   1.000  C
  C64      1.0000 0.39840  0.83720  0.38500  Biso   1.000  C
  H25      1.0000 0.43370  0.66100  0.94820  Biso   1.000  H
  H26      1.0000 0.56630  0.16100  0.55180  Biso   1.000  H
  H27      1.0000 0.56630  0.33900  0.05180  Biso   1.000  H
  H28      1.0000 0.43370  0.83900  0.44820  Biso   1.000  H
  C65      1.0000 0.24570  0.66970  0.78900  Biso   1.000  C
  C66      1.0000 0.75430  0.16970  0.71100  Biso   1.000  C
  C67      1.0000 0.75430  0.33030  0.21100  Biso   1.000  C
  C68      1.0000 0.24570  0.83030  0.28900  Biso   1.000  C
  H29      1.0000 0.17430  0.67210  0.78500  Biso   1.000  H
  H30      1.0000 0.82570  0.17210  0.71500  Biso   1.000  H
  H31      1.0000 0.82570  0.32790  0.21500  Biso   1.000  H
  H32      1.0000 0.17430  0.82790  0.28500  Biso   1.000  H
  C69      1.0000 0.29420  0.67170  0.70470  Biso   1.000  C
  C70      1.0000 0.70580  0.17170  0.79530  Biso   1.000  C
  C71      1.0000 0.70580  0.32830  0.29530  Biso   1.000  C
  C72      1.0000 0.29420  0.82830  0.20470  Biso   1.000  C
  H33      1.0000 0.25650  0.67570  0.64290  Biso   1.000  H
  H34      1.0000 0.74350  0.17570  0.85710  Biso   1.000  H
  H35      1.0000 0.74350  0.32430  0.35710  Biso   1.000  H
  H36      1.0000 0.25650  0.82430  0.14290  Biso   1.000  H
  C73      1.0000 0.17030  0.39530  0.96460  Biso   1.000  C
  C74      1.0000 0.82970  0.89530  0.53540  Biso   1.000  C
  C75      1.0000 0.82970  0.60470  0.03540  Biso   1.000  C
  C76      1.0000 0.17030  0.10470  0.46460  Biso   1.000  C
  H37      1.0000 0.18700  0.33110  0.98850  Biso   1.000  H
  H38      1.0000 0.81300  0.83110  0.51150  Biso   1.000  H
  H39      1.0000 0.81300  0.66890  0.01150  Biso   1.000  H
  H40      1.0000 0.18700  0.16890  0.48850  Biso   1.000  H
  H41      1.0000 0.13800  0.39150  0.89760  Biso   1.000  H
  H42      1.0000 0.86200  0.89150  0.60240  Biso   1.000  H
  H43      1.0000 0.86200  0.60850  0.10240  Biso   1.000  H
  H44      1.0000 0.13800  0.10850  0.39760  Biso   1.000  H
  H45      1.0000 0.12430  0.42530  0.00910  Biso   1.000  H
  H46      1.0000 0.87570  0.92530  0.49090  Biso   1.000  H
  H47      1.0000 0.87570  0.57470  0.99090  Biso   1.000  H
  H48      1.0000 0.12430  0.07470  0.50910  Biso   1.000  H
