data_image0
_cell_length_a       8.926
_cell_length_b       12.175
_cell_length_c       11.636
_cell_angle_alpha    96.49
_cell_angle_beta     100.51
_cell_angle_gamma    111.22

_symmetry_space_group_name_H-M    "P 1"
_symmetry_int_tables_number       1

loop_
  _symmetry_equiv_pos_as_xyz
  'x, y, z'

loop_
  _atom_site_label
  _atom_site_occupancy
  _atom_site_fract_x
  _atom_site_fract_y
  _atom_site_fract_z
  _atom_site_thermal_displace_type
  _atom_site_B_iso_or_equiv
  _atom_site_type_symbol
  Cu1      1.0000 0.84240  0.47280  0.49320  Biso   1.000  Cu
  Cu2      1.0000 0.15760  0.52720  0.50680  Biso   1.000  Cu
  O1       1.0000 0.83900  0.31860  0.52840  Biso   1.000  O
  O2       1.0000 0.16100  0.68140  0.47160  Biso   1.000  O
  O3       1.0000 0.10660  0.36510  0.53720  Biso   1.000  O
  O4       1.0000 0.89340  0.63490  0.46280  Biso   1.000  O
  O5       1.0000 0.91100  0.53530  0.66570  Biso   1.000  O
  O6       1.0000 0.08900  0.46470  0.33430  Biso   1.000  O
  O7       1.0000 0.18090  0.58420  0.67630  Biso   1.000  O
  O8       1.0000 0.81910  0.41580  0.32370  Biso   1.000  O
  C1       1.0000 0.96700  0.29900  0.54400  Biso   1.000  C
  C2       1.0000 0.03300  0.70100  0.45600  Biso   1.000  C
  C3       1.0000 0.95200  0.17800  0.58300  Biso   1.000  C
  C4       1.0000 0.04800  0.82200  0.41700  Biso   1.000  C
  C5       1.0000 0.80900  0.07900  0.54000  Biso   1.000  C
  C6       1.0000 0.19100  0.92100  0.46000  Biso   1.000  C
  C7       1.0000 0.79200  0.97100  0.57000  Biso   1.000  C
  C8       1.0000 0.20800  0.02900  0.43000  Biso   1.000  C
  C9       1.0000 0.91700  0.95800  0.64400  Biso   1.000  C
  C10      1.0000 0.08300  0.04200  0.35600  Biso   1.000  C
  C11      1.0000 0.05800  0.05600  0.69300  Biso   1.000  C
  C12      1.0000 0.94200  0.94400  0.30700  Biso   1.000  C
  C13      1.0000 0.07800  0.16800  0.66000  Biso   1.000  C
  C14      1.0000 0.92200  0.83200  0.34000  Biso   1.000  C
  F1       1.0000 0.68030  0.07670  0.46050  Biso   1.000  F
  F2       1.0000 0.31970  0.92330  0.53950  Biso   1.000  F
  F3       1.0000 0.65720  0.87150  0.52440  Biso   1.000  F
  F4       1.0000 0.34280  0.12850  0.47560  Biso   1.000  F
  F5       1.0000 0.90740  0.85540  0.67770  Biso   1.000  F
  F6       1.0000 0.09260  0.14460  0.32230  Biso   1.000  F
  F7       1.0000 0.18930  0.05520  0.77270  Biso   1.000  F
  F8       1.0000 0.81070  0.94480  0.22730  Biso   1.000  F
  F9       1.0000 0.21750  0.26550  0.71120  Biso   1.000  F
  F10      1.0000 0.78250  0.73450  0.28880  Biso   1.000  F
  C15      1.0000 0.05900  0.57300  0.72000  Biso   1.000  C
  C16      1.0000 0.94100  0.42700  0.28000  Biso   1.000  C
  C17      1.0000 0.09600  0.61000  0.85300  Biso   1.000  C
  C18      1.0000 0.90400  0.39000  0.14700  Biso   1.000  C
  C19      1.0000 0.00800  0.66600  0.90500  Biso   1.000  C
  C20      1.0000 0.99200  0.33400  0.09500  Biso   1.000  C
  C21      1.0000 0.04600  0.70500  0.02600  Biso   1.000  C
  C22      1.0000 0.95400  0.29500  0.97400  Biso   1.000  C
  C23      1.0000 0.16200  0.68300  0.10000  Biso   1.000  C
  C24      1.0000 0.83800  0.31700  0.90000  Biso   1.000  C
  C25      1.0000 0.24800  0.62700  0.05000  Biso   1.000  C
  C26      1.0000 0.75200  0.37300  0.95000  Biso   1.000  C
  C27      1.0000 0.21500  0.58800  0.92700  Biso   1.000  C
  C28      1.0000 0.78500  0.41200  0.07300  Biso   1.000  C
  F11      1.0000 0.89400  0.69410  0.84120  Biso   1.000  F
  F12      1.0000 0.10600  0.30590  0.15880  Biso   1.000  F
  F13      1.0000 0.95940  0.75850  0.07810  Biso   1.000  F
  F14      1.0000 0.04060  0.24150  0.92190  Biso   1.000  F
  F15      1.0000 0.19950  0.71350  0.22070  Biso   1.000  F
  F16      1.0000 0.80050  0.28650  0.77930  Biso   1.000  F
  F17      1.0000 0.36660  0.60020  0.12140  Biso   1.000  F
  F18      1.0000 0.63340  0.39980  0.87860  Biso   1.000  F
  F19      1.0000 0.30150  0.53200  0.88320  Biso   1.000  F
  F20      1.0000 0.69850  0.46800  0.11680  Biso   1.000  F
  O9       1.0000 0.58200  0.42600  0.46800  Biso   1.000  O
  O10      1.0000 0.41800  0.57400  0.53200  Biso   1.000  O
  C29      1.0000 0.49100  0.46800  0.37900  Biso   1.000  C
  C30      1.0000 0.50900  0.53200  0.62100  Biso   1.000  C
  C31      1.0000 0.50800  0.41400  0.56900  Biso   1.000  C
  C32      1.0000 0.49200  0.58600  0.43100  Biso   1.000  C
  O11      1.0000 0.72200  0.99700  0.83200  Biso   1.000  O
  O12      1.0000 0.27800  0.00300  0.16800  Biso   1.000  O
  C33      1.0000 0.56300  0.00300  0.81600  Biso   1.000  C
  C34      1.0000 0.43700  0.99700  0.18400  Biso   1.000  C
  C35      1.0000 0.42900  0.87900  0.79700  Biso   1.000  C
  C36      1.0000 0.57100  0.12100  0.20300  Biso   1.000  C
  O13      1.0000 0.46800  0.83100  0.90300  Biso   1.000  O
  O14      1.0000 0.53200  0.16900  0.09700  Biso   1.000  O
  C37      1.0000 0.62300  0.82300  0.91800  Biso   1.000  C
  C38      1.0000 0.37700  0.17700  0.08200  Biso   1.000  C
  C39      1.0000 0.75900  0.94800  0.93500  Biso   1.000  C
  C40      1.0000 0.24100  0.05200  0.06500  Biso   1.000  C
