data_image0
_cell_length_a       16.379
_cell_length_b       9.414
_cell_length_c       14.524
_cell_angle_alpha    90
_cell_angle_beta     101.77
_cell_angle_gamma    90

_symmetry_space_group_name_H-M    "P 1"
_symmetry_int_tables_number       1

loop_
  _symmetry_equiv_pos_as_xyz
  'x, y, z'

loop_
  _atom_site_label
  _atom_site_occupancy
  _atom_site_fract_x
  _atom_site_fract_y
  _atom_site_fract_z
  _atom_site_thermal_displace_type
  _atom_site_B_iso_or_equiv
  _atom_site_type_symbol
  Cu1      1.0000 0.50000  0.00000  0.50000  Biso   1.000  Cu
  Cu2      1.0000 0.00000  0.50000  0.50000  Biso   1.000  Cu
  Cu3      1.0000 0.50000  0.00000  0.00000  Biso   1.000  Cu
  Cu4      1.0000 0.00000  0.50000  0.00000  Biso   1.000  Cu
  O1       1.0000 0.53768  0.14033  0.41697  Biso   1.000  O
  O2       1.0000 0.03768  0.64033  0.41697  Biso   1.000  O
  O3       1.0000 0.46232  0.14033  0.08303  Biso   1.000  O
  O4       1.0000 0.96232  0.64033  0.08303  Biso   1.000  O
  O5       1.0000 0.46232  0.85967  0.58303  Biso   1.000  O
  O6       1.0000 0.96232  0.35967  0.58303  Biso   1.000  O
  O7       1.0000 0.53768  0.85967  0.91697  Biso   1.000  O
  O8       1.0000 0.03768  0.35967  0.91697  Biso   1.000  O
  O9       1.0000 0.63991  0.98947  0.46669  Biso   1.000  O
  O10      1.0000 0.13991  0.48947  0.46669  Biso   1.000  O
  O11      1.0000 0.36009  0.98947  0.03331  Biso   1.000  O
  O12      1.0000 0.86009  0.48947  0.03331  Biso   1.000  O
  O13      1.0000 0.36009  0.01053  0.53331  Biso   1.000  O
  O14      1.0000 0.86009  0.51053  0.53331  Biso   1.000  O
  O15      1.0000 0.63991  0.01053  0.96669  Biso   1.000  O
  O16      1.0000 0.13991  0.51053  0.96669  Biso   1.000  O
  O17      1.0000 0.65966  0.57288  0.68514  Biso   1.000  O
  O18      1.0000 0.15966  0.07288  0.68514  Biso   1.000  O
  O19      1.0000 0.34034  0.57288  0.81486  Biso   1.000  O
  O20      1.0000 0.84034  0.07288  0.81486  Biso   1.000  O
  O21      1.0000 0.34034  0.42712  0.31486  Biso   1.000  O
  O22      1.0000 0.84034  0.92712  0.31486  Biso   1.000  O
  O23      1.0000 0.65966  0.42712  0.18514  Biso   1.000  O
  O24      1.0000 0.15966  0.92712  0.18514  Biso   1.000  O
  O25      1.0000 0.64213  0.45166  0.88024  Biso   1.000  O
  O26      1.0000 0.14213  0.95166  0.88024  Biso   1.000  O
  O27      1.0000 0.35787  0.45166  0.61976  Biso   1.000  O
  O28      1.0000 0.85787  0.95166  0.61976  Biso   1.000  O
  O29      1.0000 0.35787  0.54834  0.11976  Biso   1.000  O
  O30      1.0000 0.85787  0.04834  0.11976  Biso   1.000  O
  O31      1.0000 0.64213  0.54834  0.38024  Biso   1.000  O
  O32      1.0000 0.14213  0.04834  0.38024  Biso   1.000  O
  N1       1.0000 0.54868  0.12404  0.61129  Biso   1.000  N
  N2       1.0000 0.04868  0.62404  0.61129  Biso   1.000  N
  N3       1.0000 0.45132  0.12404  0.88871  Biso   1.000  N
  N4       1.0000 0.95132  0.62404  0.88871  Biso   1.000  N
  N5       1.0000 0.45132  0.87596  0.38871  Biso   1.000  N
  N6       1.0000 0.95132  0.37596  0.38871  Biso   1.000  N
  N7       1.0000 0.54868  0.87596  0.11129  Biso   1.000  N
  N8       1.0000 0.04868  0.37596  0.11129  Biso   1.000  N
  N9       1.0000 0.51894  0.57033  0.63715  Biso   1.000  N
  N10      1.0000 0.01894  0.07033  0.63715  Biso   1.000  N
  N11      1.0000 0.48106  0.57033  0.86285  Biso   1.000  N
  N12      1.0000 0.98106  0.07033  0.86285  Biso   1.000  N
  N13      1.0000 0.48106  0.42967  0.36285  Biso   1.000  N
  N14      1.0000 0.98106  0.92967  0.36285  Biso   1.000  N
  N15      1.0000 0.51894  0.42967  0.13715  Biso   1.000  N
  N16      1.0000 0.01894  0.92967  0.13715  Biso   1.000  N
  N17      1.0000 0.76026  0.32786  0.88090  Biso   1.000  N
  N18      1.0000 0.26026  0.82786  0.88090  Biso   1.000  N
  N19      1.0000 0.23974  0.32786  0.61910  Biso   1.000  N
  N20      1.0000 0.73974  0.82786  0.61910  Biso   1.000  N
  N21      1.0000 0.23974  0.67214  0.11910  Biso   1.000  N
  N22      1.0000 0.73974  0.17214  0.11910  Biso   1.000  N
  N23      1.0000 0.76026  0.67214  0.38090  Biso   1.000  N
  N24      1.0000 0.26026  0.17214  0.38090  Biso   1.000  N
  C1       1.0000 0.54666  0.26688  0.60935  Biso   1.000  C
  C2       1.0000 0.04666  0.76688  0.60935  Biso   1.000  C
  C3       1.0000 0.45334  0.26688  0.89065  Biso   1.000  C
  C4       1.0000 0.95334  0.76688  0.89065  Biso   1.000  C
  C5       1.0000 0.45334  0.73312  0.39065  Biso   1.000  C
  C6       1.0000 0.95334  0.23312  0.39065  Biso   1.000  C
  C7       1.0000 0.54666  0.73312  0.10935  Biso   1.000  C
  C8       1.0000 0.04666  0.23312  0.10935  Biso   1.000  C
  C9       1.0000 0.59071  0.35092  0.68110  Biso   1.000  C
  C10      1.0000 0.09071  0.85092  0.68110  Biso   1.000  C
  C11      1.0000 0.40929  0.35092  0.81890  Biso   1.000  C
  C12      1.0000 0.90929  0.85092  0.81890  Biso   1.000  C
  C13      1.0000 0.40929  0.64908  0.31890  Biso   1.000  C
  C14      1.0000 0.90929  0.14908  0.31890  Biso   1.000  C
  C15      1.0000 0.59071  0.64908  0.18110  Biso   1.000  C
  C16      1.0000 0.09071  0.14908  0.18110  Biso   1.000  C
  C17      1.0000 0.63919  0.28302  0.75909  Biso   1.000  C
  C18      1.0000 0.13919  0.78302  0.75909  Biso   1.000  C
  C19      1.0000 0.36081  0.28302  0.74091  Biso   1.000  C
  C20      1.0000 0.86081  0.78302  0.74091  Biso   1.000  C
  C21      1.0000 0.36081  0.71698  0.24091  Biso   1.000  C
  C22      1.0000 0.86081  0.21698  0.24091  Biso   1.000  C
  C23      1.0000 0.63919  0.71698  0.25909  Biso   1.000  C
  C24      1.0000 0.13919  0.21698  0.25909  Biso   1.000  C
  C25      1.0000 0.64178  0.13590  0.76060  Biso   1.000  C
  C26      1.0000 0.14178  0.63590  0.76060  Biso   1.000  C
  C27      1.0000 0.35822  0.13590  0.73940  Biso   1.000  C
  C28      1.0000 0.85822  0.63590  0.73940  Biso   1.000  C
  C29      1.0000 0.35822  0.86410  0.23940  Biso   1.000  C
  C30      1.0000 0.85822  0.36410  0.23940  Biso   1.000  C
  C31      1.0000 0.64178  0.86410  0.26060  Biso   1.000  C
  C32      1.0000 0.14178  0.36410  0.26060  Biso   1.000  C
  C33      1.0000 0.59535  0.06060  0.68621  Biso   1.000  C
  C34      1.0000 0.09535  0.56060  0.68621  Biso   1.000  C
  C35      1.0000 0.40465  0.06060  0.81379  Biso   1.000  C
  C36      1.0000 0.90465  0.56060  0.81379  Biso   1.000  C
  C37      1.0000 0.40465  0.93940  0.31379  Biso   1.000  C
  C38      1.0000 0.90465  0.43940  0.31379  Biso   1.000  C
  C39      1.0000 0.59535  0.93940  0.18621  Biso   1.000  C
  C40      1.0000 0.09535  0.43940  0.18621  Biso   1.000  C
  C41      1.0000 0.59245  0.51000  0.66905  Biso   1.000  C
  C42      1.0000 0.09245  0.01000  0.66905  Biso   1.000  C
  C43      1.0000 0.40755  0.51000  0.83095  Biso   1.000  C
  C44      1.0000 0.90755  0.01000  0.83095  Biso   1.000  C
  C45      1.0000 0.40755  0.49000  0.33095  Biso   1.000  C
  C46      1.0000 0.90755  0.99000  0.33095  Biso   1.000  C
  C47      1.0000 0.59245  0.49000  0.16905  Biso   1.000  C
  C48      1.0000 0.09245  0.99000  0.16905  Biso   1.000  C
  C49      1.0000 0.68172  0.36345  0.84516  Biso   1.000  C
  C50      1.0000 0.18172  0.86345  0.84516  Biso   1.000  C
  C51      1.0000 0.31828  0.36345  0.65484  Biso   1.000  C
  C52      1.0000 0.81828  0.86345  0.65484  Biso   1.000  C
  C53      1.0000 0.31828  0.63655  0.15484  Biso   1.000  C
  C54      1.0000 0.81828  0.13655  0.15484  Biso   1.000  C
  C55      1.0000 0.68172  0.63655  0.34516  Biso   1.000  C
  C56      1.0000 0.18172  0.13655  0.34516  Biso   1.000  C
  C57      1.0000 0.61439  0.10132  0.42496  Biso   1.000  C
  C58      1.0000 0.11439  0.60132  0.42496  Biso   1.000  C
  C59      1.0000 0.38561  0.10132  0.07504  Biso   1.000  C
  C60      1.0000 0.88561  0.60132  0.07504  Biso   1.000  C
  C61      1.0000 0.38561  0.89868  0.57504  Biso   1.000  C
  C62      1.0000 0.88561  0.39868  0.57504  Biso   1.000  C
  C63      1.0000 0.61439  0.89868  0.92496  Biso   1.000  C
  C64      1.0000 0.11439  0.39868  0.92496  Biso   1.000  C
  C65      1.0000 0.67205  0.19720  0.38462  Biso   1.000  C
  C66      1.0000 0.17205  0.69720  0.38462  Biso   1.000  C
  C67      1.0000 0.32795  0.19720  0.11538  Biso   1.000  C
  C68      1.0000 0.82795  0.69720  0.11538  Biso   1.000  C
  C69      1.0000 0.32795  0.80280  0.61538  Biso   1.000  C
  C70      1.0000 0.82795  0.30280  0.61538  Biso   1.000  C
  C71      1.0000 0.67205  0.80280  0.88462  Biso   1.000  C
  C72      1.0000 0.17205  0.30280  0.88462  Biso   1.000  C
  C73      1.0000 0.75541  0.21730  0.45357  Biso   1.000  C
  C74      1.0000 0.25541  0.71730  0.45357  Biso   1.000  C
  C75      1.0000 0.24459  0.21730  0.04643  Biso   1.000  C
  C76      1.0000 0.74459  0.71730  0.04643  Biso   1.000  C
  C77      1.0000 0.24459  0.78270  0.54643  Biso   1.000  C
  C78      1.0000 0.74459  0.28270  0.54643  Biso   1.000  C
  C79      1.0000 0.75541  0.78270  0.95357  Biso   1.000  C
  C80      1.0000 0.25541  0.28270  0.95357  Biso   1.000  C
  H1       1.0000 0.51420  0.31140  0.55740  Biso   1.000  H
  H2       1.0000 0.01420  0.81140  0.55740  Biso   1.000  H
  H3       1.0000 0.48580  0.31140  0.94260  Biso   1.000  H
  H4       1.0000 0.98580  0.81140  0.94260  Biso   1.000  H
  H5       1.0000 0.48580  0.68860  0.44260  Biso   1.000  H
  H6       1.0000 0.98580  0.18860  0.44260  Biso   1.000  H
  H7       1.0000 0.51420  0.68860  0.05740  Biso   1.000  H
  H8       1.0000 0.01420  0.18860  0.05740  Biso   1.000  H
  H9       1.0000 0.67440  0.08830  0.81120  Biso   1.000  H
  H10      1.0000 0.17440  0.58830  0.81120  Biso   1.000  H
  H11      1.0000 0.32560  0.08830  0.68880  Biso   1.000  H
  H12      1.0000 0.82560  0.58830  0.68880  Biso   1.000  H
  H13      1.0000 0.32560  0.91170  0.18880  Biso   1.000  H
  H14      1.0000 0.82560  0.41170  0.18880  Biso   1.000  H
  H15      1.0000 0.67440  0.91170  0.31120  Biso   1.000  H
  H16      1.0000 0.17440  0.41170  0.31120  Biso   1.000  H
  H17      1.0000 0.59660  0.96190  0.68840  Biso   1.000  H
  H18      1.0000 0.09660  0.46190  0.68840  Biso   1.000  H
  H19      1.0000 0.40340  0.96190  0.81160  Biso   1.000  H
  H20      1.0000 0.90340  0.46190  0.81160  Biso   1.000  H
  H21      1.0000 0.40340  0.03810  0.31160  Biso   1.000  H
  H22      1.0000 0.90340  0.53810  0.31160  Biso   1.000  H
  H23      1.0000 0.59660  0.03810  0.18840  Biso   1.000  H
  H24      1.0000 0.09660  0.53810  0.18840  Biso   1.000  H
  H25      1.0000 0.64570  0.28900  0.37000  Biso   1.000  H
  H26      1.0000 0.14570  0.78900  0.37000  Biso   1.000  H
  H27      1.0000 0.35430  0.28900  0.13000  Biso   1.000  H
  H28      1.0000 0.85430  0.78900  0.13000  Biso   1.000  H
  H29      1.0000 0.35430  0.71100  0.63000  Biso   1.000  H
  H30      1.0000 0.85430  0.21100  0.63000  Biso   1.000  H
  H31      1.0000 0.64570  0.71100  0.87000  Biso   1.000  H
  H32      1.0000 0.14570  0.21100  0.87000  Biso   1.000  H
  H33      1.0000 0.68210  0.15650  0.32660  Biso   1.000  H
  H34      1.0000 0.18210  0.65650  0.32660  Biso   1.000  H
  H35      1.0000 0.31790  0.15650  0.17340  Biso   1.000  H
  H36      1.0000 0.81790  0.65650  0.17340  Biso   1.000  H
  H37      1.0000 0.31790  0.84350  0.67340  Biso   1.000  H
  H38      1.0000 0.81790  0.34350  0.67340  Biso   1.000  H
  H39      1.0000 0.68210  0.84350  0.82660  Biso   1.000  H
  H40      1.0000 0.18210  0.34350  0.82660  Biso   1.000  H
  H41      1.0000 0.78280  0.12600  0.46580  Biso   1.000  H
  H42      1.0000 0.28280  0.62600  0.46580  Biso   1.000  H
  H43      1.0000 0.21720  0.12600  0.03420  Biso   1.000  H
  H44      1.0000 0.71720  0.62600  0.03420  Biso   1.000  H
  H45      1.0000 0.21720  0.87400  0.53420  Biso   1.000  H
  H46      1.0000 0.71720  0.37400  0.53420  Biso   1.000  H
  H47      1.0000 0.78280  0.87400  0.96580  Biso   1.000  H
  H48      1.0000 0.28280  0.37400  0.96580  Biso   1.000  H
  H49      1.0000 0.79100  0.27830  0.42500  Biso   1.000  H
  H50      1.0000 0.29100  0.77830  0.42500  Biso   1.000  H
  H51      1.0000 0.20900  0.27830  0.07500  Biso   1.000  H
  H52      1.0000 0.70900  0.77830  0.07500  Biso   1.000  H
  H53      1.0000 0.20900  0.72170  0.57500  Biso   1.000  H
  H54      1.0000 0.70900  0.22170  0.57500  Biso   1.000  H
  H55      1.0000 0.79100  0.72170  0.92500  Biso   1.000  H
  H56      1.0000 0.29100  0.22170  0.92500  Biso   1.000  H
  H57      1.0000 0.51690  0.65850  0.62710  Biso   1.000  H
  H58      1.0000 0.01690  0.15850  0.62710  Biso   1.000  H
  H59      1.0000 0.48310  0.65850  0.87290  Biso   1.000  H
  H60      1.0000 0.98310  0.15850  0.87290  Biso   1.000  H
  H61      1.0000 0.48310  0.34150  0.37290  Biso   1.000  H
  H62      1.0000 0.98310  0.84150  0.37290  Biso   1.000  H
  H63      1.0000 0.51690  0.34150  0.12710  Biso   1.000  H
  H64      1.0000 0.01690  0.84150  0.12710  Biso   1.000  H
  H65      1.0000 0.47430  0.52300  0.63480  Biso   1.000  H
  H66      1.0000 0.97430  0.02300  0.63480  Biso   1.000  H
  H67      1.0000 0.52570  0.52300  0.86520  Biso   1.000  H
  H68      1.0000 0.02570  0.02300  0.86520  Biso   1.000  H
  H69      1.0000 0.52570  0.47700  0.36520  Biso   1.000  H
  H70      1.0000 0.02570  0.97700  0.36520  Biso   1.000  H
  H71      1.0000 0.47430  0.47700  0.13480  Biso   1.000  H
  H72      1.0000 0.97430  0.97700  0.13480  Biso   1.000  H
  H73      1.0000 0.78500  0.36800  0.93060  Biso   1.000  H
  H74      1.0000 0.28500  0.86800  0.93060  Biso   1.000  H
  H75      1.0000 0.21500  0.36800  0.56940  Biso   1.000  H
  H76      1.0000 0.71500  0.86800  0.56940  Biso   1.000  H
  H77      1.0000 0.21500  0.63200  0.06940  Biso   1.000  H
  H78      1.0000 0.71500  0.13200  0.06940  Biso   1.000  H
  H79      1.0000 0.78500  0.63200  0.43060  Biso   1.000  H
  H80      1.0000 0.28500  0.13200  0.43060  Biso   1.000  H
  H81      1.0000 0.78340  0.26000  0.85710  Biso   1.000  H
  H82      1.0000 0.28340  0.76000  0.85710  Biso   1.000  H
  H83      1.0000 0.21660  0.26000  0.64290  Biso   1.000  H
  H84      1.0000 0.71660  0.76000  0.64290  Biso   1.000  H
  H85      1.0000 0.21660  0.74000  0.14290  Biso   1.000  H
  H86      1.0000 0.71660  0.24000  0.14290  Biso   1.000  H
  H87      1.0000 0.78340  0.74000  0.35710  Biso   1.000  H
  H88      1.0000 0.28340  0.24000  0.35710  Biso   1.000  H
