data_image0
_cell_length_a       15.153
_cell_length_b       11.119
_cell_length_c       22.305
_cell_angle_alpha    90
_cell_angle_beta     99.339
_cell_angle_gamma    90

_symmetry_space_group_name_H-M    "P 1"
_symmetry_int_tables_number       1

loop_
  _symmetry_equiv_pos_as_xyz
  'x, y, z'

loop_
  _atom_site_label
  _atom_site_occupancy
  _atom_site_fract_x
  _atom_site_fract_y
  _atom_site_fract_z
  _atom_site_thermal_displace_type
  _atom_site_B_iso_or_equiv
  _atom_site_type_symbol
  Cu1      1.0000 0.50244  0.17896  0.41367  Biso   1.000  Cu
  Cu2      1.0000 0.00244  0.67896  0.41367  Biso   1.000  Cu
  Cu3      1.0000 0.49756  0.17896  0.08633  Biso   1.000  Cu
  Cu4      1.0000 0.99756  0.67896  0.08633  Biso   1.000  Cu
  Cu5      1.0000 0.49756  0.82104  0.58633  Biso   1.000  Cu
  Cu6      1.0000 0.99756  0.32104  0.58633  Biso   1.000  Cu
  Cu7      1.0000 0.50244  0.82104  0.91367  Biso   1.000  Cu
  Cu8      1.0000 0.00244  0.32104  0.91367  Biso   1.000  Cu
  O1       1.0000 0.60386  0.23356  0.37534  Biso   1.000  O
  O2       1.0000 0.10386  0.73356  0.37534  Biso   1.000  O
  O3       1.0000 0.39614  0.23356  0.12466  Biso   1.000  O
  O4       1.0000 0.89614  0.73356  0.12466  Biso   1.000  O
  O5       1.0000 0.39614  0.76644  0.62466  Biso   1.000  O
  O6       1.0000 0.89614  0.26644  0.62466  Biso   1.000  O
  O7       1.0000 0.60386  0.76644  0.87534  Biso   1.000  O
  O8       1.0000 0.10386  0.26644  0.87534  Biso   1.000  O
  O9       1.0000 0.51597  0.38116  0.33497  Biso   1.000  O
  O10      1.0000 0.01597  0.88116  0.33497  Biso   1.000  O
  O11      1.0000 0.48403  0.38116  0.16503  Biso   1.000  O
  O12      1.0000 0.98403  0.88116  0.16503  Biso   1.000  O
  O13      1.0000 0.48403  0.61884  0.66503  Biso   1.000  O
  O14      1.0000 0.98403  0.11884  0.66503  Biso   1.000  O
  O15      1.0000 0.51597  0.61884  0.83497  Biso   1.000  O
  O16      1.0000 0.01597  0.11884  0.83497  Biso   1.000  O
  O17      1.0000 0.89892  0.62348  0.45145  Biso   1.000  O
  O18      1.0000 0.39892  0.12348  0.45145  Biso   1.000  O
  O19      1.0000 0.10108  0.62348  0.04855  Biso   1.000  O
  O20      1.0000 0.60108  0.12348  0.04855  Biso   1.000  O
  O21      1.0000 0.10108  0.37652  0.54855  Biso   1.000  O
  O22      1.0000 0.60108  0.87652  0.54855  Biso   1.000  O
  O23      1.0000 0.89892  0.37652  0.95145  Biso   1.000  O
  O24      1.0000 0.39892  0.87652  0.95145  Biso   1.000  O
  O25      1.0000 0.82556  0.77569  0.40288  Biso   1.000  O
  O26      1.0000 0.32556  0.27569  0.40288  Biso   1.000  O
  O27      1.0000 0.17444  0.77569  0.09712  Biso   1.000  O
  O28      1.0000 0.67444  0.27569  0.09712  Biso   1.000  O
  O29      1.0000 0.17444  0.22431  0.59712  Biso   1.000  O
  O30      1.0000 0.67444  0.72431  0.59712  Biso   1.000  O
  O31      1.0000 0.82556  0.22431  0.90288  Biso   1.000  O
  O32      1.0000 0.32556  0.72431  0.90288  Biso   1.000  O
  O33      1.0000 0.32154  0.90143  0.13766  Biso   1.000  O
  O34      1.0000 0.82154  0.40143  0.13766  Biso   1.000  O
  O35      1.0000 0.67846  0.90143  0.36234  Biso   1.000  O
  O36      1.0000 0.17846  0.40143  0.36234  Biso   1.000  O
  O37      1.0000 0.67846  0.09857  0.86234  Biso   1.000  O
  O38      1.0000 0.17846  0.59857  0.86234  Biso   1.000  O
  O39      1.0000 0.32154  0.09857  0.63766  Biso   1.000  O
  O40      1.0000 0.82154  0.59857  0.63766  Biso   1.000  O
  O41      1.0000 0.57670  0.41894  0.70298  Biso   1.000  O
  O42      1.0000 0.07670  0.91894  0.70298  Biso   1.000  O
  O43      1.0000 0.42330  0.41894  0.79702  Biso   1.000  O
  O44      1.0000 0.92330  0.91894  0.79702  Biso   1.000  O
  O45      1.0000 0.42330  0.58106  0.29702  Biso   1.000  O
  O46      1.0000 0.92330  0.08106  0.29702  Biso   1.000  O
  O47      1.0000 0.57670  0.58106  0.20298  Biso   1.000  O
  O48      1.0000 0.07670  0.08106  0.20298  Biso   1.000  O
  O49      1.0000 0.59966  0.02764  0.45059  Biso   1.000  O
  O50      1.0000 0.09966  0.52764  0.45059  Biso   1.000  O
  O51      1.0000 0.40034  0.02764  0.04941  Biso   1.000  O
  O52      1.0000 0.90034  0.52764  0.04941  Biso   1.000  O
  O53      1.0000 0.40034  0.97236  0.54941  Biso   1.000  O
  O54      1.0000 0.90034  0.47236  0.54941  Biso   1.000  O
  O55      1.0000 0.59966  0.97236  0.95059  Biso   1.000  O
  O56      1.0000 0.09966  0.47236  0.95059  Biso   1.000  O
  N1       1.0000 0.44842  0.07824  0.34165  Biso   1.000  N
  N2       1.0000 0.94842  0.57824  0.34165  Biso   1.000  N
  N3       1.0000 0.55158  0.07824  0.15835  Biso   1.000  N
  N4       1.0000 0.05158  0.57824  0.15835  Biso   1.000  N
  N5       1.0000 0.55158  0.92176  0.65835  Biso   1.000  N
  N6       1.0000 0.05158  0.42176  0.65835  Biso   1.000  N
  N7       1.0000 0.44842  0.92176  0.84165  Biso   1.000  N
  N8       1.0000 0.94842  0.42176  0.84165  Biso   1.000  N
  N9       1.0000 0.54655  0.27913  0.48795  Biso   1.000  N
  N10      1.0000 0.04655  0.77913  0.48795  Biso   1.000  N
  N11      1.0000 0.45345  0.27913  0.01205  Biso   1.000  N
  N12      1.0000 0.95345  0.77913  0.01205  Biso   1.000  N
  N13      1.0000 0.45345  0.72087  0.51205  Biso   1.000  N
  N14      1.0000 0.95345  0.22087  0.51205  Biso   1.000  N
  N15      1.0000 0.54655  0.72087  0.98795  Biso   1.000  N
  N16      1.0000 0.04655  0.22087  0.98795  Biso   1.000  N
  C1       1.0000 0.41687  0.12310  0.28677  Biso   1.000  C
  C2       1.0000 0.91687  0.62310  0.28677  Biso   1.000  C
  C3       1.0000 0.58313  0.12310  0.21323  Biso   1.000  C
  C4       1.0000 0.08313  0.62310  0.21323  Biso   1.000  C
  C5       1.0000 0.58313  0.87690  0.71323  Biso   1.000  C
  C6       1.0000 0.08313  0.37690  0.71323  Biso   1.000  C
  C7       1.0000 0.41687  0.87690  0.78677  Biso   1.000  C
  C8       1.0000 0.91687  0.37690  0.78677  Biso   1.000  C
  C9       1.0000 0.38176  0.05150  0.23770  Biso   1.000  C
  C10      1.0000 0.88176  0.55150  0.23770  Biso   1.000  C
  C11      1.0000 0.61824  0.05150  0.26230  Biso   1.000  C
  C12      1.0000 0.11824  0.55150  0.26230  Biso   1.000  C
  C13      1.0000 0.61824  0.94850  0.76230  Biso   1.000  C
  C14      1.0000 0.11824  0.44850  0.76230  Biso   1.000  C
  C15      1.0000 0.38176  0.94850  0.73770  Biso   1.000  C
  C16      1.0000 0.88176  0.44850  0.73770  Biso   1.000  C
  C17      1.0000 0.38083  0.92810  0.24469  Biso   1.000  C
  C18      1.0000 0.88083  0.42810  0.24469  Biso   1.000  C
  C19      1.0000 0.61917  0.92810  0.25531  Biso   1.000  C
  C20      1.0000 0.11917  0.42810  0.25531  Biso   1.000  C
  C21      1.0000 0.61917  0.07190  0.75531  Biso   1.000  C
  C22      1.0000 0.11917  0.57190  0.75531  Biso   1.000  C
  C23      1.0000 0.38083  0.07190  0.74469  Biso   1.000  C
  C24      1.0000 0.88083  0.57190  0.74469  Biso   1.000  C
  C25      1.0000 0.41257  0.88120  0.30207  Biso   1.000  C
  C26      1.0000 0.91257  0.38120  0.30207  Biso   1.000  C
  C27      1.0000 0.58743  0.88120  0.19793  Biso   1.000  C
  C28      1.0000 0.08743  0.38120  0.19793  Biso   1.000  C
  C29      1.0000 0.58743  0.11880  0.69793  Biso   1.000  C
  C30      1.0000 0.08743  0.61880  0.69793  Biso   1.000  C
  C31      1.0000 0.41257  0.11880  0.80207  Biso   1.000  C
  C32      1.0000 0.91257  0.61880  0.80207  Biso   1.000  C
  C33      1.0000 0.44413  0.95840  0.34877  Biso   1.000  C
  C34      1.0000 0.94413  0.45840  0.34877  Biso   1.000  C
  C35      1.0000 0.55587  0.95840  0.15123  Biso   1.000  C
  C36      1.0000 0.05587  0.45840  0.15123  Biso   1.000  C
  C37      1.0000 0.55587  0.04160  0.65123  Biso   1.000  C
  C38      1.0000 0.05587  0.54160  0.65123  Biso   1.000  C
  C39      1.0000 0.44413  0.04160  0.84877  Biso   1.000  C
  C40      1.0000 0.94413  0.54160  0.84877  Biso   1.000  C
  C41      1.0000 0.34890  0.84160  0.19379  Biso   1.000  C
  C42      1.0000 0.84890  0.34160  0.19379  Biso   1.000  C
  C43      1.0000 0.65110  0.84160  0.30621  Biso   1.000  C
  C44      1.0000 0.15110  0.34160  0.30621  Biso   1.000  C
  C45      1.0000 0.65110  0.15840  0.80621  Biso   1.000  C
  C46      1.0000 0.15110  0.65840  0.80621  Biso   1.000  C
  C47      1.0000 0.34890  0.15840  0.69379  Biso   1.000  C
  C48      1.0000 0.84890  0.65840  0.69379  Biso   1.000  C
  C49      1.0000 0.49106  0.34000  0.51760  Biso   1.000  C
  C50      1.0000 0.99106  0.84000  0.51760  Biso   1.000  C
  C51      1.0000 0.50894  0.34000  0.98240  Biso   1.000  C
  C52      1.0000 0.00894  0.84000  0.98240  Biso   1.000  C
  C53      1.0000 0.50894  0.66000  0.48240  Biso   1.000  C
  C54      1.0000 0.00894  0.16000  0.48240  Biso   1.000  C
  C55      1.0000 0.49106  0.66000  0.01760  Biso   1.000  C
  C56      1.0000 0.99106  0.16000  0.01760  Biso   1.000  C
  C57      1.0000 0.51822  0.39350  0.57308  Biso   1.000  C
  C58      1.0000 0.01822  0.89350  0.57308  Biso   1.000  C
  C59      1.0000 0.48178  0.39350  0.92692  Biso   1.000  C
  C60      1.0000 0.98178  0.89350  0.92692  Biso   1.000  C
  C61      1.0000 0.48178  0.60650  0.42692  Biso   1.000  C
  C62      1.0000 0.98178  0.10650  0.42692  Biso   1.000  C
  C63      1.0000 0.51822  0.60650  0.07308  Biso   1.000  C
  C64      1.0000 0.01822  0.10650  0.07308  Biso   1.000  C
  C65      1.0000 0.60743  0.38660  0.60041  Biso   1.000  C
  C66      1.0000 0.10743  0.88660  0.60041  Biso   1.000  C
  C67      1.0000 0.39257  0.38660  0.89959  Biso   1.000  C
  C68      1.0000 0.89257  0.88660  0.89959  Biso   1.000  C
  C69      1.0000 0.39257  0.61340  0.39959  Biso   1.000  C
  C70      1.0000 0.89257  0.11340  0.39959  Biso   1.000  C
  C71      1.0000 0.60743  0.61340  0.10041  Biso   1.000  C
  C72      1.0000 0.10743  0.11340  0.10041  Biso   1.000  C
  C73      1.0000 0.66556  0.32780  0.56875  Biso   1.000  C
  C74      1.0000 0.16556  0.82780  0.56875  Biso   1.000  C
  C75      1.0000 0.33444  0.32780  0.93125  Biso   1.000  C
  C76      1.0000 0.83444  0.82780  0.93125  Biso   1.000  C
  C77      1.0000 0.33444  0.67220  0.43125  Biso   1.000  C
  C78      1.0000 0.83444  0.17220  0.43125  Biso   1.000  C
  C79      1.0000 0.66556  0.67220  0.06875  Biso   1.000  C
  C80      1.0000 0.16556  0.17220  0.06875  Biso   1.000  C
  C81      1.0000 0.63287  0.27490  0.51333  Biso   1.000  C
  C82      1.0000 0.13287  0.77490  0.51333  Biso   1.000  C
  C83      1.0000 0.36713  0.27490  0.98667  Biso   1.000  C
  C84      1.0000 0.86713  0.77490  0.98667  Biso   1.000  C
  C85      1.0000 0.36713  0.72510  0.48667  Biso   1.000  C
  C86      1.0000 0.86713  0.22510  0.48667  Biso   1.000  C
  C87      1.0000 0.63287  0.72510  0.01333  Biso   1.000  C
  C88      1.0000 0.13287  0.22510  0.01333  Biso   1.000  C
  C89      1.0000 0.63783  0.44070  0.66276  Biso   1.000  C
  C90      1.0000 0.13783  0.94070  0.66276  Biso   1.000  C
  C91      1.0000 0.36217  0.44070  0.83724  Biso   1.000  C
  C92      1.0000 0.86217  0.94070  0.83724  Biso   1.000  C
  C93      1.0000 0.36217  0.55930  0.33724  Biso   1.000  C
  C94      1.0000 0.86217  0.05930  0.33724  Biso   1.000  C
  C95      1.0000 0.63783  0.55930  0.16276  Biso   1.000  C
  C96      1.0000 0.13783  0.05930  0.16276  Biso   1.000  C
  C97      1.0000 0.58981  0.33030  0.34456  Biso   1.000  C
  C98      1.0000 0.08981  0.83030  0.34456  Biso   1.000  C
  C99      1.0000 0.41019  0.33030  0.15544  Biso   1.000  C
  C100     1.0000 0.91019  0.83030  0.15544  Biso   1.000  C
  C101     1.0000 0.41019  0.66970  0.65544  Biso   1.000  C
  C102     1.0000 0.91019  0.16970  0.65544  Biso   1.000  C
  C103     1.0000 0.58981  0.66970  0.84456  Biso   1.000  C
  C104     1.0000 0.08981  0.16970  0.84456  Biso   1.000  C
  C105     1.0000 0.66892  0.38510  0.32020  Biso   1.000  C
  C106     1.0000 0.16892  0.88510  0.32020  Biso   1.000  C
  C107     1.0000 0.33108  0.38510  0.17980  Biso   1.000  C
  C108     1.0000 0.83108  0.88510  0.17980  Biso   1.000  C
  C109     1.0000 0.33108  0.61490  0.67980  Biso   1.000  C
  C110     1.0000 0.83108  0.11490  0.67980  Biso   1.000  C
  C111     1.0000 0.66892  0.61490  0.82020  Biso   1.000  C
  C112     1.0000 0.16892  0.11490  0.82020  Biso   1.000  C
  C113     1.0000 0.69391  0.50860  0.34846  Biso   1.000  C
  C114     1.0000 0.19391  0.00860  0.34846  Biso   1.000  C
  C115     1.0000 0.30609  0.50860  0.15154  Biso   1.000  C
  C116     1.0000 0.80609  0.00860  0.15154  Biso   1.000  C
  C117     1.0000 0.30609  0.49140  0.65154  Biso   1.000  C
  C118     1.0000 0.80609  0.99140  0.65154  Biso   1.000  C
  C119     1.0000 0.69391  0.49140  0.84846  Biso   1.000  C
  C120     1.0000 0.19391  0.99140  0.84846  Biso   1.000  C
  C121     1.0000 0.72000  0.50280  0.41766  Biso   1.000  C
  C122     1.0000 0.22000  0.00280  0.41766  Biso   1.000  C
  C123     1.0000 0.28000  0.50280  0.08234  Biso   1.000  C
  C124     1.0000 0.78000  0.00280  0.08234  Biso   1.000  C
  C125     1.0000 0.28000  0.49720  0.58234  Biso   1.000  C
  C126     1.0000 0.78000  0.99720  0.58234  Biso   1.000  C
  C127     1.0000 0.72000  0.49720  0.91766  Biso   1.000  C
  C128     1.0000 0.22000  0.99720  0.91766  Biso   1.000  C
  C129     1.0000 0.74099  0.62630  0.44720  Biso   1.000  C
  C130     1.0000 0.24099  0.12630  0.44720  Biso   1.000  C
  C131     1.0000 0.25901  0.62630  0.05280  Biso   1.000  C
  C132     1.0000 0.75901  0.12630  0.05280  Biso   1.000  C
  C133     1.0000 0.25901  0.37370  0.55280  Biso   1.000  C
  C134     1.0000 0.75901  0.87370  0.55280  Biso   1.000  C
  C135     1.0000 0.74099  0.37370  0.94720  Biso   1.000  C
  C136     1.0000 0.24099  0.87370  0.94720  Biso   1.000  C
  C137     1.0000 0.82629  0.68070  0.43200  Biso   1.000  C
  C138     1.0000 0.32629  0.18070  0.43200  Biso   1.000  C
  C139     1.0000 0.17371  0.68070  0.06800  Biso   1.000  C
  C140     1.0000 0.67371  0.18070  0.06800  Biso   1.000  C
  C141     1.0000 0.17371  0.31930  0.56800  Biso   1.000  C
  C142     1.0000 0.67371  0.81930  0.56800  Biso   1.000  C
  C143     1.0000 0.82629  0.31930  0.93200  Biso   1.000  C
  C144     1.0000 0.32629  0.81930  0.93200  Biso   1.000  C
  H1       1.0000 0.41860  0.20770  0.28110  Biso   1.000  H
  H2       1.0000 0.91860  0.70770  0.28110  Biso   1.000  H
  H3       1.0000 0.58140  0.20770  0.21890  Biso   1.000  H
  H4       1.0000 0.08140  0.70770  0.21890  Biso   1.000  H
  H5       1.0000 0.58140  0.79230  0.71890  Biso   1.000  H
  H6       1.0000 0.08140  0.29230  0.71890  Biso   1.000  H
  H7       1.0000 0.41860  0.79230  0.78110  Biso   1.000  H
  H8       1.0000 0.91860  0.29230  0.78110  Biso   1.000  H
  H9       1.0000 0.35860  0.08700  0.19960  Biso   1.000  H
  H10      1.0000 0.85860  0.58700  0.19960  Biso   1.000  H
  H11      1.0000 0.64140  0.08700  0.30040  Biso   1.000  H
  H12      1.0000 0.14140  0.58700  0.30040  Biso   1.000  H
  H13      1.0000 0.64140  0.91300  0.80040  Biso   1.000  H
  H14      1.0000 0.14140  0.41300  0.80040  Biso   1.000  H
  H15      1.0000 0.35860  0.91300  0.69960  Biso   1.000  H
  H16      1.0000 0.85860  0.41300  0.69960  Biso   1.000  H
  H17      1.0000 0.41230  0.79690  0.30880  Biso   1.000  H
  H18      1.0000 0.91230  0.29690  0.30880  Biso   1.000  H
  H19      1.0000 0.58770  0.79690  0.19120  Biso   1.000  H
  H20      1.0000 0.08770  0.29690  0.19120  Biso   1.000  H
  H21      1.0000 0.58770  0.20310  0.69120  Biso   1.000  H
  H22      1.0000 0.08770  0.70310  0.69120  Biso   1.000  H
  H23      1.0000 0.41230  0.20310  0.80880  Biso   1.000  H
  H24      1.0000 0.91230  0.70310  0.80880  Biso   1.000  H
  H25      1.0000 0.46400  0.92550  0.38790  Biso   1.000  H
  H26      1.0000 0.96400  0.42550  0.38790  Biso   1.000  H
  H27      1.0000 0.53600  0.92550  0.11210  Biso   1.000  H
  H28      1.0000 0.03600  0.42550  0.11210  Biso   1.000  H
  H29      1.0000 0.53600  0.07450  0.61210  Biso   1.000  H
  H30      1.0000 0.03600  0.57450  0.61210  Biso   1.000  H
  H31      1.0000 0.46400  0.07450  0.88790  Biso   1.000  H
  H32      1.0000 0.96400  0.57450  0.88790  Biso   1.000  H
  H33      1.0000 0.39770  0.78480  0.18940  Biso   1.000  H
  H34      1.0000 0.89770  0.28480  0.18940  Biso   1.000  H
  H35      1.0000 0.60230  0.78480  0.31060  Biso   1.000  H
  H36      1.0000 0.10230  0.28480  0.31060  Biso   1.000  H
  H37      1.0000 0.60230  0.21520  0.81060  Biso   1.000  H
  H38      1.0000 0.10230  0.71520  0.81060  Biso   1.000  H
  H39      1.0000 0.39770  0.21520  0.68940  Biso   1.000  H
  H40      1.0000 0.89770  0.71520  0.68940  Biso   1.000  H
  H41      1.0000 0.29810  0.79430  0.20420  Biso   1.000  H
  H42      1.0000 0.79810  0.29430  0.20420  Biso   1.000  H
  H43      1.0000 0.70190  0.79430  0.29580  Biso   1.000  H
  H44      1.0000 0.20190  0.29430  0.29580  Biso   1.000  H
  H45      1.0000 0.70190  0.20570  0.79580  Biso   1.000  H
  H46      1.0000 0.20190  0.70570  0.79580  Biso   1.000  H
  H47      1.0000 0.29810  0.20570  0.70420  Biso   1.000  H
  H48      1.0000 0.79810  0.70570  0.70420  Biso   1.000  H
  H49      1.0000 0.43000  0.34680  0.49960  Biso   1.000  H
  H50      1.0000 0.93000  0.84680  0.49960  Biso   1.000  H
  H51      1.0000 0.57000  0.34680  0.00040  Biso   1.000  H
  H52      1.0000 0.07000  0.84680  0.00040  Biso   1.000  H
  H53      1.0000 0.57000  0.65320  0.50040  Biso   1.000  H
  H54      1.0000 0.07000  0.15320  0.50040  Biso   1.000  H
  H55      1.0000 0.43000  0.65320  0.99960  Biso   1.000  H
  H56      1.0000 0.93000  0.15320  0.99960  Biso   1.000  H
  H57      1.0000 0.47620  0.43500  0.59270  Biso   1.000  H
  H58      1.0000 0.97620  0.93500  0.59270  Biso   1.000  H
  H59      1.0000 0.52380  0.43500  0.90730  Biso   1.000  H
  H60      1.0000 0.02380  0.93500  0.90730  Biso   1.000  H
  H61      1.0000 0.52380  0.56500  0.40730  Biso   1.000  H
  H62      1.0000 0.02380  0.06500  0.40730  Biso   1.000  H
  H63      1.0000 0.47620  0.56500  0.09270  Biso   1.000  H
  H64      1.0000 0.97620  0.06500  0.09270  Biso   1.000  H
  H65      1.0000 0.72750  0.32370  0.58470  Biso   1.000  H
  H66      1.0000 0.22750  0.82370  0.58470  Biso   1.000  H
  H67      1.0000 0.27250  0.32370  0.91530  Biso   1.000  H
  H68      1.0000 0.77250  0.82370  0.91530  Biso   1.000  H
  H69      1.0000 0.27250  0.67630  0.41530  Biso   1.000  H
  H70      1.0000 0.77250  0.17630  0.41530  Biso   1.000  H
  H71      1.0000 0.72750  0.67630  0.08470  Biso   1.000  H
  H72      1.0000 0.22750  0.17630  0.08470  Biso   1.000  H
  H73      1.0000 0.67360  0.23360  0.49240  Biso   1.000  H
  H74      1.0000 0.17360  0.73360  0.49240  Biso   1.000  H
  H75      1.0000 0.32640  0.23360  0.00760  Biso   1.000  H
  H76      1.0000 0.82640  0.73360  0.00760  Biso   1.000  H
  H77      1.0000 0.32640  0.76640  0.50760  Biso   1.000  H
  H78      1.0000 0.82640  0.26640  0.50760  Biso   1.000  H
  H79      1.0000 0.67360  0.76640  0.99240  Biso   1.000  H
  H80      1.0000 0.17360  0.26640  0.99240  Biso   1.000  H
  H81      1.0000 0.69670  0.40650  0.68020  Biso   1.000  H
  H82      1.0000 0.19670  0.90650  0.68020  Biso   1.000  H
  H83      1.0000 0.30330  0.40650  0.81980  Biso   1.000  H
  H84      1.0000 0.80330  0.90650  0.81980  Biso   1.000  H
  H85      1.0000 0.30330  0.59350  0.31980  Biso   1.000  H
  H86      1.0000 0.80330  0.09350  0.31980  Biso   1.000  H
  H87      1.0000 0.69670  0.59350  0.18020  Biso   1.000  H
  H88      1.0000 0.19670  0.09350  0.18020  Biso   1.000  H
  H89      1.0000 0.64530  0.52860  0.65850  Biso   1.000  H
  H90      1.0000 0.14530  0.02860  0.65850  Biso   1.000  H
  H91      1.0000 0.35470  0.52860  0.84150  Biso   1.000  H
  H92      1.0000 0.85470  0.02860  0.84150  Biso   1.000  H
  H93      1.0000 0.35470  0.47140  0.34150  Biso   1.000  H
  H94      1.0000 0.85470  0.97140  0.34150  Biso   1.000  H
  H95      1.0000 0.64530  0.47140  0.15850  Biso   1.000  H
  H96      1.0000 0.14530  0.97140  0.15850  Biso   1.000  H
  H97      1.0000 0.65390  0.39350  0.27550  Biso   1.000  H
  H98      1.0000 0.15390  0.89350  0.27550  Biso   1.000  H
  H99      1.0000 0.34610  0.39350  0.22450  Biso   1.000  H
  H100     1.0000 0.84610  0.89350  0.22450  Biso   1.000  H
  H101     1.0000 0.34610  0.60650  0.72450  Biso   1.000  H
  H102     1.0000 0.84610  0.10650  0.72450  Biso   1.000  H
  H103     1.0000 0.65390  0.60650  0.77550  Biso   1.000  H
  H104     1.0000 0.15390  0.10650  0.77550  Biso   1.000  H
  H105     1.0000 0.72100  0.33050  0.32920  Biso   1.000  H
  H106     1.0000 0.22100  0.83050  0.32920  Biso   1.000  H
  H107     1.0000 0.27900  0.33050  0.17080  Biso   1.000  H
  H108     1.0000 0.77900  0.83050  0.17080  Biso   1.000  H
  H109     1.0000 0.27900  0.66950  0.67080  Biso   1.000  H
  H110     1.0000 0.77900  0.16950  0.67080  Biso   1.000  H
  H111     1.0000 0.72100  0.66950  0.82920  Biso   1.000  H
  H112     1.0000 0.22100  0.16950  0.82920  Biso   1.000  H
  H113     1.0000 0.74450  0.54190  0.33080  Biso   1.000  H
  H114     1.0000 0.24450  0.04190  0.33080  Biso   1.000  H
  H115     1.0000 0.25550  0.54190  0.16920  Biso   1.000  H
  H116     1.0000 0.75550  0.04190  0.16920  Biso   1.000  H
  H117     1.0000 0.25550  0.45810  0.66920  Biso   1.000  H
  H118     1.0000 0.75550  0.95810  0.66920  Biso   1.000  H
  H119     1.0000 0.74450  0.45810  0.83080  Biso   1.000  H
  H120     1.0000 0.24450  0.95810  0.83080  Biso   1.000  H
  H121     1.0000 0.64240  0.56380  0.33810  Biso   1.000  H
  H122     1.0000 0.14240  0.06380  0.33810  Biso   1.000  H
  H123     1.0000 0.35760  0.56380  0.16190  Biso   1.000  H
  H124     1.0000 0.85760  0.06380  0.16190  Biso   1.000  H
  H125     1.0000 0.35760  0.43620  0.66190  Biso   1.000  H
  H126     1.0000 0.85760  0.93620  0.66190  Biso   1.000  H
  H127     1.0000 0.64240  0.43620  0.83810  Biso   1.000  H
  H128     1.0000 0.14240  0.93620  0.83810  Biso   1.000  H
  H129     1.0000 0.77320  0.45040  0.42780  Biso   1.000  H
  H130     1.0000 0.27320  0.95040  0.42780  Biso   1.000  H
  H131     1.0000 0.22680  0.45040  0.07220  Biso   1.000  H
  H132     1.0000 0.72680  0.95040  0.07220  Biso   1.000  H
  H133     1.0000 0.22680  0.54960  0.57220  Biso   1.000  H
  H134     1.0000 0.72680  0.04960  0.57220  Biso   1.000  H
  H135     1.0000 0.77320  0.54960  0.92780  Biso   1.000  H
  H136     1.0000 0.27320  0.04960  0.92780  Biso   1.000  H
  H137     1.0000 0.67050  0.46550  0.43500  Biso   1.000  H
  H138     1.0000 0.17050  0.96550  0.43500  Biso   1.000  H
  H139     1.0000 0.32950  0.46550  0.06500  Biso   1.000  H
  H140     1.0000 0.82950  0.96550  0.06500  Biso   1.000  H
  H141     1.0000 0.32950  0.53450  0.56500  Biso   1.000  H
  H142     1.0000 0.82950  0.03450  0.56500  Biso   1.000  H
  H143     1.0000 0.67050  0.53450  0.93500  Biso   1.000  H
  H144     1.0000 0.17050  0.03450  0.93500  Biso   1.000  H
  H145     1.0000 0.69060  0.68160  0.43350  Biso   1.000  H
  H146     1.0000 0.19060  0.18160  0.43350  Biso   1.000  H
  H147     1.0000 0.30940  0.68160  0.06650  Biso   1.000  H
  H148     1.0000 0.80940  0.18160  0.06650  Biso   1.000  H
  H149     1.0000 0.30940  0.31840  0.56650  Biso   1.000  H
  H150     1.0000 0.80940  0.81840  0.56650  Biso   1.000  H
  H151     1.0000 0.69060  0.31840  0.93350  Biso   1.000  H
  H152     1.0000 0.19060  0.81840  0.93350  Biso   1.000  H
  H153     1.0000 0.74650  0.61790  0.49190  Biso   1.000  H
  H154     1.0000 0.24650  0.11790  0.49190  Biso   1.000  H
  H155     1.0000 0.25350  0.61790  0.00810  Biso   1.000  H
  H156     1.0000 0.75350  0.11790  0.00810  Biso   1.000  H
  H157     1.0000 0.25350  0.38210  0.50810  Biso   1.000  H
  H158     1.0000 0.75350  0.88210  0.50810  Biso   1.000  H
  H159     1.0000 0.74650  0.38210  0.99190  Biso   1.000  H
  H160     1.0000 0.24650  0.88210  0.99190  Biso   1.000  H
  H161     1.0000 0.27610  0.86700  0.12180  Biso   1.000  H
  H162     1.0000 0.77610  0.36700  0.12180  Biso   1.000  H
  H163     1.0000 0.72390  0.86700  0.37820  Biso   1.000  H
  H164     1.0000 0.22390  0.36700  0.37820  Biso   1.000  H
  H165     1.0000 0.72390  0.13300  0.87820  Biso   1.000  H
  H166     1.0000 0.22390  0.63300  0.87820  Biso   1.000  H
  H167     1.0000 0.27610  0.13300  0.62180  Biso   1.000  H
  H168     1.0000 0.77610  0.63300  0.62180  Biso   1.000  H
  H169     1.0000 0.53810  0.46900  0.69650  Biso   1.000  H
  H170     1.0000 0.03810  0.96900  0.69650  Biso   1.000  H
  H171     1.0000 0.46190  0.46900  0.80350  Biso   1.000  H
  H172     1.0000 0.96190  0.96900  0.80350  Biso   1.000  H
  H173     1.0000 0.46190  0.53100  0.30350  Biso   1.000  H
  H174     1.0000 0.96190  0.03100  0.30350  Biso   1.000  H
  H175     1.0000 0.53810  0.53100  0.19650  Biso   1.000  H
  H176     1.0000 0.03810  0.03100  0.19650  Biso   1.000  H
  H177     1.0000 0.62000  0.98800  0.42560  Biso   1.000  H
  H178     1.0000 0.12000  0.48800  0.42560  Biso   1.000  H
  H179     1.0000 0.38000  0.98800  0.07440  Biso   1.000  H
  H180     1.0000 0.88000  0.48800  0.07440  Biso   1.000  H
  H181     1.0000 0.38000  0.01200  0.57440  Biso   1.000  H
  H182     1.0000 0.88000  0.51200  0.57440  Biso   1.000  H
  H183     1.0000 0.62000  0.01200  0.92560  Biso   1.000  H
  H184     1.0000 0.12000  0.51200  0.92560  Biso   1.000  H
  H185     1.0000 0.59900  0.98200  0.47890  Biso   1.000  H
  H186     1.0000 0.09900  0.48200  0.47890  Biso   1.000  H
  H187     1.0000 0.40100  0.98200  0.02110  Biso   1.000  H
  H188     1.0000 0.90100  0.48200  0.02110  Biso   1.000  H
  H189     1.0000 0.40100  0.01800  0.52110  Biso   1.000  H
  H190     1.0000 0.90100  0.51800  0.52110  Biso   1.000  H
  H191     1.0000 0.59900  0.01800  0.97890  Biso   1.000  H
  H192     1.0000 0.09900  0.51800  0.97890  Biso   1.000  H
