data_image0
_cell_length_a       16.4692
_cell_length_b       9.4514
_cell_length_c       14.6868
_cell_angle_alpha    90
_cell_angle_beta     102.354
_cell_angle_gamma    90

_symmetry_space_group_name_H-M    "P 1"
_symmetry_int_tables_number       1

loop_
  _symmetry_equiv_pos_as_xyz
  'x, y, z'

loop_
  _atom_site_label
  _atom_site_occupancy
  _atom_site_fract_x
  _atom_site_fract_y
  _atom_site_fract_z
  _atom_site_thermal_displace_type
  _atom_site_B_iso_or_equiv
  _atom_site_type_symbol
  Cu1      1.0000 0.50000  0.00000  0.50000  Biso   1.000  Cu
  Cu2      1.0000 0.00000  0.50000  0.50000  Biso   1.000  Cu
  Cu3      1.0000 0.50000  0.00000  0.00000  Biso   1.000  Cu
  Cu4      1.0000 0.00000  0.50000  0.00000  Biso   1.000  Cu
  O1       1.0000 0.53785  0.13970  0.41828  Biso   1.000  O
  O2       1.0000 0.03785  0.63970  0.41828  Biso   1.000  O
  O3       1.0000 0.46215  0.13970  0.08172  Biso   1.000  O
  O4       1.0000 0.96215  0.63970  0.08172  Biso   1.000  O
  O5       1.0000 0.46215  0.86030  0.58172  Biso   1.000  O
  O6       1.0000 0.96215  0.36030  0.58172  Biso   1.000  O
  O7       1.0000 0.53785  0.86030  0.91828  Biso   1.000  O
  O8       1.0000 0.03785  0.36030  0.91828  Biso   1.000  O
  O9       1.0000 0.63957  0.98944  0.46729  Biso   1.000  O
  O10      1.0000 0.13957  0.48944  0.46729  Biso   1.000  O
  O11      1.0000 0.36043  0.98944  0.03271  Biso   1.000  O
  O12      1.0000 0.86043  0.48944  0.03271  Biso   1.000  O
  O13      1.0000 0.36043  0.01056  0.53271  Biso   1.000  O
  O14      1.0000 0.86043  0.51056  0.53271  Biso   1.000  O
  O15      1.0000 0.63957  0.01056  0.96729  Biso   1.000  O
  O16      1.0000 0.13957  0.51056  0.96729  Biso   1.000  O
  O17      1.0000 0.65958  0.57111  0.68386  Biso   1.000  O
  O18      1.0000 0.15958  0.07111  0.68386  Biso   1.000  O
  O19      1.0000 0.34042  0.57111  0.81614  Biso   1.000  O
  O20      1.0000 0.84042  0.07111  0.81614  Biso   1.000  O
  O21      1.0000 0.34042  0.42889  0.31614  Biso   1.000  O
  O22      1.0000 0.84042  0.92889  0.31614  Biso   1.000  O
  O23      1.0000 0.65958  0.42889  0.18386  Biso   1.000  O
  O24      1.0000 0.15958  0.92889  0.18386  Biso   1.000  O
  O25      1.0000 0.64150  0.45073  0.87803  Biso   1.000  O
  O26      1.0000 0.14150  0.95073  0.87803  Biso   1.000  O
  O27      1.0000 0.35850  0.45073  0.62197  Biso   1.000  O
  O28      1.0000 0.85850  0.95073  0.62197  Biso   1.000  O
  O29      1.0000 0.35850  0.54927  0.12197  Biso   1.000  O
  O30      1.0000 0.85850  0.04927  0.12197  Biso   1.000  O
  O31      1.0000 0.64150  0.54927  0.37803  Biso   1.000  O
  O32      1.0000 0.14150  0.04927  0.37803  Biso   1.000  O
  N1       1.0000 0.54888  0.12412  0.61092  Biso   1.000  N
  N2       1.0000 0.04888  0.62412  0.61092  Biso   1.000  N
  N3       1.0000 0.45112  0.12412  0.88908  Biso   1.000  N
  N4       1.0000 0.95112  0.62412  0.88908  Biso   1.000  N
  N5       1.0000 0.45112  0.87588  0.38908  Biso   1.000  N
  N6       1.0000 0.95112  0.37588  0.38908  Biso   1.000  N
  N7       1.0000 0.54888  0.87588  0.11092  Biso   1.000  N
  N8       1.0000 0.04888  0.37588  0.11092  Biso   1.000  N
  N9       1.0000 0.51961  0.56957  0.63735  Biso   1.000  N
  N10      1.0000 0.01961  0.06957  0.63735  Biso   1.000  N
  N11      1.0000 0.48039  0.56957  0.86265  Biso   1.000  N
  N12      1.0000 0.98039  0.06957  0.86265  Biso   1.000  N
  N13      1.0000 0.48039  0.43043  0.36265  Biso   1.000  N
  N14      1.0000 0.98039  0.93043  0.36265  Biso   1.000  N
  N15      1.0000 0.51961  0.43043  0.13735  Biso   1.000  N
  N16      1.0000 0.01961  0.93043  0.13735  Biso   1.000  N
  N17      1.0000 0.75893  0.32770  0.88027  Biso   1.000  N
  N18      1.0000 0.25893  0.82770  0.88027  Biso   1.000  N
  N19      1.0000 0.24107  0.32770  0.61973  Biso   1.000  N
  N20      1.0000 0.74107  0.82770  0.61973  Biso   1.000  N
  N21      1.0000 0.24107  0.67230  0.11973  Biso   1.000  N
  N22      1.0000 0.74107  0.17230  0.11973  Biso   1.000  N
  N23      1.0000 0.75893  0.67230  0.38027  Biso   1.000  N
  N24      1.0000 0.25893  0.17230  0.38027  Biso   1.000  N
  C1       1.0000 0.54716  0.26642  0.60909  Biso   1.000  C
  C2       1.0000 0.04716  0.76642  0.60909  Biso   1.000  C
  C3       1.0000 0.45284  0.26642  0.89091  Biso   1.000  C
  C4       1.0000 0.95284  0.76642  0.89091  Biso   1.000  C
  C5       1.0000 0.45284  0.73358  0.39091  Biso   1.000  C
  C6       1.0000 0.95284  0.23358  0.39091  Biso   1.000  C
  C7       1.0000 0.54716  0.73358  0.10909  Biso   1.000  C
  C8       1.0000 0.04716  0.23358  0.10909  Biso   1.000  C
  C9       1.0000 0.59085  0.35014  0.68056  Biso   1.000  C
  C10      1.0000 0.09085  0.85014  0.68056  Biso   1.000  C
  C11      1.0000 0.40915  0.35014  0.81944  Biso   1.000  C
  C12      1.0000 0.90915  0.85014  0.81944  Biso   1.000  C
  C13      1.0000 0.40915  0.64986  0.31944  Biso   1.000  C
  C14      1.0000 0.90915  0.14986  0.31944  Biso   1.000  C
  C15      1.0000 0.59085  0.64986  0.18056  Biso   1.000  C
  C16      1.0000 0.09085  0.14986  0.18056  Biso   1.000  C
  C17      1.0000 0.63848  0.28239  0.75844  Biso   1.000  C
  C18      1.0000 0.13848  0.78239  0.75844  Biso   1.000  C
  C19      1.0000 0.36152  0.28239  0.74156  Biso   1.000  C
  C20      1.0000 0.86152  0.78239  0.74156  Biso   1.000  C
  C21      1.0000 0.36152  0.71761  0.24156  Biso   1.000  C
  C22      1.0000 0.86152  0.21761  0.24156  Biso   1.000  C
  C23      1.0000 0.63848  0.71761  0.25844  Biso   1.000  C
  C24      1.0000 0.13848  0.21761  0.25844  Biso   1.000  C
  C25      1.0000 0.64048  0.13600  0.76012  Biso   1.000  C
  C26      1.0000 0.14048  0.63600  0.76012  Biso   1.000  C
  C27      1.0000 0.35952  0.13600  0.73988  Biso   1.000  C
  C28      1.0000 0.85952  0.63600  0.73988  Biso   1.000  C
  C29      1.0000 0.35952  0.86400  0.23988  Biso   1.000  C
  C30      1.0000 0.85952  0.36400  0.23988  Biso   1.000  C
  C31      1.0000 0.64048  0.86400  0.26012  Biso   1.000  C
  C32      1.0000 0.14048  0.36400  0.26012  Biso   1.000  C
  C33      1.0000 0.59481  0.06130  0.68594  Biso   1.000  C
  C34      1.0000 0.09481  0.56130  0.68594  Biso   1.000  C
  C35      1.0000 0.40519  0.06130  0.81406  Biso   1.000  C
  C36      1.0000 0.90519  0.56130  0.81406  Biso   1.000  C
  C37      1.0000 0.40519  0.93870  0.31406  Biso   1.000  C
  C38      1.0000 0.90519  0.43870  0.31406  Biso   1.000  C
  C39      1.0000 0.59481  0.93870  0.18594  Biso   1.000  C
  C40      1.0000 0.09481  0.43870  0.18594  Biso   1.000  C
  C41      1.0000 0.59291  0.50870  0.66844  Biso   1.000  C
  C42      1.0000 0.09291  0.00870  0.66844  Biso   1.000  C
  C43      1.0000 0.40709  0.50870  0.83156  Biso   1.000  C
  C44      1.0000 0.90709  0.00870  0.83156  Biso   1.000  C
  C45      1.0000 0.40709  0.49130  0.33156  Biso   1.000  C
  C46      1.0000 0.90709  0.99130  0.33156  Biso   1.000  C
  C47      1.0000 0.59291  0.49130  0.16844  Biso   1.000  C
  C48      1.0000 0.09291  0.99130  0.16844  Biso   1.000  C
  C49      1.0000 0.68092  0.36300  0.84412  Biso   1.000  C
  C50      1.0000 0.18092  0.86300  0.84412  Biso   1.000  C
  C51      1.0000 0.31908  0.36300  0.65588  Biso   1.000  C
  C52      1.0000 0.81908  0.86300  0.65588  Biso   1.000  C
  C53      1.0000 0.31908  0.63700  0.15588  Biso   1.000  C
  C54      1.0000 0.81908  0.13700  0.15588  Biso   1.000  C
  C55      1.0000 0.68092  0.63700  0.34412  Biso   1.000  C
  C56      1.0000 0.18092  0.13700  0.34412  Biso   1.000  C
  C57      1.0000 0.61399  0.10085  0.42625  Biso   1.000  C
  C58      1.0000 0.11399  0.60085  0.42625  Biso   1.000  C
  C59      1.0000 0.38601  0.10085  0.07375  Biso   1.000  C
  C60      1.0000 0.88601  0.60085  0.07375  Biso   1.000  C
  C61      1.0000 0.38601  0.89915  0.57375  Biso   1.000  C
  C62      1.0000 0.88601  0.39915  0.57375  Biso   1.000  C
  C63      1.0000 0.61399  0.89915  0.92625  Biso   1.000  C
  C64      1.0000 0.11399  0.39915  0.92625  Biso   1.000  C
  C65      1.0000 0.67097  0.19650  0.38629  Biso   1.000  C
  C66      1.0000 0.17097  0.69650  0.38629  Biso   1.000  C
  C67      1.0000 0.32903  0.19650  0.11371  Biso   1.000  C
  C68      1.0000 0.82903  0.69650  0.11371  Biso   1.000  C
  C69      1.0000 0.32903  0.80350  0.61371  Biso   1.000  C
  C70      1.0000 0.82903  0.30350  0.61371  Biso   1.000  C
  C71      1.0000 0.67097  0.80350  0.88629  Biso   1.000  C
  C72      1.0000 0.17097  0.30350  0.88629  Biso   1.000  C
  C73      1.0000 0.75459  0.21720  0.45409  Biso   1.000  C
  C74      1.0000 0.25459  0.71720  0.45409  Biso   1.000  C
  C75      1.0000 0.24541  0.21720  0.04591  Biso   1.000  C
  C76      1.0000 0.74541  0.71720  0.04591  Biso   1.000  C
  C77      1.0000 0.24541  0.78280  0.54591  Biso   1.000  C
  C78      1.0000 0.74541  0.28280  0.54591  Biso   1.000  C
  C79      1.0000 0.75459  0.78280  0.95409  Biso   1.000  C
  C80      1.0000 0.25459  0.28280  0.95409  Biso   1.000  C
  H1       1.0000 0.51510  0.31050  0.55700  Biso   1.000  H
  H2       1.0000 0.01510  0.81050  0.55700  Biso   1.000  H
  H3       1.0000 0.48490  0.31050  0.94300  Biso   1.000  H
  H4       1.0000 0.98490  0.81050  0.94300  Biso   1.000  H
  H5       1.0000 0.48490  0.68950  0.44300  Biso   1.000  H
  H6       1.0000 0.98490  0.18950  0.44300  Biso   1.000  H
  H7       1.0000 0.51510  0.68950  0.05700  Biso   1.000  H
  H8       1.0000 0.01510  0.18950  0.05700  Biso   1.000  H
  H9       1.0000 0.67310  0.08770  0.81110  Biso   1.000  H
  H10      1.0000 0.17310  0.58770  0.81110  Biso   1.000  H
  H11      1.0000 0.32690  0.08770  0.68890  Biso   1.000  H
  H12      1.0000 0.82690  0.58770  0.68890  Biso   1.000  H
  H13      1.0000 0.32690  0.91230  0.18890  Biso   1.000  H
  H14      1.0000 0.82690  0.41230  0.18890  Biso   1.000  H
  H15      1.0000 0.67310  0.91230  0.31110  Biso   1.000  H
  H16      1.0000 0.17310  0.41230  0.31110  Biso   1.000  H
  H17      1.0000 0.59520  0.95960  0.68610  Biso   1.000  H
  H18      1.0000 0.09520  0.45960  0.68610  Biso   1.000  H
  H19      1.0000 0.40480  0.95960  0.81390  Biso   1.000  H
  H20      1.0000 0.90480  0.45960  0.81390  Biso   1.000  H
  H21      1.0000 0.40480  0.04040  0.31390  Biso   1.000  H
  H22      1.0000 0.90480  0.54040  0.31390  Biso   1.000  H
  H23      1.0000 0.59520  0.04040  0.18610  Biso   1.000  H
  H24      1.0000 0.09520  0.54040  0.18610  Biso   1.000  H
  H25      1.0000 0.68030  0.15420  0.32980  Biso   1.000  H
  H26      1.0000 0.18030  0.65420  0.32980  Biso   1.000  H
  H27      1.0000 0.31970  0.15420  0.17020  Biso   1.000  H
  H28      1.0000 0.81970  0.65420  0.17020  Biso   1.000  H
  H29      1.0000 0.31970  0.84580  0.67020  Biso   1.000  H
  H30      1.0000 0.81970  0.34580  0.67020  Biso   1.000  H
  H31      1.0000 0.68030  0.84580  0.82980  Biso   1.000  H
  H32      1.0000 0.18030  0.34580  0.82980  Biso   1.000  H
  H33      1.0000 0.64400  0.28770  0.37270  Biso   1.000  H
  H34      1.0000 0.14400  0.78770  0.37270  Biso   1.000  H
  H35      1.0000 0.35600  0.28770  0.12730  Biso   1.000  H
  H36      1.0000 0.85600  0.78770  0.12730  Biso   1.000  H
  H37      1.0000 0.35600  0.71230  0.62730  Biso   1.000  H
  H38      1.0000 0.85600  0.21230  0.62730  Biso   1.000  H
  H39      1.0000 0.64400  0.71230  0.87270  Biso   1.000  H
  H40      1.0000 0.14400  0.21230  0.87270  Biso   1.000  H
  H41      1.0000 0.78880  0.28130  0.42350  Biso   1.000  H
  H42      1.0000 0.28880  0.78130  0.42350  Biso   1.000  H
  H43      1.0000 0.21120  0.28130  0.07650  Biso   1.000  H
  H44      1.0000 0.71120  0.78130  0.07650  Biso   1.000  H
  H45      1.0000 0.21120  0.71870  0.57650  Biso   1.000  H
  H46      1.0000 0.71120  0.21870  0.57650  Biso   1.000  H
  H47      1.0000 0.78880  0.71870  0.92350  Biso   1.000  H
  H48      1.0000 0.28880  0.21870  0.92350  Biso   1.000  H
  H49      1.0000 0.78330  0.12320  0.46650  Biso   1.000  H
  H50      1.0000 0.28330  0.62320  0.46650  Biso   1.000  H
  H51      1.0000 0.21670  0.12320  0.03350  Biso   1.000  H
  H52      1.0000 0.71670  0.62320  0.03350  Biso   1.000  H
  H53      1.0000 0.21670  0.87680  0.53350  Biso   1.000  H
  H54      1.0000 0.71670  0.37680  0.53350  Biso   1.000  H
  H55      1.0000 0.78330  0.87680  0.96650  Biso   1.000  H
  H56      1.0000 0.28330  0.37680  0.96650  Biso   1.000  H
  H57      1.0000 0.78410  0.36800  0.92880  Biso   1.000  H
  H58      1.0000 0.28410  0.86800  0.92880  Biso   1.000  H
  H59      1.0000 0.21590  0.36800  0.57120  Biso   1.000  H
  H60      1.0000 0.71590  0.86800  0.57120  Biso   1.000  H
  H61      1.0000 0.21590  0.63200  0.07120  Biso   1.000  H
  H62      1.0000 0.71590  0.13200  0.07120  Biso   1.000  H
  H63      1.0000 0.78410  0.63200  0.42880  Biso   1.000  H
  H64      1.0000 0.28410  0.13200  0.42880  Biso   1.000  H
  H65      1.0000 0.51800  0.65780  0.62700  Biso   1.000  H
  H66      1.0000 0.01800  0.15780  0.62700  Biso   1.000  H
  H67      1.0000 0.48200  0.65780  0.87300  Biso   1.000  H
  H68      1.0000 0.98200  0.15780  0.87300  Biso   1.000  H
  H69      1.0000 0.48200  0.34220  0.37300  Biso   1.000  H
  H70      1.0000 0.98200  0.84220  0.37300  Biso   1.000  H
  H71      1.0000 0.51800  0.34220  0.12700  Biso   1.000  H
  H72      1.0000 0.01800  0.84220  0.12700  Biso   1.000  H
  H73      1.0000 0.47480  0.52200  0.63320  Biso   1.000  H
  H74      1.0000 0.97480  0.02200  0.63320  Biso   1.000  H
  H75      1.0000 0.52520  0.52200  0.86680  Biso   1.000  H
  H76      1.0000 0.02520  0.02200  0.86680  Biso   1.000  H
  H77      1.0000 0.52520  0.47800  0.36680  Biso   1.000  H
  H78      1.0000 0.02520  0.97800  0.36680  Biso   1.000  H
  H79      1.0000 0.47480  0.47800  0.13320  Biso   1.000  H
  H80      1.0000 0.97480  0.97800  0.13320  Biso   1.000  H
  H81      1.0000 0.78210  0.26000  0.85740  Biso   1.000  H
  H82      1.0000 0.28210  0.76000  0.85740  Biso   1.000  H
  H83      1.0000 0.21790  0.26000  0.64260  Biso   1.000  H
  H84      1.0000 0.71790  0.76000  0.64260  Biso   1.000  H
  H85      1.0000 0.21790  0.74000  0.14260  Biso   1.000  H
  H86      1.0000 0.71790  0.24000  0.14260  Biso   1.000  H
  H87      1.0000 0.78210  0.74000  0.35740  Biso   1.000  H
  H88      1.0000 0.28210  0.24000  0.35740  Biso   1.000  H
