data_image0
_cell_length_a       11.403
_cell_length_b       13.943
_cell_length_c       7.722
_cell_angle_alpha    90
_cell_angle_beta     93.93
_cell_angle_gamma    90

_symmetry_space_group_name_H-M    "P 1"
_symmetry_int_tables_number       1

loop_
  _symmetry_equiv_pos_as_xyz
  'x, y, z'

loop_
  _atom_site_label
  _atom_site_occupancy
  _atom_site_fract_x
  _atom_site_fract_y
  _atom_site_fract_z
  _atom_site_thermal_displace_type
  _atom_site_B_iso_or_equiv
  _atom_site_type_symbol
  Cu1      1.0000 0.00000  0.36850  0.25000  Biso   1.000  Cu
  Cu2      1.0000 0.50000  0.86850  0.25000  Biso   1.000  Cu
  Cu3      1.0000 0.00000  0.63150  0.75000  Biso   1.000  Cu
  Cu4      1.0000 0.50000  0.13150  0.75000  Biso   1.000  Cu
  N1       1.0000 0.05460  0.25890  0.10820  Biso   1.000  N
  N2       1.0000 0.55460  0.75890  0.10820  Biso   1.000  N
  N3       1.0000 0.94540  0.25890  0.39180  Biso   1.000  N
  N4       1.0000 0.44540  0.75890  0.39180  Biso   1.000  N
  N5       1.0000 0.94540  0.74110  0.89180  Biso   1.000  N
  N6       1.0000 0.44540  0.24110  0.89180  Biso   1.000  N
  N7       1.0000 0.05460  0.74110  0.60820  Biso   1.000  N
  N8       1.0000 0.55460  0.24110  0.60820  Biso   1.000  N
  C1       1.0000 0.10500  0.26390  0.95700  Biso   1.000  C
  C2       1.0000 0.60500  0.76390  0.95700  Biso   1.000  C
  C3       1.0000 0.89500  0.26390  0.54300  Biso   1.000  C
  C4       1.0000 0.39500  0.76390  0.54300  Biso   1.000  C
  C5       1.0000 0.89500  0.73610  0.04300  Biso   1.000  C
  C6       1.0000 0.39500  0.23610  0.04300  Biso   1.000  C
  C7       1.0000 0.10500  0.73610  0.45700  Biso   1.000  C
  C8       1.0000 0.60500  0.23610  0.45700  Biso   1.000  C
  C9       1.0000 0.13190  0.18170  0.86770  Biso   1.000  C
  C10      1.0000 0.63190  0.68170  0.86770  Biso   1.000  C
  C11      1.0000 0.86810  0.18170  0.63230  Biso   1.000  C
  C12      1.0000 0.36810  0.68170  0.63230  Biso   1.000  C
  C13      1.0000 0.86810  0.81830  0.13230  Biso   1.000  C
  C14      1.0000 0.36810  0.31830  0.13230  Biso   1.000  C
  C15      1.0000 0.13190  0.81830  0.36770  Biso   1.000  C
  C16      1.0000 0.63190  0.31830  0.36770  Biso   1.000  C
  C17      1.0000 0.10570  0.09460  0.94290  Biso   1.000  C
  C18      1.0000 0.60570  0.59460  0.94290  Biso   1.000  C
  C19      1.0000 0.89430  0.09460  0.55710  Biso   1.000  C
  C20      1.0000 0.39430  0.59460  0.55710  Biso   1.000  C
  C21      1.0000 0.89430  0.90540  0.05710  Biso   1.000  C
  C22      1.0000 0.39430  0.40540  0.05710  Biso   1.000  C
  C23      1.0000 0.10570  0.90540  0.44290  Biso   1.000  C
  C24      1.0000 0.60570  0.40540  0.44290  Biso   1.000  C
  N9       1.0000 0.05430  0.08840  0.09320  Biso   1.000  N
  N10      1.0000 0.55430  0.58840  0.09320  Biso   1.000  N
  N11      1.0000 0.94570  0.08840  0.40680  Biso   1.000  N
  N12      1.0000 0.44570  0.58840  0.40680  Biso   1.000  N
  N13      1.0000 0.94570  0.91160  0.90680  Biso   1.000  N
  N14      1.0000 0.44570  0.41160  0.90680  Biso   1.000  N
  N15      1.0000 0.05430  0.91160  0.59320  Biso   1.000  N
  N16      1.0000 0.55430  0.41160  0.59320  Biso   1.000  N
  C25      1.0000 0.03040  0.17110  0.16800  Biso   1.000  C
  C26      1.0000 0.53040  0.67110  0.16800  Biso   1.000  C
  C27      1.0000 0.96960  0.17110  0.33200  Biso   1.000  C
  C28      1.0000 0.46960  0.67110  0.33200  Biso   1.000  C
  C29      1.0000 0.96960  0.82890  0.83200  Biso   1.000  C
  C30      1.0000 0.46960  0.32890  0.83200  Biso   1.000  C
  C31      1.0000 0.03040  0.82890  0.66800  Biso   1.000  C
  C32      1.0000 0.53040  0.32890  0.66800  Biso   1.000  C
  N17      1.0000 0.09740  0.46280  0.14370  Biso   1.000  N
  N18      1.0000 0.59740  0.96280  0.14370  Biso   1.000  N
  N19      1.0000 0.90260  0.46280  0.35630  Biso   1.000  N
  N20      1.0000 0.40260  0.96280  0.35630  Biso   1.000  N
  N21      1.0000 0.90260  0.53720  0.85630  Biso   1.000  N
  N22      1.0000 0.40260  0.03720  0.85630  Biso   1.000  N
  N23      1.0000 0.09740  0.53720  0.64370  Biso   1.000  N
  N24      1.0000 0.59740  0.03720  0.64370  Biso   1.000  N
  C33      1.0000 0.14020  0.53390  0.10370  Biso   1.000  C
  C34      1.0000 0.64020  0.03390  0.10370  Biso   1.000  C
  C35      1.0000 0.85980  0.53390  0.39630  Biso   1.000  C
  C36      1.0000 0.35980  0.03390  0.39630  Biso   1.000  C
  C37      1.0000 0.85980  0.46610  0.89630  Biso   1.000  C
  C38      1.0000 0.35980  0.96610  0.89630  Biso   1.000  C
  C39      1.0000 0.14020  0.46610  0.60370  Biso   1.000  C
  C40      1.0000 0.64020  0.96610  0.60370  Biso   1.000  C
  S1       1.0000 0.79880  0.36630  0.95490  Biso   1.000  S
  S2       1.0000 0.29880  0.86630  0.95490  Biso   1.000  S
  S3       1.0000 0.20120  0.36630  0.54510  Biso   1.000  S
  S4       1.0000 0.70120  0.86630  0.54510  Biso   1.000  S
  S5       1.0000 0.20120  0.63370  0.04510  Biso   1.000  S
  S6       1.0000 0.70120  0.13370  0.04510  Biso   1.000  S
  S7       1.0000 0.79880  0.63370  0.45490  Biso   1.000  S
  S8       1.0000 0.29880  0.13370  0.45490  Biso   1.000  S
  H1       1.0000 0.12290  0.32550  0.90960  Biso   1.000  H
  H2       1.0000 0.62290  0.82550  0.90960  Biso   1.000  H
  H3       1.0000 0.87710  0.32550  0.59040  Biso   1.000  H
  H4       1.0000 0.37710  0.82550  0.59040  Biso   1.000  H
  H5       1.0000 0.87710  0.67450  0.09040  Biso   1.000  H
  H6       1.0000 0.37710  0.17450  0.09040  Biso   1.000  H
  H7       1.0000 0.12290  0.67450  0.40960  Biso   1.000  H
  H8       1.0000 0.62290  0.17450  0.40960  Biso   1.000  H
  H9       1.0000 0.16710  0.18470  0.75840  Biso   1.000  H
  H10      1.0000 0.66710  0.68470  0.75840  Biso   1.000  H
  H11      1.0000 0.83290  0.18470  0.74160  Biso   1.000  H
  H12      1.0000 0.33290  0.68470  0.74160  Biso   1.000  H
  H13      1.0000 0.83290  0.81530  0.24160  Biso   1.000  H
  H14      1.0000 0.33290  0.31530  0.24160  Biso   1.000  H
  H15      1.0000 0.16710  0.81530  0.25840  Biso   1.000  H
  H16      1.0000 0.66710  0.31530  0.25840  Biso   1.000  H
  H17      1.0000 0.12500  0.03650  0.88460  Biso   1.000  H
  H18      1.0000 0.62500  0.53650  0.88460  Biso   1.000  H
  H19      1.0000 0.87500  0.03650  0.61540  Biso   1.000  H
  H20      1.0000 0.37500  0.53650  0.61540  Biso   1.000  H
  H21      1.0000 0.87500  0.96350  0.11540  Biso   1.000  H
  H22      1.0000 0.37500  0.46350  0.11540  Biso   1.000  H
  H23      1.0000 0.12500  0.96350  0.38460  Biso   1.000  H
  H24      1.0000 0.62500  0.46350  0.38460  Biso   1.000  H
