data_image0
_cell_length_a       12.676
_cell_length_b       22.171
_cell_length_c       24.49
_cell_angle_alpha    90
_cell_angle_beta     90
_cell_angle_gamma    90

_symmetry_space_group_name_H-M    "P 1"
_symmetry_int_tables_number       1

loop_
  _symmetry_equiv_pos_as_xyz
  'x, y, z'

loop_
  _atom_site_label
  _atom_site_occupancy
  _atom_site_fract_x
  _atom_site_fract_y
  _atom_site_fract_z
  _atom_site_thermal_displace_type
  _atom_site_B_iso_or_equiv
  _atom_site_type_symbol
  Cu1      1.0000 0.62500  0.12500  0.01310  Biso   1.000  Cu
  Cu2      1.0000 0.62500  0.62500  0.51310  Biso   1.000  Cu
  Cu3      1.0000 0.12500  0.12500  0.51310  Biso   1.000  Cu
  Cu4      1.0000 0.12500  0.62500  0.01310  Biso   1.000  Cu
  Cu5      1.0000 0.62500  0.62500  0.73690  Biso   1.000  Cu
  Cu6      1.0000 0.62500  0.12500  0.23690  Biso   1.000  Cu
  Cu7      1.0000 0.12500  0.62500  0.23690  Biso   1.000  Cu
  Cu8      1.0000 0.12500  0.12500  0.73690  Biso   1.000  Cu
  Cu9      1.0000 0.37500  0.87500  0.98690  Biso   1.000  Cu
  Cu10     1.0000 0.37500  0.37500  0.48690  Biso   1.000  Cu
  Cu11     1.0000 0.87500  0.87500  0.48690  Biso   1.000  Cu
  Cu12     1.0000 0.87500  0.37500  0.98690  Biso   1.000  Cu
  Cu13     1.0000 0.37500  0.87500  0.76310  Biso   1.000  Cu
  Cu14     1.0000 0.37500  0.37500  0.26310  Biso   1.000  Cu
  Cu15     1.0000 0.87500  0.87500  0.26310  Biso   1.000  Cu
  Cu16     1.0000 0.87500  0.37500  0.76310  Biso   1.000  Cu
  N1       1.0000 0.62430  0.06510  0.07670  Biso   1.000  N
  N2       1.0000 0.62430  0.56510  0.57670  Biso   1.000  N
  N3       1.0000 0.12430  0.06510  0.57670  Biso   1.000  N
  N4       1.0000 0.12430  0.56510  0.07670  Biso   1.000  N
  N5       1.0000 0.62570  0.68490  0.57670  Biso   1.000  N
  N6       1.0000 0.62570  0.18490  0.07670  Biso   1.000  N
  N7       1.0000 0.12570  0.68490  0.07670  Biso   1.000  N
  N8       1.0000 0.12570  0.18490  0.57670  Biso   1.000  N
  N9       1.0000 0.62430  0.68490  0.67330  Biso   1.000  N
  N10      1.0000 0.62430  0.18490  0.17330  Biso   1.000  N
  N11      1.0000 0.12430  0.68490  0.17330  Biso   1.000  N
  N12      1.0000 0.12430  0.18490  0.67330  Biso   1.000  N
  N13      1.0000 0.12570  0.06510  0.67330  Biso   1.000  N
  N14      1.0000 0.12570  0.56510  0.17330  Biso   1.000  N
  N15      1.0000 0.62570  0.06510  0.17330  Biso   1.000  N
  N16      1.0000 0.62570  0.56510  0.67330  Biso   1.000  N
  N17      1.0000 0.37570  0.93490  0.92330  Biso   1.000  N
  N18      1.0000 0.37570  0.43490  0.42330  Biso   1.000  N
  N19      1.0000 0.87570  0.93490  0.42330  Biso   1.000  N
  N20      1.0000 0.87570  0.43490  0.92330  Biso   1.000  N
  N21      1.0000 0.87430  0.81510  0.42330  Biso   1.000  N
  N22      1.0000 0.87430  0.31510  0.92330  Biso   1.000  N
  N23      1.0000 0.37430  0.81510  0.92330  Biso   1.000  N
  N24      1.0000 0.37430  0.31510  0.42330  Biso   1.000  N
  N25      1.0000 0.37570  0.81510  0.82670  Biso   1.000  N
  N26      1.0000 0.37570  0.31510  0.32670  Biso   1.000  N
  N27      1.0000 0.87570  0.81510  0.32670  Biso   1.000  N
  N28      1.0000 0.87570  0.31510  0.82670  Biso   1.000  N
  N29      1.0000 0.37430  0.93490  0.82670  Biso   1.000  N
  N30      1.0000 0.37430  0.43490  0.32670  Biso   1.000  N
  N31      1.0000 0.87430  0.93490  0.32670  Biso   1.000  N
  N32      1.0000 0.87430  0.43490  0.82670  Biso   1.000  N
  C1       1.0000 0.61660  0.21860  0.92090  Biso   1.000  C
  C2       1.0000 0.61660  0.71860  0.42090  Biso   1.000  C
  C3       1.0000 0.11660  0.21860  0.42090  Biso   1.000  C
  C4       1.0000 0.11660  0.71860  0.92090  Biso   1.000  C
  C5       1.0000 0.63340  0.53140  0.42090  Biso   1.000  C
  C6       1.0000 0.63340  0.03140  0.92090  Biso   1.000  C
  C7       1.0000 0.13340  0.53140  0.92090  Biso   1.000  C
  C8       1.0000 0.13340  0.03140  0.42090  Biso   1.000  C
  C9       1.0000 0.61660  0.53140  0.82910  Biso   1.000  C
  C10      1.0000 0.61660  0.03140  0.32910  Biso   1.000  C
  C11      1.0000 0.11660  0.53140  0.32910  Biso   1.000  C
  C12      1.0000 0.11660  0.03140  0.82910  Biso   1.000  C
  C13      1.0000 0.13340  0.21860  0.82910  Biso   1.000  C
  C14      1.0000 0.13340  0.71860  0.32910  Biso   1.000  C
  C15      1.0000 0.63340  0.21860  0.32910  Biso   1.000  C
  C16      1.0000 0.63340  0.71860  0.82910  Biso   1.000  C
  C17      1.0000 0.38340  0.78140  0.07910  Biso   1.000  C
  C18      1.0000 0.38340  0.28140  0.57910  Biso   1.000  C
  C19      1.0000 0.88340  0.78140  0.57910  Biso   1.000  C
  C20      1.0000 0.88340  0.28140  0.07910  Biso   1.000  C
  C21      1.0000 0.86660  0.96860  0.57910  Biso   1.000  C
  C22      1.0000 0.86660  0.46860  0.07910  Biso   1.000  C
  C23      1.0000 0.36660  0.96860  0.07910  Biso   1.000  C
  C24      1.0000 0.36660  0.46860  0.57910  Biso   1.000  C
  C25      1.0000 0.38340  0.96860  0.67090  Biso   1.000  C
  C26      1.0000 0.38340  0.46860  0.17090  Biso   1.000  C
  C27      1.0000 0.88340  0.96860  0.17090  Biso   1.000  C
  C28      1.0000 0.88340  0.46860  0.67090  Biso   1.000  C
  C29      1.0000 0.36660  0.78140  0.67090  Biso   1.000  C
  C30      1.0000 0.36660  0.28140  0.17090  Biso   1.000  C
  C31      1.0000 0.86660  0.78140  0.17090  Biso   1.000  C
  C32      1.0000 0.86660  0.28140  0.67090  Biso   1.000  C
  C33      1.0000 0.62400  0.00450  0.07640  Biso   1.000  C
  C34      1.0000 0.62400  0.50450  0.57640  Biso   1.000  C
  C35      1.0000 0.12400  0.00450  0.57640  Biso   1.000  C
  C36      1.0000 0.12400  0.50450  0.07640  Biso   1.000  C
  C37      1.0000 0.62600  0.74550  0.57640  Biso   1.000  C
  C38      1.0000 0.62600  0.24550  0.07640  Biso   1.000  C
  C39      1.0000 0.12600  0.74550  0.07640  Biso   1.000  C
  C40      1.0000 0.12600  0.24550  0.57640  Biso   1.000  C
  C41      1.0000 0.62400  0.74550  0.67360  Biso   1.000  C
  C42      1.0000 0.62400  0.24550  0.17360  Biso   1.000  C
  C43      1.0000 0.12400  0.74550  0.17360  Biso   1.000  C
  C44      1.0000 0.12400  0.24550  0.67360  Biso   1.000  C
  C45      1.0000 0.12600  0.00450  0.67360  Biso   1.000  C
  C46      1.0000 0.12600  0.50450  0.17360  Biso   1.000  C
  C47      1.0000 0.62600  0.00450  0.17360  Biso   1.000  C
  C48      1.0000 0.62600  0.50450  0.67360  Biso   1.000  C
  C49      1.0000 0.37600  0.99550  0.92360  Biso   1.000  C
  C50      1.0000 0.37600  0.49550  0.42360  Biso   1.000  C
  C51      1.0000 0.87600  0.99550  0.42360  Biso   1.000  C
  C52      1.0000 0.87600  0.49550  0.92360  Biso   1.000  C
  C53      1.0000 0.87400  0.75450  0.42360  Biso   1.000  C
  C54      1.0000 0.87400  0.25450  0.92360  Biso   1.000  C
  C55      1.0000 0.37400  0.75450  0.92360  Biso   1.000  C
  C56      1.0000 0.37400  0.25450  0.42360  Biso   1.000  C
  C57      1.0000 0.37600  0.75450  0.82640  Biso   1.000  C
  C58      1.0000 0.37600  0.25450  0.32640  Biso   1.000  C
  C59      1.0000 0.87600  0.75450  0.32640  Biso   1.000  C
  C60      1.0000 0.87600  0.25450  0.82640  Biso   1.000  C
  C61      1.0000 0.37400  0.99550  0.82640  Biso   1.000  C
  C62      1.0000 0.37400  0.49550  0.32640  Biso   1.000  C
  C63      1.0000 0.87400  0.99550  0.32640  Biso   1.000  C
  C64      1.0000 0.87400  0.49550  0.82640  Biso   1.000  C
  C65      1.0000 0.62500  0.97240  0.12500  Biso   1.000  C
  C66      1.0000 0.62500  0.47240  0.62500  Biso   1.000  C
  C67      1.0000 0.12500  0.97240  0.62500  Biso   1.000  C
  C68      1.0000 0.12500  0.47240  0.12500  Biso   1.000  C
  C69      1.0000 0.62500  0.77760  0.62500  Biso   1.000  C
  C70      1.0000 0.62500  0.27760  0.12500  Biso   1.000  C
  C71      1.0000 0.12500  0.77760  0.12500  Biso   1.000  C
  C72      1.0000 0.12500  0.27760  0.62500  Biso   1.000  C
  C73      1.0000 0.37500  0.02760  0.87500  Biso   1.000  C
  C74      1.0000 0.37500  0.52760  0.37500  Biso   1.000  C
  C75      1.0000 0.87500  0.02760  0.37500  Biso   1.000  C
  C76      1.0000 0.87500  0.52760  0.87500  Biso   1.000  C
  C77      1.0000 0.87500  0.72240  0.37500  Biso   1.000  C
  C78      1.0000 0.87500  0.22240  0.87500  Biso   1.000  C
  C79      1.0000 0.37500  0.72240  0.87500  Biso   1.000  C
  C80      1.0000 0.37500  0.22240  0.37500  Biso   1.000  C
  C81      1.0000 0.62500  0.09210  0.12500  Biso   1.000  C
  C82      1.0000 0.62500  0.59210  0.62500  Biso   1.000  C
  C83      1.0000 0.12500  0.09210  0.62500  Biso   1.000  C
  C84      1.0000 0.12500  0.59210  0.12500  Biso   1.000  C
  C85      1.0000 0.62500  0.65790  0.62500  Biso   1.000  C
  C86      1.0000 0.62500  0.15790  0.12500  Biso   1.000  C
  C87      1.0000 0.12500  0.65790  0.12500  Biso   1.000  C
  C88      1.0000 0.12500  0.15790  0.62500  Biso   1.000  C
  C89      1.0000 0.37500  0.90790  0.87500  Biso   1.000  C
  C90      1.0000 0.37500  0.40790  0.37500  Biso   1.000  C
  C91      1.0000 0.87500  0.90790  0.37500  Biso   1.000  C
  C92      1.0000 0.87500  0.40790  0.87500  Biso   1.000  C
  C93      1.0000 0.87500  0.84210  0.37500  Biso   1.000  C
  C94      1.0000 0.87500  0.34210  0.87500  Biso   1.000  C
  C95      1.0000 0.37500  0.84210  0.87500  Biso   1.000  C
  C96      1.0000 0.37500  0.34210  0.37500  Biso   1.000  C
  N33      1.0000 0.62720  0.18880  0.95940  Biso   1.000  N
  N34      1.0000 0.62720  0.68880  0.45940  Biso   1.000  N
  N35      1.0000 0.12720  0.18880  0.45940  Biso   1.000  N
  N36      1.0000 0.12720  0.68880  0.95940  Biso   1.000  N
  N37      1.0000 0.62280  0.56120  0.45940  Biso   1.000  N
  N38      1.0000 0.62280  0.06120  0.95940  Biso   1.000  N
  N39      1.0000 0.12280  0.56120  0.95940  Biso   1.000  N
  N40      1.0000 0.12280  0.06120  0.45940  Biso   1.000  N
  N41      1.0000 0.62720  0.56120  0.79060  Biso   1.000  N
  N42      1.0000 0.62720  0.06120  0.29060  Biso   1.000  N
  N43      1.0000 0.12720  0.56120  0.29060  Biso   1.000  N
  N44      1.0000 0.12720  0.06120  0.79060  Biso   1.000  N
  N45      1.0000 0.12280  0.18880  0.79060  Biso   1.000  N
  N46      1.0000 0.12280  0.68880  0.29060  Biso   1.000  N
  N47      1.0000 0.62280  0.18880  0.29060  Biso   1.000  N
  N48      1.0000 0.62280  0.68880  0.79060  Biso   1.000  N
  N49      1.0000 0.37280  0.81120  0.04060  Biso   1.000  N
  N50      1.0000 0.37280  0.31120  0.54060  Biso   1.000  N
  N51      1.0000 0.87280  0.81120  0.54060  Biso   1.000  N
  N52      1.0000 0.87280  0.31120  0.04060  Biso   1.000  N
  N53      1.0000 0.87720  0.93880  0.54060  Biso   1.000  N
  N54      1.0000 0.87720  0.43880  0.04060  Biso   1.000  N
  N55      1.0000 0.37720  0.93880  0.04060  Biso   1.000  N
  N56      1.0000 0.37720  0.43880  0.54060  Biso   1.000  N
  N57      1.0000 0.37280  0.93880  0.70940  Biso   1.000  N
  N58      1.0000 0.37280  0.43880  0.20940  Biso   1.000  N
  N59      1.0000 0.87280  0.93880  0.20940  Biso   1.000  N
  N60      1.0000 0.87280  0.43880  0.70940  Biso   1.000  N
  N61      1.0000 0.37720  0.81120  0.70940  Biso   1.000  N
  N62      1.0000 0.37720  0.31120  0.20940  Biso   1.000  N
  N63      1.0000 0.87720  0.81120  0.20940  Biso   1.000  N
  N64      1.0000 0.87720  0.31120  0.70940  Biso   1.000  N
  S1       1.0000 0.39560  0.11810  0.02480  Biso   1.000  S
  S2       1.0000 0.39560  0.61810  0.52480  Biso   1.000  S
  S3       1.0000 0.89560  0.11810  0.52480  Biso   1.000  S
  S4       1.0000 0.89560  0.61810  0.02480  Biso   1.000  S
  S5       1.0000 0.85440  0.63190  0.52480  Biso   1.000  S
  S6       1.0000 0.85440  0.13190  0.02480  Biso   1.000  S
  S7       1.0000 0.35440  0.63190  0.02480  Biso   1.000  S
  S8       1.0000 0.35440  0.13190  0.52480  Biso   1.000  S
  S9       1.0000 0.39560  0.63190  0.72520  Biso   1.000  S
  S10      1.0000 0.39560  0.13190  0.22520  Biso   1.000  S
  S11      1.0000 0.89560  0.63190  0.22520  Biso   1.000  S
  S12      1.0000 0.89560  0.13190  0.72520  Biso   1.000  S
  S13      1.0000 0.35440  0.11810  0.72520  Biso   1.000  S
  S14      1.0000 0.35440  0.61810  0.22520  Biso   1.000  S
  S15      1.0000 0.85440  0.11810  0.22520  Biso   1.000  S
  S16      1.0000 0.85440  0.61810  0.72520  Biso   1.000  S
  S17      1.0000 0.60440  0.88190  0.97520  Biso   1.000  S
  S18      1.0000 0.60440  0.38190  0.47520  Biso   1.000  S
  S19      1.0000 0.10440  0.88190  0.47520  Biso   1.000  S
  S20      1.0000 0.10440  0.38190  0.97520  Biso   1.000  S
  S21      1.0000 0.64560  0.86810  0.47520  Biso   1.000  S
  S22      1.0000 0.64560  0.36810  0.97520  Biso   1.000  S
  S23      1.0000 0.14560  0.86810  0.97520  Biso   1.000  S
  S24      1.0000 0.14560  0.36810  0.47520  Biso   1.000  S
  S25      1.0000 0.60440  0.86810  0.77480  Biso   1.000  S
  S26      1.0000 0.60440  0.36810  0.27480  Biso   1.000  S
  S27      1.0000 0.10440  0.86810  0.27480  Biso   1.000  S
  S28      1.0000 0.10440  0.36810  0.77480  Biso   1.000  S
  S29      1.0000 0.14560  0.88190  0.77480  Biso   1.000  S
  S30      1.0000 0.14560  0.38190  0.27480  Biso   1.000  S
  S31      1.0000 0.64560  0.88190  0.27480  Biso   1.000  S
  S32      1.0000 0.64560  0.38190  0.77480  Biso   1.000  S
  Cu17     1.0000 0.37500  0.25100  0.87500  Biso   1.000  Cu
  Cu18     1.0000 0.37500  0.75100  0.37500  Biso   1.000  Cu
  Cu19     1.0000 0.87500  0.25100  0.37500  Biso   1.000  Cu
  Cu20     1.0000 0.87500  0.75100  0.87500  Biso   1.000  Cu
  Cu21     1.0000 0.87500  0.49900  0.37500  Biso   1.000  Cu
  Cu22     1.0000 0.87500  0.99900  0.87500  Biso   1.000  Cu
  Cu23     1.0000 0.37500  0.49900  0.87500  Biso   1.000  Cu
  Cu24     1.0000 0.37500  0.99900  0.37500  Biso   1.000  Cu
  Cu25     1.0000 0.62500  0.74900  0.12500  Biso   1.000  Cu
  Cu26     1.0000 0.62500  0.24900  0.62500  Biso   1.000  Cu
  Cu27     1.0000 0.12500  0.74900  0.62500  Biso   1.000  Cu
  Cu28     1.0000 0.12500  0.24900  0.12500  Biso   1.000  Cu
  Cu29     1.0000 0.62500  0.00100  0.62500  Biso   1.000  Cu
  Cu30     1.0000 0.62500  0.50100  0.12500  Biso   1.000  Cu
  Cu31     1.0000 0.12500  0.00100  0.12500  Biso   1.000  Cu
  Cu32     1.0000 0.12500  0.50100  0.62500  Biso   1.000  Cu
  N65      1.0000 0.37470  0.32160  0.82040  Biso   1.000  N
  N66      1.0000 0.37470  0.82160  0.32040  Biso   1.000  N
  N67      1.0000 0.87470  0.32160  0.32040  Biso   1.000  N
  N68      1.0000 0.87470  0.82160  0.82040  Biso   1.000  N
  N69      1.0000 0.87530  0.42840  0.32040  Biso   1.000  N
  N70      1.0000 0.87530  0.92840  0.82040  Biso   1.000  N
  N71      1.0000 0.37530  0.42840  0.82040  Biso   1.000  N
  N72      1.0000 0.37530  0.92840  0.32040  Biso   1.000  N
  N73      1.0000 0.37470  0.42840  0.92960  Biso   1.000  N
  N74      1.0000 0.37470  0.92840  0.42960  Biso   1.000  N
  N75      1.0000 0.87470  0.42840  0.42960  Biso   1.000  N
  N76      1.0000 0.87470  0.92840  0.92960  Biso   1.000  N
  N77      1.0000 0.37530  0.32160  0.92960  Biso   1.000  N
  N78      1.0000 0.37530  0.82160  0.42960  Biso   1.000  N
  N79      1.0000 0.87530  0.32160  0.42960  Biso   1.000  N
  N80      1.0000 0.87530  0.82160  0.92960  Biso   1.000  N
  N81      1.0000 0.62530  0.67840  0.17960  Biso   1.000  N
  N82      1.0000 0.62530  0.17840  0.67960  Biso   1.000  N
  N83      1.0000 0.12530  0.67840  0.67960  Biso   1.000  N
  N84      1.0000 0.12530  0.17840  0.17960  Biso   1.000  N
  N85      1.0000 0.62470  0.07160  0.67960  Biso   1.000  N
  N86      1.0000 0.62470  0.57160  0.17960  Biso   1.000  N
  N87      1.0000 0.12470  0.07160  0.17960  Biso   1.000  N
  N88      1.0000 0.12470  0.57160  0.67960  Biso   1.000  N
  N89      1.0000 0.62530  0.07160  0.57040  Biso   1.000  N
  N90      1.0000 0.62530  0.57160  0.07040  Biso   1.000  N
  N91      1.0000 0.12530  0.07160  0.07040  Biso   1.000  N
  N92      1.0000 0.12530  0.57160  0.57040  Biso   1.000  N
  N93      1.0000 0.12470  0.67840  0.57040  Biso   1.000  N
  N94      1.0000 0.12470  0.17840  0.07040  Biso   1.000  N
  N95      1.0000 0.62470  0.67840  0.07040  Biso   1.000  N
  N96      1.0000 0.62470  0.17840  0.57040  Biso   1.000  N
  C97      1.0000 0.37500  0.37500  0.84500  Biso   1.000  C
  C98      1.0000 0.37500  0.87500  0.34500  Biso   1.000  C
  C99      1.0000 0.87500  0.37500  0.34500  Biso   1.000  C
  C100     1.0000 0.87500  0.87500  0.84500  Biso   1.000  C
  C101     1.0000 0.37500  0.37500  0.90500  Biso   1.000  C
  C102     1.0000 0.37500  0.87500  0.40500  Biso   1.000  C
  C103     1.0000 0.87500  0.37500  0.40500  Biso   1.000  C
  C104     1.0000 0.87500  0.87500  0.90500  Biso   1.000  C
  C105     1.0000 0.62500  0.62500  0.15500  Biso   1.000  C
  C106     1.0000 0.62500  0.12500  0.65500  Biso   1.000  C
  C107     1.0000 0.12500  0.62500  0.65500  Biso   1.000  C
  C108     1.0000 0.12500  0.12500  0.15500  Biso   1.000  C
  C109     1.0000 0.62500  0.12500  0.59500  Biso   1.000  C
  C110     1.0000 0.62500  0.62500  0.09500  Biso   1.000  C
  C111     1.0000 0.12500  0.12500  0.09500  Biso   1.000  C
  C112     1.0000 0.12500  0.62500  0.59500  Biso   1.000  C
  C113     1.0000 0.37500  0.32160  0.76570  Biso   1.000  C
  C114     1.0000 0.37500  0.82160  0.26570  Biso   1.000  C
  C115     1.0000 0.87500  0.32160  0.26570  Biso   1.000  C
  C116     1.0000 0.87500  0.82160  0.76570  Biso   1.000  C
  C117     1.0000 0.87500  0.42840  0.26570  Biso   1.000  C
  C118     1.0000 0.87500  0.92840  0.76570  Biso   1.000  C
  C119     1.0000 0.37500  0.42840  0.76570  Biso   1.000  C
  C120     1.0000 0.37500  0.92840  0.26570  Biso   1.000  C
  C121     1.0000 0.37500  0.42840  0.98430  Biso   1.000  C
  C122     1.0000 0.37500  0.92840  0.48430  Biso   1.000  C
  C123     1.0000 0.87500  0.42840  0.48430  Biso   1.000  C
  C124     1.0000 0.87500  0.92840  0.98430  Biso   1.000  C
  C125     1.0000 0.37500  0.32160  0.98430  Biso   1.000  C
  C126     1.0000 0.37500  0.82160  0.48430  Biso   1.000  C
  C127     1.0000 0.87500  0.32160  0.48430  Biso   1.000  C
  C128     1.0000 0.87500  0.82160  0.98430  Biso   1.000  C
  C129     1.0000 0.62500  0.67840  0.23430  Biso   1.000  C
  C130     1.0000 0.62500  0.17840  0.73430  Biso   1.000  C
  C131     1.0000 0.12500  0.67840  0.73430  Biso   1.000  C
  C132     1.0000 0.12500  0.17840  0.23430  Biso   1.000  C
  C133     1.0000 0.62500  0.07160  0.73430  Biso   1.000  C
  C134     1.0000 0.62500  0.57160  0.23430  Biso   1.000  C
  C135     1.0000 0.12500  0.07160  0.23430  Biso   1.000  C
  C136     1.0000 0.12500  0.57160  0.73430  Biso   1.000  C
  C137     1.0000 0.62500  0.07160  0.51570  Biso   1.000  C
  C138     1.0000 0.62500  0.57160  0.01570  Biso   1.000  C
  C139     1.0000 0.12500  0.07160  0.01570  Biso   1.000  C
  C140     1.0000 0.12500  0.57160  0.51570  Biso   1.000  C
  C141     1.0000 0.12500  0.67840  0.51570  Biso   1.000  C
  C142     1.0000 0.12500  0.17840  0.01570  Biso   1.000  C
  C143     1.0000 0.62500  0.67840  0.01570  Biso   1.000  C
  C144     1.0000 0.62500  0.17840  0.51570  Biso   1.000  C
  C145     1.0000 0.37500  0.37500  0.73650  Biso   1.000  C
  C146     1.0000 0.37500  0.87500  0.23650  Biso   1.000  C
  C147     1.0000 0.87500  0.37500  0.23650  Biso   1.000  C
  C148     1.0000 0.87500  0.87500  0.73650  Biso   1.000  C
  C149     1.0000 0.37500  0.37500  0.01350  Biso   1.000  C
  C150     1.0000 0.37500  0.87500  0.51350  Biso   1.000  C
  C151     1.0000 0.87500  0.37500  0.51350  Biso   1.000  C
  C152     1.0000 0.87500  0.87500  0.01350  Biso   1.000  C
  C153     1.0000 0.62500  0.62500  0.26350  Biso   1.000  C
  C154     1.0000 0.62500  0.12500  0.76350  Biso   1.000  C
  C155     1.0000 0.12500  0.62500  0.76350  Biso   1.000  C
  C156     1.0000 0.12500  0.12500  0.26350  Biso   1.000  C
  C157     1.0000 0.62500  0.12500  0.48650  Biso   1.000  C
  C158     1.0000 0.62500  0.62500  0.98650  Biso   1.000  C
  C159     1.0000 0.12500  0.12500  0.98650  Biso   1.000  C
  C160     1.0000 0.12500  0.62500  0.48650  Biso   1.000  C
  C161     1.0000 0.38310  0.16150  0.97130  Biso   1.000  C
  C162     1.0000 0.38310  0.66150  0.47130  Biso   1.000  C
  C163     1.0000 0.88310  0.16150  0.47130  Biso   1.000  C
  C164     1.0000 0.88310  0.66150  0.97130  Biso   1.000  C
  C165     1.0000 0.86690  0.58850  0.47130  Biso   1.000  C
  C166     1.0000 0.86690  0.08850  0.97130  Biso   1.000  C
  C167     1.0000 0.36690  0.58850  0.97130  Biso   1.000  C
  C168     1.0000 0.36690  0.08850  0.47130  Biso   1.000  C
  C169     1.0000 0.38310  0.58850  0.77870  Biso   1.000  C
  C170     1.0000 0.38310  0.08850  0.27870  Biso   1.000  C
  C171     1.0000 0.88310  0.58850  0.27870  Biso   1.000  C
  C172     1.0000 0.88310  0.08850  0.77870  Biso   1.000  C
  C173     1.0000 0.36690  0.16150  0.77870  Biso   1.000  C
  C174     1.0000 0.36690  0.66150  0.27870  Biso   1.000  C
  C175     1.0000 0.86690  0.16150  0.27870  Biso   1.000  C
  C176     1.0000 0.86690  0.66150  0.77870  Biso   1.000  C
  C177     1.0000 0.61690  0.83850  0.02870  Biso   1.000  C
  C178     1.0000 0.61690  0.33850  0.52870  Biso   1.000  C
  C179     1.0000 0.11690  0.83850  0.52870  Biso   1.000  C
  C180     1.0000 0.11690  0.33850  0.02870  Biso   1.000  C
  C181     1.0000 0.63310  0.91150  0.52870  Biso   1.000  C
  C182     1.0000 0.63310  0.41150  0.02870  Biso   1.000  C
  C183     1.0000 0.13310  0.91150  0.02870  Biso   1.000  C
  C184     1.0000 0.13310  0.41150  0.52870  Biso   1.000  C
  C185     1.0000 0.61690  0.91150  0.72130  Biso   1.000  C
  C186     1.0000 0.61690  0.41150  0.22130  Biso   1.000  C
  C187     1.0000 0.11690  0.91150  0.22130  Biso   1.000  C
  C188     1.0000 0.11690  0.41150  0.72130  Biso   1.000  C
  C189     1.0000 0.13310  0.83850  0.72130  Biso   1.000  C
  C190     1.0000 0.13310  0.33850  0.22130  Biso   1.000  C
  C191     1.0000 0.63310  0.83850  0.22130  Biso   1.000  C
  C192     1.0000 0.63310  0.33850  0.72130  Biso   1.000  C
  N97      1.0000 0.37300  0.19220  0.93330  Biso   1.000  N
  N98      1.0000 0.37300  0.69220  0.43330  Biso   1.000  N
  N99      1.0000 0.87300  0.19220  0.43330  Biso   1.000  N
  N100     1.0000 0.87300  0.69220  0.93330  Biso   1.000  N
  N101     1.0000 0.87700  0.55780  0.43330  Biso   1.000  N
  N102     1.0000 0.87700  0.05780  0.93330  Biso   1.000  N
  N103     1.0000 0.37700  0.55780  0.93330  Biso   1.000  N
  N104     1.0000 0.37700  0.05780  0.43330  Biso   1.000  N
  N105     1.0000 0.37300  0.55780  0.81670  Biso   1.000  N
  N106     1.0000 0.37300  0.05780  0.31670  Biso   1.000  N
  N107     1.0000 0.87300  0.55780  0.31670  Biso   1.000  N
  N108     1.0000 0.87300  0.05780  0.81670  Biso   1.000  N
  N109     1.0000 0.37700  0.19220  0.81670  Biso   1.000  N
  N110     1.0000 0.37700  0.69220  0.31670  Biso   1.000  N
  N111     1.0000 0.87700  0.19220  0.31670  Biso   1.000  N
  N112     1.0000 0.87700  0.69220  0.81670  Biso   1.000  N
  N113     1.0000 0.62700  0.80780  0.06670  Biso   1.000  N
  N114     1.0000 0.62700  0.30780  0.56670  Biso   1.000  N
  N115     1.0000 0.12700  0.80780  0.56670  Biso   1.000  N
  N116     1.0000 0.12700  0.30780  0.06670  Biso   1.000  N
  N117     1.0000 0.62300  0.94220  0.56670  Biso   1.000  N
  N118     1.0000 0.62300  0.44220  0.06670  Biso   1.000  N
  N119     1.0000 0.12300  0.94220  0.06670  Biso   1.000  N
  N120     1.0000 0.12300  0.44220  0.56670  Biso   1.000  N
  N121     1.0000 0.62700  0.94220  0.68330  Biso   1.000  N
  N122     1.0000 0.62700  0.44220  0.18330  Biso   1.000  N
  N123     1.0000 0.12700  0.94220  0.18330  Biso   1.000  N
  N124     1.0000 0.12700  0.44220  0.68330  Biso   1.000  N
  N125     1.0000 0.12300  0.80780  0.68330  Biso   1.000  N
  N126     1.0000 0.12300  0.30780  0.18330  Biso   1.000  N
  N127     1.0000 0.62300  0.80780  0.18330  Biso   1.000  N
  N128     1.0000 0.62300  0.30780  0.68330  Biso   1.000  N
  S33      1.0000 0.60290  0.26310  0.86810  Biso   1.000  S
  S34      1.0000 0.60290  0.76310  0.36810  Biso   1.000  S
  S35      1.0000 0.10290  0.26310  0.36810  Biso   1.000  S
  S36      1.0000 0.10290  0.76310  0.86810  Biso   1.000  S
  S37      1.0000 0.64710  0.48690  0.36810  Biso   1.000  S
  S38      1.0000 0.64710  0.98690  0.86810  Biso   1.000  S
  S39      1.0000 0.14710  0.48690  0.86810  Biso   1.000  S
  S40      1.0000 0.14710  0.98690  0.36810  Biso   1.000  S
  S41      1.0000 0.60290  0.48690  0.88190  Biso   1.000  S
  S42      1.0000 0.60290  0.98690  0.38190  Biso   1.000  S
  S43      1.0000 0.10290  0.48690  0.38190  Biso   1.000  S
  S44      1.0000 0.10290  0.98690  0.88190  Biso   1.000  S
  S45      1.0000 0.14710  0.26310  0.88190  Biso   1.000  S
  S46      1.0000 0.14710  0.76310  0.38190  Biso   1.000  S
  S47      1.0000 0.64710  0.26310  0.38190  Biso   1.000  S
  S48      1.0000 0.64710  0.76310  0.88190  Biso   1.000  S
  S49      1.0000 0.39710  0.73690  0.13190  Biso   1.000  S
  S50      1.0000 0.39710  0.23690  0.63190  Biso   1.000  S
  S51      1.0000 0.89710  0.73690  0.63190  Biso   1.000  S
  S52      1.0000 0.89710  0.23690  0.13190  Biso   1.000  S
  S53      1.0000 0.85290  0.01310  0.63190  Biso   1.000  S
  S54      1.0000 0.85290  0.51310  0.13190  Biso   1.000  S
  S55      1.0000 0.35290  0.01310  0.13190  Biso   1.000  S
  S56      1.0000 0.35290  0.51310  0.63190  Biso   1.000  S
  S57      1.0000 0.39710  0.01310  0.61810  Biso   1.000  S
  S58      1.0000 0.39710  0.51310  0.11810  Biso   1.000  S
  S59      1.0000 0.89710  0.01310  0.11810  Biso   1.000  S
  S60      1.0000 0.89710  0.51310  0.61810  Biso   1.000  S
  S61      1.0000 0.35290  0.73690  0.61810  Biso   1.000  S
  S62      1.0000 0.35290  0.23690  0.11810  Biso   1.000  S
  S63      1.0000 0.85290  0.73690  0.11810  Biso   1.000  S
  S64      1.0000 0.85290  0.23690  0.61810  Biso   1.000  S
  H1       1.0000 0.37580  0.28400  0.74630  Biso   1.000  H
  H2       1.0000 0.37580  0.78400  0.24630  Biso   1.000  H
  H3       1.0000 0.87580  0.28400  0.24630  Biso   1.000  H
  H4       1.0000 0.87580  0.78400  0.74630  Biso   1.000  H
  H5       1.0000 0.87420  0.46600  0.24630  Biso   1.000  H
  H6       1.0000 0.87420  0.96600  0.74630  Biso   1.000  H
  H7       1.0000 0.37420  0.46600  0.74630  Biso   1.000  H
  H8       1.0000 0.37420  0.96600  0.24630  Biso   1.000  H
  H9       1.0000 0.37580  0.46600  0.00370  Biso   1.000  H
  H10      1.0000 0.37580  0.96600  0.50370  Biso   1.000  H
  H11      1.0000 0.87580  0.46600  0.50370  Biso   1.000  H
  H12      1.0000 0.87580  0.96600  0.00370  Biso   1.000  H
  H13      1.0000 0.37420  0.28400  0.00370  Biso   1.000  H
  H14      1.0000 0.37420  0.78400  0.50370  Biso   1.000  H
  H15      1.0000 0.87420  0.28400  0.50370  Biso   1.000  H
  H16      1.0000 0.87420  0.78400  0.00370  Biso   1.000  H
  H17      1.0000 0.62420  0.71600  0.25370  Biso   1.000  H
  H18      1.0000 0.62420  0.21600  0.75370  Biso   1.000  H
  H19      1.0000 0.12420  0.71600  0.75370  Biso   1.000  H
  H20      1.0000 0.12420  0.21600  0.25370  Biso   1.000  H
  H21      1.0000 0.62580  0.03400  0.75370  Biso   1.000  H
  H22      1.0000 0.62580  0.53400  0.25370  Biso   1.000  H
  H23      1.0000 0.12580  0.03400  0.25370  Biso   1.000  H
  H24      1.0000 0.12580  0.53400  0.75370  Biso   1.000  H
  H25      1.0000 0.62420  0.03400  0.49630  Biso   1.000  H
  H26      1.0000 0.62420  0.53400  0.99630  Biso   1.000  H
  H27      1.0000 0.12420  0.03400  0.99630  Biso   1.000  H
  H28      1.0000 0.12420  0.53400  0.49630  Biso   1.000  H
  H29      1.0000 0.12580  0.71600  0.49630  Biso   1.000  H
  H30      1.0000 0.12580  0.21600  0.99630  Biso   1.000  H
  H31      1.0000 0.62580  0.71600  0.99630  Biso   1.000  H
  H32      1.0000 0.62580  0.21600  0.49630  Biso   1.000  H
  H33      1.0000 0.37500  0.37500  0.69740  Biso   1.000  H
  H34      1.0000 0.37500  0.87500  0.19740  Biso   1.000  H
  H35      1.0000 0.87500  0.37500  0.19740  Biso   1.000  H
  H36      1.0000 0.87500  0.87500  0.69740  Biso   1.000  H
  H37      1.0000 0.37500  0.37500  0.05260  Biso   1.000  H
  H38      1.0000 0.37500  0.87500  0.55260  Biso   1.000  H
  H39      1.0000 0.87500  0.37500  0.55260  Biso   1.000  H
  H40      1.0000 0.87500  0.87500  0.05260  Biso   1.000  H
  H41      1.0000 0.62500  0.62500  0.30260  Biso   1.000  H
  H42      1.0000 0.62500  0.12500  0.80260  Biso   1.000  H
  H43      1.0000 0.12500  0.62500  0.80260  Biso   1.000  H
  H44      1.0000 0.12500  0.12500  0.30260  Biso   1.000  H
  H45      1.0000 0.62500  0.12500  0.44740  Biso   1.000  H
  H46      1.0000 0.62500  0.62500  0.94740  Biso   1.000  H
  H47      1.0000 0.12500  0.12500  0.94740  Biso   1.000  H
  H48      1.0000 0.12500  0.62500  0.44740  Biso   1.000  H
  H49      1.0000 0.62240  0.98320  0.04230  Biso   1.000  H
  H50      1.0000 0.62240  0.48320  0.54230  Biso   1.000  H
  H51      1.0000 0.12240  0.98320  0.54230  Biso   1.000  H
  H52      1.0000 0.12240  0.48320  0.04230  Biso   1.000  H
  H53      1.0000 0.62760  0.76680  0.54230  Biso   1.000  H
  H54      1.0000 0.62760  0.26680  0.04230  Biso   1.000  H
  H55      1.0000 0.12760  0.76680  0.04230  Biso   1.000  H
  H56      1.0000 0.12760  0.26680  0.54230  Biso   1.000  H
  H57      1.0000 0.62240  0.76680  0.70770  Biso   1.000  H
  H58      1.0000 0.62240  0.26680  0.20770  Biso   1.000  H
  H59      1.0000 0.12240  0.76680  0.20770  Biso   1.000  H
  H60      1.0000 0.12240  0.26680  0.70770  Biso   1.000  H
  H61      1.0000 0.12760  0.98320  0.70770  Biso   1.000  H
  H62      1.0000 0.12760  0.48320  0.20770  Biso   1.000  H
  H63      1.0000 0.62760  0.98320  0.20770  Biso   1.000  H
  H64      1.0000 0.62760  0.48320  0.70770  Biso   1.000  H
  H65      1.0000 0.37760  0.01680  0.95770  Biso   1.000  H
  H66      1.0000 0.37760  0.51680  0.45770  Biso   1.000  H
  H67      1.0000 0.87760  0.01680  0.45770  Biso   1.000  H
  H68      1.0000 0.87760  0.51680  0.95770  Biso   1.000  H
  H69      1.0000 0.87240  0.73320  0.45770  Biso   1.000  H
  H70      1.0000 0.87240  0.23320  0.95770  Biso   1.000  H
  H71      1.0000 0.37240  0.73320  0.95770  Biso   1.000  H
  H72      1.0000 0.37240  0.23320  0.45770  Biso   1.000  H
  H73      1.0000 0.37760  0.73320  0.79230  Biso   1.000  H
  H74      1.0000 0.37760  0.23320  0.29230  Biso   1.000  H
  H75      1.0000 0.87760  0.73320  0.29230  Biso   1.000  H
  H76      1.0000 0.87760  0.23320  0.79230  Biso   1.000  H
  H77      1.0000 0.37240  0.01680  0.79230  Biso   1.000  H
  H78      1.0000 0.37240  0.51680  0.29230  Biso   1.000  H
  H79      1.0000 0.87240  0.01680  0.29230  Biso   1.000  H
  H80      1.0000 0.87240  0.51680  0.79230  Biso   1.000  H
  H81      1.0000 0.62500  0.92910  0.12500  Biso   1.000  H
  H82      1.0000 0.62500  0.42910  0.62500  Biso   1.000  H
  H83      1.0000 0.12500  0.92910  0.62500  Biso   1.000  H
  H84      1.0000 0.12500  0.42910  0.12500  Biso   1.000  H
  H85      1.0000 0.62500  0.82090  0.62500  Biso   1.000  H
  H86      1.0000 0.62500  0.32090  0.12500  Biso   1.000  H
  H87      1.0000 0.12500  0.82090  0.12500  Biso   1.000  H
  H88      1.0000 0.12500  0.32090  0.62500  Biso   1.000  H
  H89      1.0000 0.37500  0.07090  0.87500  Biso   1.000  H
  H90      1.0000 0.37500  0.57090  0.37500  Biso   1.000  H
  H91      1.0000 0.87500  0.07090  0.37500  Biso   1.000  H
  H92      1.0000 0.87500  0.57090  0.87500  Biso   1.000  H
  H93      1.0000 0.87500  0.67910  0.37500  Biso   1.000  H
  H94      1.0000 0.87500  0.17910  0.87500  Biso   1.000  H
  H95      1.0000 0.37500  0.67910  0.87500  Biso   1.000  H
  H96      1.0000 0.37500  0.17910  0.37500  Biso   1.000  H
