data_image0
_cell_length_a       6.8551
_cell_length_b       18.892
_cell_length_c       10.716
_cell_angle_alpha    90
_cell_angle_beta     126.87
_cell_angle_gamma    90

_symmetry_space_group_name_H-M    "P 1"
_symmetry_int_tables_number       1

loop_
  _symmetry_equiv_pos_as_xyz
  'x, y, z'

loop_
  _atom_site_label
  _atom_site_occupancy
  _atom_site_fract_x
  _atom_site_fract_y
  _atom_site_fract_z
  _atom_site_thermal_displace_type
  _atom_site_B_iso_or_equiv
  _atom_site_type_symbol
  Cu1      1.0000 0.88938  0.72640  0.67913  Biso   1.000  Cu
  Cu2      1.0000 0.11062  0.22640  0.82087  Biso   1.000  Cu
  Cu3      1.0000 0.11062  0.27360  0.32087  Biso   1.000  Cu
  Cu4      1.0000 0.88938  0.77360  0.17913  Biso   1.000  Cu
  O1       1.0000 0.04510  0.87364  0.76710  Biso   1.000  O
  O2       1.0000 0.95490  0.37364  0.73290  Biso   1.000  O
  O3       1.0000 0.95490  0.12636  0.23290  Biso   1.000  O
  O4       1.0000 0.04510  0.62636  0.26710  Biso   1.000  O
  O5       1.0000 0.78790  0.81134  0.55390  Biso   1.000  O
  O6       1.0000 0.21210  0.31134  0.94610  Biso   1.000  O
  O7       1.0000 0.21210  0.18866  0.44610  Biso   1.000  O
  O8       1.0000 0.78790  0.68866  0.05390  Biso   1.000  O
  O9       1.0000 0.25130  0.91554  0.04860  Biso   1.000  O
  O10      1.0000 0.74870  0.41554  0.45140  Biso   1.000  O
  O11      1.0000 0.74870  0.08446  0.95140  Biso   1.000  O
  O12      1.0000 0.25130  0.58446  0.54860  Biso   1.000  O
  O13      1.0000 0.27130  0.02917  0.00540  Biso   1.000  O
  O14      1.0000 0.72870  0.52917  0.49460  Biso   1.000  O
  O15      1.0000 0.72870  0.97083  0.99460  Biso   1.000  O
  O16      1.0000 0.27130  0.47083  0.50540  Biso   1.000  O
  O17      1.0000 0.00690  0.13796  0.71110  Biso   1.000  O
  O18      1.0000 0.99310  0.63796  0.78890  Biso   1.000  O
  O19      1.0000 0.99310  0.86204  0.28890  Biso   1.000  O
  O20      1.0000 0.00690  0.36204  0.21110  Biso   1.000  O
  O21      1.0000 0.74130  0.18913  0.48070  Biso   1.000  O
  O22      1.0000 0.25870  0.68913  0.01930  Biso   1.000  O
  O23      1.0000 0.25870  0.81087  0.51930  Biso   1.000  O
  O24      1.0000 0.74130  0.31087  0.98070  Biso   1.000  O
  O25      1.0000 0.13640  0.71108  0.64100  Biso   1.000  O
  O26      1.0000 0.86360  0.21108  0.85900  Biso   1.000  O
  O27      1.0000 0.86360  0.28892  0.35900  Biso   1.000  O
  O28      1.0000 0.13640  0.78892  0.14100  Biso   1.000  O
  O29      1.0000 0.69210  0.75211  0.75180  Biso   1.000  O
  O30      1.0000 0.30790  0.25211  0.74820  Biso   1.000  O
  O31      1.0000 0.30790  0.24789  0.24820  Biso   1.000  O
  O32      1.0000 0.69210  0.74789  0.25180  Biso   1.000  O
  O33      1.0000 0.58400  0.67089  0.45990  Biso   1.000  O
  O34      1.0000 0.41600  0.17089  0.04010  Biso   1.000  O
  O35      1.0000 0.41600  0.32911  0.54010  Biso   1.000  O
  O36      1.0000 0.58400  0.82911  0.95990  Biso   1.000  O
  C1       1.0000 0.77750  0.93545  0.52540  Biso   1.000  C
  C2       1.0000 0.22250  0.43545  0.97460  Biso   1.000  C
  C3       1.0000 0.22250  0.06455  0.47460  Biso   1.000  C
  C4       1.0000 0.77750  0.56455  0.02540  Biso   1.000  C
  C5       1.0000 0.87900  0.86999  0.62440  Biso   1.000  C
  C6       1.0000 0.12100  0.36999  0.87560  Biso   1.000  C
  C7       1.0000 0.12100  0.13001  0.37560  Biso   1.000  C
  C8       1.0000 0.87900  0.63001  0.12440  Biso   1.000  C
  C9       1.0000 0.83750  0.13575  0.56560  Biso   1.000  C
  C10      1.0000 0.16250  0.63575  0.93440  Biso   1.000  C
  C11      1.0000 0.16250  0.86425  0.43440  Biso   1.000  C
  C12      1.0000 0.83750  0.36425  0.06560  Biso   1.000  C
  C13      1.0000 0.85090  0.00280  0.59120  Biso   1.000  C
  C14      1.0000 0.14910  0.50280  0.90880  Biso   1.000  C
  C15      1.0000 0.14910  0.99720  0.40880  Biso   1.000  C
  C16      1.0000 0.85090  0.49720  0.09120  Biso   1.000  C
  H1       1.0000 0.96420  0.00780  0.69860  Biso   1.000  H
  H2       1.0000 0.03580  0.50780  0.80140  Biso   1.000  H
  H3       1.0000 0.03580  0.99220  0.30140  Biso   1.000  H
  H4       1.0000 0.96420  0.49220  0.19860  Biso   1.000  H
  C17      1.0000 0.58410  0.05491  0.33570  Biso   1.000  C
  C18      1.0000 0.41590  0.55491  0.16430  Biso   1.000  C
  C19      1.0000 0.41590  0.94509  0.66430  Biso   1.000  C
  C20      1.0000 0.58410  0.44509  0.83570  Biso   1.000  C
  H5       1.0000 0.51910  0.09490  0.27260  Biso   1.000  H
  H6       1.0000 0.48090  0.59490  0.22740  Biso   1.000  H
  H7       1.0000 0.48090  0.90510  0.72740  Biso   1.000  H
  H8       1.0000 0.51910  0.40510  0.77260  Biso   1.000  H
  C21      1.0000 0.60770  0.92832  0.36480  Biso   1.000  C
  C22      1.0000 0.39230  0.42832  0.13520  Biso   1.000  C
  C23      1.0000 0.39230  0.07168  0.63520  Biso   1.000  C
  C24      1.0000 0.60770  0.57168  0.86480  Biso   1.000  C
  H9       1.0000 0.55870  0.88340  0.32080  Biso   1.000  H
  H10      1.0000 0.44130  0.38340  0.17920  Biso   1.000  H
  H11      1.0000 0.44130  0.11660  0.67920  Biso   1.000  H
  H12      1.0000 0.55870  0.61660  0.82080  Biso   1.000  H
  C25      1.0000 0.51010  0.98796  0.26880  Biso   1.000  C
  C26      1.0000 0.48990  0.48796  0.23120  Biso   1.000  C
  C27      1.0000 0.48990  0.01204  0.73120  Biso   1.000  C
  C28      1.0000 0.51010  0.51204  0.76880  Biso   1.000  C
  C29      1.0000 0.33480  0.98117  0.09590  Biso   1.000  C
  C30      1.0000 0.66520  0.48117  0.40410  Biso   1.000  C
  C31      1.0000 0.66520  0.01883  0.90410  Biso   1.000  C
  C32      1.0000 0.33480  0.51883  0.59590  Biso   1.000  C
  C33      1.0000 0.75460  0.06249  0.49620  Biso   1.000  C
  C34      1.0000 0.24540  0.56249  0.00380  Biso   1.000  C
  C35      1.0000 0.24540  0.93751  0.50380  Biso   1.000  C
  C36      1.0000 0.75460  0.43751  0.99620  Biso   1.000  C
  H13      1.0000 0.16700  0.91500  0.95150  Biso   1.000  H
  H14      1.0000 0.83300  0.41500  0.54850  Biso   1.000  H
  H15      1.0000 0.83300  0.08500  0.04850  Biso   1.000  H
  H16      1.0000 0.16700  0.58500  0.45150  Biso   1.000  H
  H17      1.0000 0.13200  0.73970  0.57900  Biso   1.000  H
  H18      1.0000 0.86800  0.23970  0.92100  Biso   1.000  H
  H19      1.0000 0.86800  0.26030  0.42100  Biso   1.000  H
  H20      1.0000 0.13200  0.76030  0.07900  Biso   1.000  H
  H21      1.0000 0.71500  0.74600  0.83600  Biso   1.000  H
  H22      1.0000 0.28500  0.24600  0.66400  Biso   1.000  H
  H23      1.0000 0.28500  0.25400  0.16400  Biso   1.000  H
  H24      1.0000 0.71500  0.75400  0.33600  Biso   1.000  H
  H25      1.0000 0.16600  0.66990  0.62800  Biso   1.000  H
  H26      1.0000 0.83400  0.16990  0.87200  Biso   1.000  H
  H27      1.0000 0.83400  0.33010  0.37200  Biso   1.000  H
  H28      1.0000 0.16600  0.83010  0.12800  Biso   1.000  H
  H29      1.0000 0.43900  0.67820  0.42400  Biso   1.000  H
  H30      1.0000 0.56100  0.17820  0.07600  Biso   1.000  H
  H31      1.0000 0.56100  0.32180  0.57600  Biso   1.000  H
  H32      1.0000 0.43900  0.82180  0.92400  Biso   1.000  H
  H33      1.0000 0.57500  0.77880  0.69100  Biso   1.000  H
  H34      1.0000 0.42500  0.27880  0.80900  Biso   1.000  H
  H35      1.0000 0.42500  0.22120  0.30900  Biso   1.000  H
  H36      1.0000 0.57500  0.72120  0.19100  Biso   1.000  H
  H37      1.0000 0.61900  0.62790  0.47500  Biso   1.000  H
  H38      1.0000 0.38100  0.12790  0.02500  Biso   1.000  H
  H39      1.0000 0.38100  0.37210  0.52500  Biso   1.000  H
  H40      1.0000 0.61900  0.87210  0.97500  Biso   1.000  H
