data_image0
_cell_length_a       8.57
_cell_length_b       18.855
_cell_length_c       6.845
_cell_angle_alpha    90
_cell_angle_beta     92.87
_cell_angle_gamma    90

_symmetry_space_group_name_H-M    "P 1"
_symmetry_int_tables_number       1

loop_
  _symmetry_equiv_pos_as_xyz
  'x, y, z'

loop_
  _atom_site_label
  _atom_site_occupancy
  _atom_site_fract_x
  _atom_site_fract_y
  _atom_site_fract_z
  _atom_site_thermal_displace_type
  _atom_site_B_iso_or_equiv
  _atom_site_type_symbol
  Cu1      1.0000 0.82080  0.27360  0.21000  Biso   1.000  Cu
  Cu2      1.0000 0.67920  0.77360  0.29000  Biso   1.000  Cu
  Cu3      1.0000 0.17920  0.72640  0.79000  Biso   1.000  Cu
  Cu4      1.0000 0.32080  0.22640  0.71000  Biso   1.000  Cu
  O1       1.0000 0.94620  0.18890  0.23390  Biso   1.000  O
  O2       1.0000 0.55380  0.68890  0.26610  Biso   1.000  O
  O3       1.0000 0.05380  0.81110  0.76610  Biso   1.000  O
  O4       1.0000 0.44620  0.31110  0.73390  Biso   1.000  O
  O5       1.0000 0.73310  0.12630  0.27840  Biso   1.000  O
  O6       1.0000 0.76690  0.62630  0.22160  Biso   1.000  O
  O7       1.0000 0.26690  0.87370  0.72160  Biso   1.000  O
  O8       1.0000 0.23310  0.37370  0.77840  Biso   1.000  O
  O9       1.0000 0.71090  0.36220  0.20360  Biso   1.000  O
  O10      1.0000 0.78910  0.86220  0.29640  Biso   1.000  O
  O11      1.0000 0.28910  0.63780  0.79640  Biso   1.000  O
  O12      1.0000 0.21090  0.13780  0.70360  Biso   1.000  O
  O13      1.0000 0.48020  0.31100  0.23910  Biso   1.000  O
  O14      1.0000 0.01980  0.81100  0.26090  Biso   1.000  O
  O15      1.0000 0.51980  0.68900  0.76090  Biso   1.000  O
  O16      1.0000 0.98020  0.18900  0.73910  Biso   1.000  O
  O17      1.0000 0.04840  0.58450  0.29680  Biso   1.000  O
  O18      1.0000 0.45160  0.08450  0.20320  Biso   1.000  O
  O19      1.0000 0.95160  0.41550  0.70320  Biso   1.000  O
  O20      1.0000 0.54840  0.91550  0.79680  Biso   1.000  O
  O21      1.0000 0.00500  0.47060  0.23380  Biso   1.000  O
  O22      1.0000 0.49500  0.97060  0.26620  Biso   1.000  O
  O23      1.0000 0.99500  0.52940  0.76620  Biso   1.000  O
  O24      1.0000 0.50500  0.02940  0.73380  Biso   1.000  O
  O25      1.0000 0.74870  0.24750  0.93990  Biso   1.000  O
  O26      1.0000 0.75130  0.74750  0.56010  Biso   1.000  O
  O27      1.0000 0.25130  0.75250  0.06010  Biso   1.000  O
  O28      1.0000 0.24870  0.25250  0.43990  Biso   1.000  O
  O29      1.0000 0.85900  0.28900  0.49560  Biso   1.000  O
  O30      1.0000 0.64100  0.78900  0.00440  Biso   1.000  O
  O31      1.0000 0.14100  0.71100  0.50440  Biso   1.000  O
  O32      1.0000 0.35900  0.21100  0.99560  Biso   1.000  O
  O33      1.0000 0.03990  0.32930  0.12290  Biso   1.000  O
  O34      1.0000 0.46010  0.82930  0.37710  Biso   1.000  O
  O35      1.0000 0.96010  0.67070  0.87710  Biso   1.000  O
  O36      1.0000 0.53990  0.17070  0.62290  Biso   1.000  O
  C1       1.0000 0.49650  0.43720  0.24230  Biso   1.000  C
  C2       1.0000 0.00350  0.93720  0.25770  Biso   1.000  C
  C3       1.0000 0.50350  0.56280  0.75770  Biso   1.000  C
  C4       1.0000 0.99650  0.06280  0.74230  Biso   1.000  C
  C5       1.0000 0.33580  0.44460  0.25190  Biso   1.000  C
  C6       1.0000 0.16420  0.94460  0.24810  Biso   1.000  C
  C7       1.0000 0.66420  0.55540  0.74810  Biso   1.000  C
  C8       1.0000 0.83580  0.05540  0.75190  Biso   1.000  C
  C9       1.0000 0.26940  0.51200  0.25880  Biso   1.000  C
  C10      1.0000 0.23060  0.01200  0.24120  Biso   1.000  C
  C11      1.0000 0.73060  0.48800  0.74120  Biso   1.000  C
  C12      1.0000 0.76940  0.98800  0.75880  Biso   1.000  C
  C13      1.0000 0.36460  0.57220  0.25710  Biso   1.000  C
  C14      1.0000 0.13540  0.07220  0.24290  Biso   1.000  C
  C15      1.0000 0.63540  0.42780  0.74290  Biso   1.000  C
  C16      1.0000 0.86460  0.92780  0.75710  Biso   1.000  C
  C17      1.0000 0.52610  0.56450  0.24890  Biso   1.000  C
  C18      1.0000 0.97390  0.06450  0.25110  Biso   1.000  C
  C19      1.0000 0.47390  0.43550  0.75110  Biso   1.000  C
  C20      1.0000 0.02610  0.93550  0.74890  Biso   1.000  C
  C21      1.0000 0.59210  0.49730  0.24070  Biso   1.000  C
  C22      1.0000 0.90790  0.99730  0.25930  Biso   1.000  C
  C23      1.0000 0.40790  0.50270  0.75930  Biso   1.000  C
  C24      1.0000 0.09210  0.00270  0.74070  Biso   1.000  C
  C25      1.0000 0.56650  0.36470  0.22780  Biso   1.000  C
  C26      1.0000 0.93350  0.86470  0.27220  Biso   1.000  C
  C27      1.0000 0.43350  0.63530  0.77220  Biso   1.000  C
  C28      1.0000 0.06650  0.13530  0.72780  Biso   1.000  C
  C29      1.0000 0.09550  0.51860  0.26110  Biso   1.000  C
  C30      1.0000 0.40450  0.01860  0.23890  Biso   1.000  C
  C31      1.0000 0.90450  0.48140  0.73890  Biso   1.000  C
  C32      1.0000 0.59550  0.98140  0.76110  Biso   1.000  C
  C33      1.0000 0.87540  0.12980  0.25370  Biso   1.000  C
  C34      1.0000 0.62460  0.62980  0.24630  Biso   1.000  C
  C35      1.0000 0.12460  0.87020  0.74630  Biso   1.000  C
  C36      1.0000 0.37540  0.37020  0.75370  Biso   1.000  C
  H1       1.0000 0.26220  0.39820  0.25400  Biso   1.000  H
  H2       1.0000 0.23780  0.89820  0.24600  Biso   1.000  H
  H3       1.0000 0.73780  0.60180  0.74600  Biso   1.000  H
  H4       1.0000 0.76220  0.10180  0.75400  Biso   1.000  H
  H5       1.0000 0.31340  0.62440  0.26220  Biso   1.000  H
  H6       1.0000 0.18660  0.12440  0.23780  Biso   1.000  H
  H7       1.0000 0.68660  0.37560  0.73780  Biso   1.000  H
  H8       1.0000 0.81340  0.87560  0.76220  Biso   1.000  H
  H9       1.0000 0.71700  0.49140  0.23290  Biso   1.000  H
  H10      1.0000 0.78300  0.99140  0.26710  Biso   1.000  H
  H11      1.0000 0.28300  0.50860  0.76710  Biso   1.000  H
  H12      1.0000 0.21700  0.00860  0.73290  Biso   1.000  H
  H13      1.0000 0.94620  0.58600  0.30510  Biso   1.000  H
  H14      1.0000 0.55380  0.08600  0.19490  Biso   1.000  H
  H15      1.0000 0.05380  0.41400  0.69490  Biso   1.000  H
  H16      1.0000 0.44620  0.91400  0.80510  Biso   1.000  H
  H17      1.0000 0.88960  0.33150  0.52850  Biso   1.000  H
  H18      1.0000 0.61040  0.83150  0.97150  Biso   1.000  H
  H19      1.0000 0.11040  0.66850  0.47150  Biso   1.000  H
  H20      1.0000 0.38960  0.16850  0.02850  Biso   1.000  H
  H21      1.0000 0.88620  0.25830  0.58840  Biso   1.000  H
  H22      1.0000 0.61380  0.75830  0.91160  Biso   1.000  H
  H23      1.0000 0.11380  0.74170  0.41160  Biso   1.000  H
  H24      1.0000 0.38620  0.24170  0.08840  Biso   1.000  H
  H25      1.0000 0.81800  0.22390  0.87290  Biso   1.000  H
  H26      1.0000 0.68200  0.72390  0.62710  Biso   1.000  H
  H27      1.0000 0.18200  0.77610  0.12710  Biso   1.000  H
  H28      1.0000 0.31800  0.27610  0.37290  Biso   1.000  H
  H29      1.0000 0.65730  0.25470  0.88380  Biso   1.000  H
  H30      1.0000 0.84270  0.75470  0.61620  Biso   1.000  H
  H31      1.0000 0.34270  0.74530  0.11620  Biso   1.000  H
  H32      1.0000 0.15730  0.24530  0.38380  Biso   1.000  H
  H33      1.0000 0.01470  0.37400  0.12600  Biso   1.000  H
  H34      1.0000 0.48530  0.87400  0.37400  Biso   1.000  H
  H35      1.0000 0.98530  0.62600  0.87400  Biso   1.000  H
  H36      1.0000 0.51470  0.12600  0.62600  Biso   1.000  H
  H37      1.0000 0.07840  0.31610  0.01610  Biso   1.000  H
  H38      1.0000 0.42160  0.81610  0.48390  Biso   1.000  H
  H39      1.0000 0.92160  0.68390  0.98390  Biso   1.000  H
  H40      1.0000 0.57840  0.18390  0.51610  Biso   1.000  H
