data_image0
_cell_length_a       6.7778
_cell_length_b       18.8206
_cell_length_c       8.5384
_cell_angle_alpha    90
_cell_angle_beta     92.471
_cell_angle_gamma    90

_symmetry_space_group_name_H-M    "P 1"
_symmetry_int_tables_number       1

loop_
  _symmetry_equiv_pos_as_xyz
  'x, y, z'

loop_
  _atom_site_label
  _atom_site_occupancy
  _atom_site_fract_x
  _atom_site_fract_y
  _atom_site_fract_z
  _atom_site_thermal_displace_type
  _atom_site_B_iso_or_equiv
  _atom_site_type_symbol
  Cu1      1.0000 0.28800  0.22570  0.67920  Biso   1.000  Cu
  Cu2      1.0000 0.21200  0.72570  0.82080  Biso   1.000  Cu
  Cu3      1.0000 0.71200  0.77430  0.32080  Biso   1.000  Cu
  Cu4      1.0000 0.78800  0.27430  0.17920  Biso   1.000  Cu
  O1       1.0000 0.21325  0.37290  0.76454  Biso   1.000  O
  O2       1.0000 0.28675  0.87290  0.73546  Biso   1.000  O
  O3       1.0000 0.78675  0.62710  0.23546  Biso   1.000  O
  O4       1.0000 0.71325  0.12710  0.26454  Biso   1.000  O
  O5       1.0000 0.26282  0.31014  0.55002  Biso   1.000  O
  O6       1.0000 0.23718  0.81014  0.94998  Biso   1.000  O
  O7       1.0000 0.73718  0.68986  0.44998  Biso   1.000  O
  O8       1.0000 0.76282  0.18986  0.05002  Biso   1.000  O
  O9       1.0000 0.20327  0.63714  0.70946  Biso   1.000  O
  O10      1.0000 0.29673  0.13714  0.79054  Biso   1.000  O
  O11      1.0000 0.79673  0.36286  0.29054  Biso   1.000  O
  O12      1.0000 0.70327  0.86286  0.20946  Biso   1.000  O
  O13      1.0000 0.24091  0.68863  0.47757  Biso   1.000  O
  O14      1.0000 0.25909  0.18863  0.02243  Biso   1.000  O
  O15      1.0000 0.75909  0.31137  0.52243  Biso   1.000  O
  O16      1.0000 0.74091  0.81137  0.97757  Biso   1.000  O
  O17      1.0000 0.30147  0.41493  0.04327  Biso   1.000  O
  O18      1.0000 0.19853  0.91493  0.45673  Biso   1.000  O
  O19      1.0000 0.69853  0.58507  0.95673  Biso   1.000  O
  O20      1.0000 0.80147  0.08507  0.54327  Biso   1.000  O
  O21      1.0000 0.23290  0.52871  0.00008  Biso   1.000  O
  O22      1.0000 0.26710  0.02871  0.49992  Biso   1.000  O
  O23      1.0000 0.76710  0.47129  0.99992  Biso   1.000  O
  O24      1.0000 0.73290  0.97129  0.50008  Biso   1.000  O
  O25      1.0000 0.55452  0.25524  0.75611  Biso   1.000  O
  O26      1.0000 0.94548  0.75524  0.74389  Biso   1.000  O
  O27      1.0000 0.44548  0.74476  0.24389  Biso   1.000  O
  O28      1.0000 0.05452  0.24476  0.25611  Biso   1.000  O
  O29      1.0000 0.37653  0.16942  0.46243  Biso   1.000  O
  O30      1.0000 0.12347  0.66942  0.03757  Biso   1.000  O
  O31      1.0000 0.62347  0.83058  0.53757  Biso   1.000  O
  O32      1.0000 0.87653  0.33058  0.96243  Biso   1.000  O
  O33      1.0000 0.99953  0.21053  0.64473  Biso   1.000  O
  O34      1.0000 0.50047  0.71053  0.85527  Biso   1.000  O
  O35      1.0000 0.00047  0.78947  0.35527  Biso   1.000  O
  O36      1.0000 0.49953  0.28947  0.14473  Biso   1.000  O
  C1       1.0000 0.24680  0.43450  0.52193  Biso   1.000  C
  C2       1.0000 0.25320  0.93450  0.97807  Biso   1.000  C
  C3       1.0000 0.75320  0.56550  0.47807  Biso   1.000  C
  C4       1.0000 0.74680  0.06550  0.02193  Biso   1.000  C
  C5       1.0000 0.23920  0.50185  0.58888  Biso   1.000  C
  C6       1.0000 0.26080  0.00185  0.91112  Biso   1.000  C
  C7       1.0000 0.76080  0.49815  0.41112  Biso   1.000  C
  C8       1.0000 0.73920  0.99815  0.08888  Biso   1.000  C
  C9       1.0000 0.24350  0.56206  0.49336  Biso   1.000  C
  C10      1.0000 0.25650  0.06206  0.00664  Biso   1.000  C
  C11      1.0000 0.75650  0.43794  0.50664  Biso   1.000  C
  C12      1.0000 0.74350  0.93794  0.99336  Biso   1.000  C
  C13      1.0000 0.25450  0.55462  0.33173  Biso   1.000  C
  C14      1.0000 0.24550  0.05462  0.16827  Biso   1.000  C
  C15      1.0000 0.74550  0.44538  0.66827  Biso   1.000  C
  C16      1.0000 0.75450  0.94538  0.83173  Biso   1.000  C
  C17      1.0000 0.26070  0.48730  0.26466  Biso   1.000  C
  C18      1.0000 0.23930  0.98730  0.23534  Biso   1.000  C
  C19      1.0000 0.73930  0.51270  0.73534  Biso   1.000  C
  C20      1.0000 0.76070  0.01270  0.76466  Biso   1.000  C
  C21      1.0000 0.25790  0.42732  0.35995  Biso   1.000  C
  C22      1.0000 0.24210  0.92732  0.14005  Biso   1.000  C
  C23      1.0000 0.74210  0.57268  0.64005  Biso   1.000  C
  C24      1.0000 0.75790  0.07268  0.85995  Biso   1.000  C
  C25      1.0000 0.24070  0.36894  0.62158  Biso   1.000  C
  C26      1.0000 0.25930  0.86894  0.87842  Biso   1.000  C
  C27      1.0000 0.75930  0.63106  0.37842  Biso   1.000  C
  C28      1.0000 0.74070  0.13106  0.12158  Biso   1.000  C
  C29      1.0000 0.22950  0.63497  0.56335  Biso   1.000  C
  C30      1.0000 0.27050  0.13497  0.93665  Biso   1.000  C
  C31      1.0000 0.77050  0.36503  0.43665  Biso   1.000  C
  C32      1.0000 0.72950  0.86503  0.06335  Biso   1.000  C
  C33      1.0000 0.26320  0.48045  0.09111  Biso   1.000  C
  C34      1.0000 0.23680  0.98045  0.40889  Biso   1.000  C
  C35      1.0000 0.73680  0.51955  0.90889  Biso   1.000  C
  C36      1.0000 0.76320  0.01955  0.59111  Biso   1.000  C
  H1       1.0000 0.22270  0.50620  0.69700  Biso   1.000  H
  H2       1.0000 0.27730  0.00620  0.80300  Biso   1.000  H
  H3       1.0000 0.77730  0.49380  0.30300  Biso   1.000  H
  H4       1.0000 0.72270  0.99380  0.19700  Biso   1.000  H
  H5       1.0000 0.25290  0.59560  0.26840  Biso   1.000  H
  H6       1.0000 0.24710  0.09560  0.23160  Biso   1.000  H
  H7       1.0000 0.74710  0.40440  0.73160  Biso   1.000  H
  H8       1.0000 0.75290  0.90440  0.76840  Biso   1.000  H
  H9       1.0000 0.28070  0.41340  0.94210  Biso   1.000  H
  H10      1.0000 0.21930  0.91340  0.55790  Biso   1.000  H
  H11      1.0000 0.71930  0.58660  0.05790  Biso   1.000  H
  H12      1.0000 0.78070  0.08660  0.44210  Biso   1.000  H
  H13      1.0000 0.26010  0.38090  0.31550  Biso   1.000  H
  H14      1.0000 0.23990  0.88090  0.18450  Biso   1.000  H
  H15      1.0000 0.73990  0.61910  0.68450  Biso   1.000  H
  H16      1.0000 0.76010  0.11910  0.81550  Biso   1.000  H
  H17      1.0000 0.62620  0.27780  0.69340  Biso   1.000  H
  H18      1.0000 0.87380  0.77780  0.80660  Biso   1.000  H
  H19      1.0000 0.37380  0.72220  0.30660  Biso   1.000  H
  H20      1.0000 0.12620  0.22220  0.19340  Biso   1.000  H
  H21      1.0000 0.62400  0.24510  0.83610  Biso   1.000  H
  H22      1.0000 0.87600  0.74510  0.66390  Biso   1.000  H
  H23      1.0000 0.37600  0.75490  0.16390  Biso   1.000  H
  H24      1.0000 0.12400  0.25490  0.33610  Biso   1.000  H
  H25      1.0000 0.48410  0.17310  0.41590  Biso   1.000  H
  H26      1.0000 0.01590  0.67310  0.08410  Biso   1.000  H
  H27      1.0000 0.51590  0.82690  0.58410  Biso   1.000  H
  H28      1.0000 0.98410  0.32690  0.91590  Biso   1.000  H
  H29      1.0000 0.36770  0.12420  0.47500  Biso   1.000  H
  H30      1.0000 0.13230  0.62420  0.02500  Biso   1.000  H
  H31      1.0000 0.63230  0.87580  0.52500  Biso   1.000  H
  H32      1.0000 0.86770  0.37580  0.97500  Biso   1.000  H
  H33      1.0000 0.92790  0.23880  0.58700  Biso   1.000  H
  H34      1.0000 0.57210  0.73880  0.91300  Biso   1.000  H
  H35      1.0000 0.07210  0.76120  0.41300  Biso   1.000  H
  H36      1.0000 0.42790  0.26120  0.08700  Biso   1.000  H
  H37      1.0000 0.96130  0.17030  0.61840  Biso   1.000  H
  H38      1.0000 0.53870  0.67030  0.88160  Biso   1.000  H
  H39      1.0000 0.03870  0.82970  0.38160  Biso   1.000  H
  H40      1.0000 0.46130  0.32970  0.11840  Biso   1.000  H
