data_image0
_cell_length_a       7.5422
_cell_length_b       9.3001
_cell_length_c       9.989
_cell_angle_alpha    64.194
_cell_angle_beta     79.405
_cell_angle_gamma    77

_symmetry_space_group_name_H-M    "P 1"
_symmetry_int_tables_number       1

loop_
  _symmetry_equiv_pos_as_xyz
  'x, y, z'

loop_
  _atom_site_label
  _atom_site_occupancy
  _atom_site_fract_x
  _atom_site_fract_y
  _atom_site_fract_z
  _atom_site_thermal_displace_type
  _atom_site_B_iso_or_equiv
  _atom_site_type_symbol
  Cu1      1.0000 0.50000  0.50000  0.50000  Biso   1.000  Cu
  O1       1.0000 0.42920  0.61750  0.62390  Biso   1.000  O
  O2       1.0000 0.57080  0.38250  0.37610  Biso   1.000  O
  O3       1.0000 0.24540  0.49360  0.50400  Biso   1.000  O
  O4       1.0000 0.75460  0.50640  0.49600  Biso   1.000  O
  H1       1.0000 0.19630  0.45630  0.46780  Biso   1.000  H
  H2       1.0000 0.80370  0.54370  0.53220  Biso   1.000  H
  H3       1.0000 0.18300  0.50870  0.53060  Biso   1.000  H
  H4       1.0000 0.81700  0.49130  0.46940  Biso   1.000  H
  O5       1.0000 0.42950  0.83380  0.40710  Biso   1.000  O
  O6       1.0000 0.57050  0.16620  0.59290  Biso   1.000  O
  O7       1.0000 0.71580  0.89390  0.95120  Biso   1.000  O
  O8       1.0000 0.28420  0.10610  0.04880  Biso   1.000  O
  N1       1.0000 0.33770  0.79170  0.78970  Biso   1.000  N
  N2       1.0000 0.66230  0.20830  0.21030  Biso   1.000  N
  C1       1.0000 0.40420  0.76830  0.54350  Biso   1.000  C
  C2       1.0000 0.59580  0.23170  0.45650  Biso   1.000  C
  C3       1.0000 0.32140  0.87650  0.62710  Biso   1.000  C
  C4       1.0000 0.67860  0.12350  0.37290  Biso   1.000  C
  H5       1.0000 0.38260  0.97020  0.58610  Biso   1.000  H
  H6       1.0000 0.61740  0.02980  0.41390  Biso   1.000  H
  H7       1.0000 0.19320  0.91480  0.61070  Biso   1.000  H
  H8       1.0000 0.80680  0.08520  0.38930  Biso   1.000  H
  C5       1.0000 0.21860  0.68980  0.87510  Biso   1.000  C
  C6       1.0000 0.78140  0.31020  0.12490  Biso   1.000  C
  H9       1.0000 0.12880  0.67460  0.83210  Biso   1.000  H
  H10      1.0000 0.87120  0.32540  0.16790  Biso   1.000  H
  C7       1.0000 0.23200  0.60950  0.02520  Biso   1.000  C
  C8       1.0000 0.76800  0.39050  0.97480  Biso   1.000  C
  H11      1.0000 0.15280  0.53730  0.08480  Biso   1.000  H
  H12      1.0000 0.84720  0.46270  0.91520  Biso   1.000  H
  C9       1.0000 0.36180  0.63510  0.08800  Biso   1.000  C
  C10      1.0000 0.63820  0.36490  0.91200  Biso   1.000  C
  H13      1.0000 0.36810  0.58190  0.19070  Biso   1.000  H
  H14      1.0000 0.63190  0.41810  0.80930  Biso   1.000  H
  C11      1.0000 0.48490  0.73990  0.00030  Biso   1.000  C
  C12      1.0000 0.51510  0.26010  0.99970  Biso   1.000  C
  C13      1.0000 0.46930  0.81710  0.84790  Biso   1.000  C
  C14      1.0000 0.53070  0.18290  0.15210  Biso   1.000  C
  H15      1.0000 0.55010  0.88670  0.78560  Biso   1.000  H
  H16      1.0000 0.44990  0.11330  0.21440  Biso   1.000  H
  C15      1.0000 0.62430  0.77370  0.06640  Biso   1.000  C
  C16      1.0000 0.37570  0.22630  0.93360  Biso   1.000  C
  H17      1.0000 0.56540  0.81100  0.14310  Biso   1.000  H
  H18      1.0000 0.43460  0.18900  0.85690  Biso   1.000  H
  H19      1.0000 0.71090  0.67590  0.11170  Biso   1.000  H
  H20      1.0000 0.28910  0.32410  0.88830  Biso   1.000  H
  C17      1.0000 0.85560  0.94120  0.98250  Biso   1.000  C
  C18      1.0000 0.14440  0.05880  0.01750  Biso   1.000  C
  C19      1.0000 0.90600  0.89390  0.12520  Biso   1.000  C
  C20      1.0000 0.09400  0.10610  0.87480  Biso   1.000  C
  H21      1.0000 0.84310  0.82390  0.20870  Biso   1.000  H
  H22      1.0000 0.15690  0.17610  0.79130  Biso   1.000  H
  C21      1.0000 0.95040  0.04800  0.85890  Biso   1.000  C
  C22      1.0000 0.04960  0.95200  0.14110  Biso   1.000  C
  H23      1.0000 0.91570  0.08050  0.76400  Biso   1.000  H
  H24      1.0000 0.08430  0.91950  0.23600  Biso   1.000  H
  Br1      1.0000 0.90889  0.71414  0.61132  Biso   1.000  Br
  Br2      1.0000 0.09111  0.28586  0.38868  Biso   1.000  Br
