data_image0
_cell_length_a       11.7915
_cell_length_b       13.1431
_cell_length_c       19.6019
_cell_angle_alpha    90
_cell_angle_beta     96.196
_cell_angle_gamma    90

_symmetry_space_group_name_H-M    "P 1"
_symmetry_int_tables_number       1

loop_
  _symmetry_equiv_pos_as_xyz
  'x, y, z'

loop_
  _atom_site_label
  _atom_site_occupancy
  _atom_site_fract_x
  _atom_site_fract_y
  _atom_site_fract_z
  _atom_site_thermal_displace_type
  _atom_site_B_iso_or_equiv
  _atom_site_type_symbol
  Gd1      1.0000 0.36959  0.43790  0.14822  Biso   1.000  Gd
  Gd2      1.0000 0.13041  0.93790  0.35178  Biso   1.000  Gd
  Gd3      1.0000 0.63041  0.56210  0.85178  Biso   1.000  Gd
  Gd4      1.0000 0.86959  0.06210  0.64822  Biso   1.000  Gd
  O1       1.0000 0.40830  0.27840  0.09820  Biso   1.000  O
  O2       1.0000 0.09170  0.77840  0.40180  Biso   1.000  O
  O3       1.0000 0.59170  0.72160  0.90180  Biso   1.000  O
  O4       1.0000 0.90830  0.22160  0.59820  Biso   1.000  O
  O5       1.0000 0.57070  0.40230  0.15120  Biso   1.000  O
  O6       1.0000 0.92930  0.90230  0.34880  Biso   1.000  O
  O7       1.0000 0.42930  0.59770  0.84880  Biso   1.000  O
  O8       1.0000 0.07070  0.09770  0.65120  Biso   1.000  O
  O9       1.0000 0.27340  0.31430  0.21300  Biso   1.000  O
  O10      1.0000 0.22660  0.81430  0.28700  Biso   1.000  O
  O11      1.0000 0.72660  0.68570  0.78700  Biso   1.000  O
  O12      1.0000 0.77340  0.18570  0.71300  Biso   1.000  O
  O13      1.0000 0.38740  0.50010  0.03290  Biso   1.000  O
  O14      1.0000 0.11260  0.00010  0.46710  Biso   1.000  O
  O15      1.0000 0.61260  0.49990  0.96710  Biso   1.000  O
  O16      1.0000 0.88740  0.99990  0.53290  Biso   1.000  O
  O17      1.0000 0.23030  0.55240  0.18450  Biso   1.000  O
  O18      1.0000 0.26970  0.05240  0.31550  Biso   1.000  O
  O19      1.0000 0.76970  0.44760  0.81550  Biso   1.000  O
  O20      1.0000 0.73030  0.94760  0.68450  Biso   1.000  O
  O21      1.0000 0.45910  0.60650  0.16030  Biso   1.000  O
  O22      1.0000 0.04090  0.10650  0.33970  Biso   1.000  O
  O23      1.0000 0.54090  0.39350  0.83970  Biso   1.000  O
  O24      1.0000 0.95910  0.89350  0.66030  Biso   1.000  O
  O25      1.0000 0.19920  0.39280  0.08045  Biso   1.000  O
  O26      1.0000 0.30080  0.89280  0.41955  Biso   1.000  O
  O27      1.0000 0.80080  0.60720  0.91955  Biso   1.000  O
  O28      1.0000 0.69920  0.10720  0.58045  Biso   1.000  O
  O29      1.0000 0.43370  0.45300  0.26270  Biso   1.000  O
  O30      1.0000 0.06630  0.95300  0.23730  Biso   1.000  O
  O31      1.0000 0.56630  0.54700  0.73730  Biso   1.000  O
  O32      1.0000 0.93370  0.04700  0.76270  Biso   1.000  O
  C1       1.0000 0.66660  0.44460  0.15510  Biso   1.000  C
  C2       1.0000 0.83340  0.94460  0.34490  Biso   1.000  C
  C3       1.0000 0.33340  0.55540  0.84490  Biso   1.000  C
  C4       1.0000 0.16660  0.05540  0.65510  Biso   1.000  C
  C5       1.0000 0.15790  0.37950  0.01910  Biso   1.000  C
  C6       1.0000 0.34210  0.87950  0.48090  Biso   1.000  C
  C7       1.0000 0.84210  0.62050  0.98090  Biso   1.000  C
  C8       1.0000 0.65790  0.12050  0.51910  Biso   1.000  C
  O33      1.0000 0.68210  0.53940  0.15410  Biso   1.000  O
  O34      1.0000 0.81790  0.03940  0.34590  Biso   1.000  O
  O35      1.0000 0.31790  0.46060  0.84590  Biso   1.000  O
  O36      1.0000 0.18210  0.96060  0.65410  Biso   1.000  O
  C9       1.0000 0.77190  0.37900  0.16460  Biso   1.000  C
  C10      1.0000 0.72810  0.87900  0.33540  Biso   1.000  C
  C11      1.0000 0.22810  0.62100  0.83540  Biso   1.000  C
  C12      1.0000 0.27190  0.12100  0.66460  Biso   1.000  C
  O37      1.0000 0.19020  0.42300  0.96770  Biso   1.000  O
  O38      1.0000 0.30980  0.92300  0.53230  Biso   1.000  O
  O39      1.0000 0.80980  0.57700  0.03230  Biso   1.000  O
  O40      1.0000 0.69020  0.07700  0.46770  Biso   1.000  O
  C13      1.0000 0.05420  0.31020  0.00980  Biso   1.000  C
  C14      1.0000 0.44580  0.81020  0.49020  Biso   1.000  C
  C15      1.0000 0.94580  0.68980  0.99020  Biso   1.000  C
  C16      1.0000 0.55420  0.18980  0.50980  Biso   1.000  C
  Cu1      1.0000 0.84024  0.58384  0.15656  Biso   1.000  Cu
  Cu2      1.0000 0.65976  0.08384  0.34344  Biso   1.000  Cu
  Cu3      1.0000 0.15976  0.41616  0.84344  Biso   1.000  Cu
  Cu4      1.0000 0.34024  0.91616  0.65656  Biso   1.000  Cu
  N1       1.0000 0.86830  0.43660  0.17230  Biso   1.000  N
  N2       1.0000 0.63170  0.93660  0.32770  Biso   1.000  N
  N3       1.0000 0.13170  0.56340  0.82770  Biso   1.000  N
  N4       1.0000 0.36830  0.06340  0.67230  Biso   1.000  N
  C17      1.0000 0.77320  0.27480  0.16880  Biso   1.000  C
  C18      1.0000 0.72680  0.77480  0.33120  Biso   1.000  C
  C19      1.0000 0.22680  0.72520  0.83120  Biso   1.000  C
  C20      1.0000 0.27320  0.22520  0.66880  Biso   1.000  C
  C21      1.0000 0.06010  0.20510  0.00710  Biso   1.000  C
  C22      1.0000 0.43990  0.70510  0.49290  Biso   1.000  C
  C23      1.0000 0.93990  0.79490  0.99290  Biso   1.000  C
  C24      1.0000 0.56010  0.29490  0.50710  Biso   1.000  C
  C25      1.0000 0.94570  0.35440  0.00690  Biso   1.000  C
  C26      1.0000 0.55430  0.85440  0.49310  Biso   1.000  C
  C27      1.0000 0.05430  0.64560  0.99310  Biso   1.000  C
  C28      1.0000 0.44570  0.14560  0.50690  Biso   1.000  C
  N5       1.0000 0.80980  0.73110  0.15350  Biso   1.000  N
  N6       1.0000 0.69020  0.23110  0.34650  Biso   1.000  N
  N7       1.0000 0.19020  0.26890  0.84650  Biso   1.000  N
  N8       1.0000 0.30980  0.76890  0.65350  Biso   1.000  N
  O41      1.0000 0.99860  0.62650  0.16166  Biso   1.000  O
  O42      1.0000 0.50140  0.12650  0.33834  Biso   1.000  O
  O43      1.0000 0.00140  0.37350  0.83834  Biso   1.000  O
  O44      1.0000 0.49860  0.87350  0.66166  Biso   1.000  O
  C29      1.0000 0.96990  0.39070  0.18650  Biso   1.000  C
  C30      1.0000 0.53010  0.89070  0.31350  Biso   1.000  C
  C31      1.0000 0.03010  0.60930  0.81350  Biso   1.000  C
  C32      1.0000 0.46990  0.10930  0.68650  Biso   1.000  C
  C33      1.0000 0.67030  0.20410  0.15420  Biso   1.000  C
  C34      1.0000 0.82970  0.70410  0.34580  Biso   1.000  C
  C35      1.0000 0.32970  0.79590  0.84580  Biso   1.000  C
  C36      1.0000 0.17030  0.29590  0.65420  Biso   1.000  C
  C37      1.0000 0.88110  0.23000  0.18560  Biso   1.000  C
  C38      1.0000 0.61890  0.73000  0.31440  Biso   1.000  C
  C39      1.0000 0.11890  0.77000  0.81440  Biso   1.000  C
  C40      1.0000 0.38110  0.27000  0.68560  Biso   1.000  C
  N9       1.0000 0.96420  0.14610  0.00180  Biso   1.000  N
  N10      1.0000 0.53580  0.64610  0.49820  Biso   1.000  N
  N11      1.0000 0.03580  0.85390  0.99820  Biso   1.000  N
  N12      1.0000 0.46420  0.35390  0.50180  Biso   1.000  N
  C41      1.0000 0.16960  0.14420  0.00660  Biso   1.000  C
  C42      1.0000 0.33040  0.64420  0.49340  Biso   1.000  C
  C43      1.0000 0.83040  0.85580  0.99340  Biso   1.000  C
  C44      1.0000 0.66960  0.35580  0.50660  Biso   1.000  C
  C45      1.0000 0.84990  0.29450  0.00150  Biso   1.000  C
  C46      1.0000 0.65010  0.79450  0.49850  Biso   1.000  C
  C47      1.0000 0.15010  0.70550  0.99850  Biso   1.000  C
  C48      1.0000 0.34990  0.20550  0.50150  Biso   1.000  C
  H1       1.0000 0.93860  0.42480  0.00860  Biso   1.000  H
  H2       1.0000 0.56140  0.92480  0.49140  Biso   1.000  H
  H3       1.0000 0.06140  0.57520  0.99140  Biso   1.000  H
  H4       1.0000 0.43860  0.07520  0.50860  Biso   1.000  H
  C49      1.0000 0.90630  0.78640  0.16200  Biso   1.000  C
  C50      1.0000 0.59370  0.28640  0.33800  Biso   1.000  C
  C51      1.0000 0.09370  0.21360  0.83800  Biso   1.000  C
  C52      1.0000 0.40630  0.71360  0.66200  Biso   1.000  C
  C53      1.0000 0.70930  0.77870  0.14850  Biso   1.000  C
  C54      1.0000 0.79070  0.27870  0.35150  Biso   1.000  C
  C55      1.0000 0.29070  0.22130  0.85150  Biso   1.000  C
  C56      1.0000 0.20930  0.72130  0.64850  Biso   1.000  C
  C57      1.0000 0.01410  0.72220  0.16240  Biso   1.000  C
  C58      1.0000 0.48590  0.22220  0.33760  Biso   1.000  C
  C59      1.0000 0.98590  0.27780  0.83760  Biso   1.000  C
  C60      1.0000 0.51410  0.77780  0.66240  Biso   1.000  C
  C61      1.0000 0.97770  0.28760  0.19380  Biso   1.000  C
  C62      1.0000 0.52230  0.78760  0.30620  Biso   1.000  C
  C63      1.0000 0.02230  0.71240  0.80620  Biso   1.000  C
  C64      1.0000 0.47770  0.21240  0.69380  Biso   1.000  C
  H5       1.0000 0.03600  0.42980  0.19150  Biso   1.000  H
  H6       1.0000 0.46400  0.92980  0.30850  Biso   1.000  H
  H7       1.0000 0.96400  0.57020  0.80850  Biso   1.000  H
  H8       1.0000 0.53600  0.07020  0.69150  Biso   1.000  H
  O45      1.0000 0.62630  0.20300  0.09340  Biso   1.000  O
  O46      1.0000 0.87370  0.70300  0.40660  Biso   1.000  O
  O47      1.0000 0.37370  0.79700  0.90660  Biso   1.000  O
  O48      1.0000 0.12630  0.29700  0.59340  Biso   1.000  O
  O49      1.0000 0.64360  0.15040  0.20190  Biso   1.000  O
  O50      1.0000 0.85640  0.65040  0.29810  Biso   1.000  O
  O51      1.0000 0.35640  0.84960  0.79810  Biso   1.000  O
  O52      1.0000 0.14360  0.34960  0.70190  Biso   1.000  O
  H9       1.0000 0.88650  0.15990  0.19130  Biso   1.000  H
  H10      1.0000 0.61350  0.65990  0.30870  Biso   1.000  H
  H11      1.0000 0.11350  0.84010  0.80870  Biso   1.000  H
  H12      1.0000 0.38650  0.34010  0.69130  Biso   1.000  H
  C65      1.0000 0.86300  0.19130  0.99980  Biso   1.000  C
  C66      1.0000 0.63700  0.69130  0.50020  Biso   1.000  C
  C67      1.0000 0.13700  0.80870  0.00020  Biso   1.000  C
  C68      1.0000 0.36300  0.30870  0.49980  Biso   1.000  C
  Cu5      1.0000 0.00000  0.00000  0.00000  Biso   1.000  Cu
  Cu6      1.0000 0.50000  0.50000  0.50000  Biso   1.000  Cu
  O53      1.0000 0.15660  0.04820  0.00300  Biso   1.000  O
  O54      1.0000 0.34340  0.54820  0.49700  Biso   1.000  O
  O55      1.0000 0.84340  0.95180  0.99700  Biso   1.000  O
  O56      1.0000 0.65660  0.45180  0.50300  Biso   1.000  O
  O57      1.0000 0.26150  0.18960  0.00711  Biso   1.000  O
  O58      1.0000 0.23850  0.68960  0.49289  Biso   1.000  O
  O59      1.0000 0.73850  0.81040  0.99289  Biso   1.000  O
  O60      1.0000 0.76150  0.31040  0.50711  Biso   1.000  O
  H13      1.0000 0.77760  0.32360  0.99900  Biso   1.000  H
  H14      1.0000 0.72240  0.82360  0.50100  Biso   1.000  H
  H15      1.0000 0.22240  0.67640  0.00100  Biso   1.000  H
  H16      1.0000 0.27760  0.17640  0.49900  Biso   1.000  H
  C69      1.0000 0.90590  0.89010  0.16740  Biso   1.000  C
  C70      1.0000 0.59410  0.39010  0.33260  Biso   1.000  C
  C71      1.0000 0.09410  0.10990  0.83260  Biso   1.000  C
  C72      1.0000 0.40590  0.60990  0.66740  Biso   1.000  C
  C73      1.0000 0.70030  0.88060  0.15230  Biso   1.000  C
  C74      1.0000 0.79970  0.38060  0.34770  Biso   1.000  C
  C75      1.0000 0.29970  0.11940  0.84770  Biso   1.000  C
  C76      1.0000 0.20030  0.61940  0.65230  Biso   1.000  C
  H17      1.0000 0.64290  0.74000  0.14210  Biso   1.000  H
  H18      1.0000 0.85710  0.24000  0.35790  Biso   1.000  H
  H19      1.0000 0.35710  0.26000  0.85790  Biso   1.000  H
  H20      1.0000 0.14290  0.76000  0.64210  Biso   1.000  H
  O61      1.0000 0.10690  0.76500  0.16163  Biso   1.000  O
  O62      1.0000 0.39310  0.26500  0.33837  Biso   1.000  O
  O63      1.0000 0.89310  0.23500  0.83837  Biso   1.000  O
  O64      1.0000 0.60690  0.73500  0.66163  Biso   1.000  O
  H21      1.0000 0.04850  0.25680  0.20420  Biso   1.000  H
  H22      1.0000 0.45150  0.75680  0.29580  Biso   1.000  H
  H23      1.0000 0.95150  0.74320  0.79580  Biso   1.000  H
  H24      1.0000 0.54850  0.24320  0.70420  Biso   1.000  H
  H25      1.0000 0.79810  0.15070  0.99720  Biso   1.000  H
  H26      1.0000 0.70190  0.65070  0.50280  Biso   1.000  H
  H27      1.0000 0.20190  0.84930  0.00280  Biso   1.000  H
  H28      1.0000 0.29810  0.34930  0.49720  Biso   1.000  H
  O65      1.0000 0.96400  0.98930  0.86944  Biso   1.000  O
  O66      1.0000 0.53600  0.48930  0.63056  Biso   1.000  O
  O67      1.0000 0.03600  0.01070  0.13056  Biso   1.000  O
  O68      1.0000 0.46400  0.51070  0.36944  Biso   1.000  O
  C77      1.0000 0.79830  0.93890  0.16160  Biso   1.000  C
  C78      1.0000 0.70170  0.43890  0.33840  Biso   1.000  C
  C79      1.0000 0.20170  0.06110  0.83840  Biso   1.000  C
  C80      1.0000 0.29830  0.56110  0.66160  Biso   1.000  C
  C81      1.0000 0.01290  0.95680  0.17830  Biso   1.000  C
  C82      1.0000 0.48710  0.45680  0.32170  Biso   1.000  C
  C83      1.0000 0.98710  0.04320  0.82170  Biso   1.000  C
  C84      1.0000 0.51290  0.54320  0.67830  Biso   1.000  C
  H29      1.0000 0.62900  0.91150  0.14880  Biso   1.000  H
  H30      1.0000 0.87100  0.41150  0.35120  Biso   1.000  H
  H31      1.0000 0.37100  0.08850  0.85120  Biso   1.000  H
  H32      1.0000 0.12900  0.58850  0.64880  Biso   1.000  H
  H33      1.0000 0.79350  0.00940  0.16400  Biso   1.000  H
  H34      1.0000 0.70650  0.50940  0.33600  Biso   1.000  H
  H35      1.0000 0.20650  0.99060  0.83600  Biso   1.000  H
  H36      1.0000 0.29350  0.49060  0.66400  Biso   1.000  H
  O69      1.0000 0.23510  0.11390  0.18050  Biso   1.000  O
  O70      1.0000 0.26490  0.61390  0.31950  Biso   1.000  O
  O71      1.0000 0.76490  0.88610  0.81950  Biso   1.000  O
  O72      1.0000 0.73510  0.38610  0.68050  Biso   1.000  O
  O73      1.0000 0.35440  0.79460  0.14140  Biso   1.000  O
  O74      1.0000 0.14560  0.29460  0.35860  Biso   1.000  O
  O75      1.0000 0.64560  0.20540  0.85860  Biso   1.000  O
  O76      1.0000 0.85440  0.70540  0.64140  Biso   1.000  O
  O77      1.0000 0.44950  0.71220  0.02790  Biso   1.000  O
  O78      1.0000 0.05050  0.21220  0.47210  Biso   1.000  O
  O79      1.0000 0.55050  0.28780  0.97210  Biso   1.000  O
  O80      1.0000 0.94950  0.78780  0.52790  Biso   1.000  O
  O81      1.0000 0.44610  0.02690  0.15520  Biso   1.000  O
  O82      1.0000 0.05390  0.52690  0.34480  Biso   1.000  O
  O83      1.0000 0.55390  0.97310  0.84480  Biso   1.000  O
  O84      1.0000 0.94610  0.47310  0.65520  Biso   1.000  O
  O85      1.0000 0.60890  0.02850  0.98270  Biso   1.000  O
  O86      1.0000 0.89110  0.52850  0.51730  Biso   1.000  O
  O87      1.0000 0.39110  0.97150  0.01730  Biso   1.000  O
  O88      1.0000 0.10890  0.47150  0.48270  Biso   1.000  O
