data_image0
_cell_length_a       7.0867
_cell_length_b       9.4514
_cell_length_c       13.8277
_cell_angle_alpha    90
_cell_angle_beta     96.993
_cell_angle_gamma    90

_symmetry_space_group_name_H-M    "P 1"
_symmetry_int_tables_number       1

loop_
  _symmetry_equiv_pos_as_xyz
  'x, y, z'

loop_
  _atom_site_label
  _atom_site_occupancy
  _atom_site_fract_x
  _atom_site_fract_y
  _atom_site_fract_z
  _atom_site_thermal_displace_type
  _atom_site_B_iso_or_equiv
  _atom_site_type_symbol
  Cu1      1.0000 0.45912  0.27151  0.81591  Biso   1.000  Cu
  Cu2      1.0000 0.54088  0.77151  0.68409  Biso   1.000  Cu
  Cu3      1.0000 0.54088  0.72849  0.18409  Biso   1.000  Cu
  Cu4      1.0000 0.45912  0.22849  0.31591  Biso   1.000  Cu
  O1       1.0000 0.57597  0.22579  0.69824  Biso   1.000  O
  O2       1.0000 0.42403  0.72579  0.80176  Biso   1.000  O
  O3       1.0000 0.42403  0.77421  0.30176  Biso   1.000  O
  O4       1.0000 0.57597  0.27421  0.19824  Biso   1.000  O
  O5       1.0000 0.51143  0.00187  0.73108  Biso   1.000  O
  O6       1.0000 0.48857  0.50187  0.76892  Biso   1.000  O
  O7       1.0000 0.48857  0.99813  0.26892  Biso   1.000  O
  O8       1.0000 0.51143  0.49813  0.23108  Biso   1.000  O
  O9       1.0000 0.35036  0.33218  0.93095  Biso   1.000  O
  O10      1.0000 0.64964  0.83218  0.56905  Biso   1.000  O
  O11      1.0000 0.64964  0.66782  0.06905  Biso   1.000  O
  O12      1.0000 0.35036  0.16782  0.43095  Biso   1.000  O
  O13      1.0000 0.35322  0.12659  0.01174  Biso   1.000  O
  O14      1.0000 0.64678  0.62659  0.48826  Biso   1.000  O
  O15      1.0000 0.64678  0.87341  0.98826  Biso   1.000  O
  O16      1.0000 0.35322  0.37341  0.51174  Biso   1.000  O
  O17      1.0000 0.20493  0.27526  0.73715  Biso   1.000  O
  O18      1.0000 0.79507  0.77526  0.76285  Biso   1.000  O
  O19      1.0000 0.79507  0.72474  0.26285  Biso   1.000  O
  O20      1.0000 0.20493  0.22474  0.23715  Biso   1.000  O
  O21      1.0000 0.10223  0.08245  0.80815  Biso   1.000  O
  O22      1.0000 0.89777  0.58245  0.69185  Biso   1.000  O
  O23      1.0000 0.89777  0.91755  0.19185  Biso   1.000  O
  O24      1.0000 0.10223  0.41755  0.30815  Biso   1.000  O
  O25      1.0000 0.69090  0.19371  0.89177  Biso   1.000  O
  O26      1.0000 0.30910  0.69371  0.60823  Biso   1.000  O
  O27      1.0000 0.30910  0.80629  0.10823  Biso   1.000  O
  O28      1.0000 0.69090  0.30629  0.39177  Biso   1.000  O
  O29      1.0000 0.88384  0.16723  0.02695  Biso   1.000  O
  O30      1.0000 0.11616  0.66723  0.47305  Biso   1.000  O
  O31      1.0000 0.11616  0.83277  0.97305  Biso   1.000  O
  O32      1.0000 0.88384  0.33277  0.52695  Biso   1.000  O
  C1       1.0000 0.57681  0.09481  0.68162  Biso   1.000  C
  C2       1.0000 0.42319  0.59481  0.81838  Biso   1.000  C
  C3       1.0000 0.42319  0.90519  0.31838  Biso   1.000  C
  C4       1.0000 0.57681  0.40519  0.18162  Biso   1.000  C
  C5       1.0000 0.31543  0.25354  0.00014  Biso   1.000  C
  C6       1.0000 0.68457  0.75354  0.49986  Biso   1.000  C
  C7       1.0000 0.68457  0.74646  0.99986  Biso   1.000  C
  C8       1.0000 0.31543  0.24646  0.50014  Biso   1.000  C
  C9       1.0000 0.08125  0.18544  0.75337  Biso   1.000  C
  C10      1.0000 0.91875  0.68544  0.74663  Biso   1.000  C
  C11      1.0000 0.91875  0.81456  0.24663  Biso   1.000  C
  C12      1.0000 0.08125  0.31456  0.25337  Biso   1.000  C
  C13      1.0000 0.78898  0.24076  0.96580  Biso   1.000  C
  C14      1.0000 0.21102  0.74076  0.53420  Biso   1.000  C
  C15      1.0000 0.21102  0.75924  0.03420  Biso   1.000  C
  C16      1.0000 0.78898  0.25924  0.46580  Biso   1.000  C
  H1       1.0000 0.63100  0.07000  0.63130  Biso   1.000  H
  H2       1.0000 0.36900  0.57000  0.86870  Biso   1.000  H
  H3       1.0000 0.36900  0.93000  0.36870  Biso   1.000  H
  H4       1.0000 0.63100  0.43000  0.13130  Biso   1.000  H
  H5       1.0000 0.25500  0.30300  0.04970  Biso   1.000  H
  H6       1.0000 0.74500  0.80300  0.45030  Biso   1.000  H
  H7       1.0000 0.74500  0.69700  0.95030  Biso   1.000  H
  H8       1.0000 0.25500  0.19700  0.54970  Biso   1.000  H
  H9       1.0000 0.96500  0.20100  0.72020  Biso   1.000  H
  H10      1.0000 0.03500  0.70100  0.77980  Biso   1.000  H
  H11      1.0000 0.03500  0.79900  0.27980  Biso   1.000  H
  H12      1.0000 0.96500  0.29900  0.22020  Biso   1.000  H
  H13      1.0000 0.76700  0.33000  0.97900  Biso   1.000  H
  H14      1.0000 0.23300  0.83000  0.52100  Biso   1.000  H
  H15      1.0000 0.23300  0.67000  0.02100  Biso   1.000  H
  H16      1.0000 0.76700  0.17000  0.47900  Biso   1.000  H
  Na1      1.0000 0.86246  0.53549  0.38067  Biso   1.000  Na
  Na2      1.0000 0.13754  0.03549  0.11933  Biso   1.000  Na
  Na3      1.0000 0.13754  0.46451  0.61933  Biso   1.000  Na
  Na4      1.0000 0.86246  0.96451  0.88067  Biso   1.000  Na
  Na5      1.0000 0.36454  0.95156  0.88281  Biso   1.000  Na
  Na6      1.0000 0.63546  0.45156  0.61719  Biso   1.000  Na
  Na7      1.0000 0.63546  0.04844  0.11719  Biso   1.000  Na
  Na8      1.0000 0.36454  0.54844  0.38281  Biso   1.000  Na
  C17      1.0000 0.85180  0.39420  0.95280  Biso   1.000  C
  C18      1.0000 0.14820  0.89420  0.54720  Biso   1.000  C
  C19      1.0000 0.14820  0.60580  0.04720  Biso   1.000  C
  C20      1.0000 0.85180  0.10580  0.45280  Biso   1.000  C
  H17      1.0000 0.93368  0.39690  0.89758  Biso   1.000  H
  H18      1.0000 0.06632  0.89690  0.60242  Biso   1.000  H
  H19      1.0000 0.06632  0.60310  0.10242  Biso   1.000  H
  H20      1.0000 0.93368  0.10310  0.39758  Biso   1.000  H
  H21      1.0000 0.74138  0.45572  0.93813  Biso   1.000  H
  H22      1.0000 0.25862  0.95572  0.56187  Biso   1.000  H
  H23      1.0000 0.25862  0.54428  0.06187  Biso   1.000  H
  H24      1.0000 0.74138  0.04428  0.43813  Biso   1.000  H
  H25      1.0000 0.93446  0.43249  0.01245  Biso   1.000  H
  H26      1.0000 0.06554  0.93249  0.48755  Biso   1.000  H
  H27      1.0000 0.06554  0.56751  0.98755  Biso   1.000  H
  H28      1.0000 0.93446  0.06751  0.51245  Biso   1.000  H
