data_image0
_cell_length_a       8.293
_cell_length_b       17.278
_cell_length_c       14.975
_cell_angle_alpha    90
_cell_angle_beta     95.054
_cell_angle_gamma    90

_symmetry_space_group_name_H-M    "P 1"
_symmetry_int_tables_number       1

loop_
  _symmetry_equiv_pos_as_xyz
  'x, y, z'

loop_
  _atom_site_label
  _atom_site_occupancy
  _atom_site_fract_x
  _atom_site_fract_y
  _atom_site_fract_z
  _atom_site_thermal_displace_type
  _atom_site_B_iso_or_equiv
  _atom_site_type_symbol
  Cu1      1.0000 0.83045  0.87071  0.75512  Biso   1.000  Cu
  Cu2      1.0000 0.33045  0.62929  0.25512  Biso   1.000  Cu
  Cu3      1.0000 0.16955  0.12929  0.24488  Biso   1.000  Cu
  Cu4      1.0000 0.66955  0.37071  0.74488  Biso   1.000  Cu
  N1       1.0000 0.70320  0.89530  0.62050  Biso   1.000  N
  N2       1.0000 0.20320  0.60470  0.12050  Biso   1.000  N
  N3       1.0000 0.29680  0.10470  0.37950  Biso   1.000  N
  N4       1.0000 0.79680  0.39530  0.87950  Biso   1.000  N
  N5       1.0000 0.64510  0.79450  0.76520  Biso   1.000  N
  N6       1.0000 0.14510  0.70550  0.26520  Biso   1.000  N
  N7       1.0000 0.35490  0.20550  0.23480  Biso   1.000  N
  N8       1.0000 0.85490  0.29450  0.73480  Biso   1.000  N
  N9       1.0000 0.66890  0.95020  0.79820  Biso   1.000  N
  N10      1.0000 0.16890  0.54980  0.29820  Biso   1.000  N
  N11      1.0000 0.33110  0.04980  0.20180  Biso   1.000  N
  N12      1.0000 0.83110  0.45020  0.70180  Biso   1.000  N
  N13      1.0000 0.99190  0.78240  0.75220  Biso   1.000  N
  N14      1.0000 0.49190  0.71760  0.25220  Biso   1.000  N
  N15      1.0000 0.00810  0.21760  0.24780  Biso   1.000  N
  N16      1.0000 0.50810  0.28240  0.74780  Biso   1.000  N
  N17      1.0000 0.49260  0.45110  0.73990  Biso   1.000  N
  N18      1.0000 0.99260  0.04890  0.23990  Biso   1.000  N
  N19      1.0000 0.50740  0.54890  0.26010  Biso   1.000  N
  N20      1.0000 0.00740  0.95110  0.76010  Biso   1.000  N
  C1       1.0000 0.62110  0.82050  0.59940  Biso   1.000  C
  C2       1.0000 0.12110  0.67950  0.09940  Biso   1.000  C
  C3       1.0000 0.37890  0.17950  0.40060  Biso   1.000  C
  C4       1.0000 0.87890  0.32050  0.90060  Biso   1.000  C
  H1       1.0000 0.69960  0.78310  0.58180  Biso   1.000  H
  H2       1.0000 0.19960  0.71690  0.08180  Biso   1.000  H
  H3       1.0000 0.30040  0.21690  0.41820  Biso   1.000  H
  H4       1.0000 0.80040  0.28310  0.91820  Biso   1.000  H
  H5       1.0000 0.54000  0.82740  0.54930  Biso   1.000  H
  H6       1.0000 0.04000  0.67260  0.04930  Biso   1.000  H
  H7       1.0000 0.46000  0.17260  0.45070  Biso   1.000  H
  H8       1.0000 0.96000  0.32740  0.95070  Biso   1.000  H
  C5       1.0000 0.54080  0.78950  0.67910  Biso   1.000  C
  C6       1.0000 0.04080  0.71050  0.17910  Biso   1.000  C
  C7       1.0000 0.45920  0.21050  0.32090  Biso   1.000  C
  C8       1.0000 0.95920  0.28950  0.82090  Biso   1.000  C
  H9       1.0000 0.44190  0.81830  0.68500  Biso   1.000  H
  H10      1.0000 0.94190  0.68170  0.18500  Biso   1.000  H
  H11      1.0000 0.55810  0.18170  0.31500  Biso   1.000  H
  H12      1.0000 0.05810  0.31830  0.81500  Biso   1.000  H
  H13      1.0000 0.51130  0.73580  0.66790  Biso   1.000  H
  H14      1.0000 0.01130  0.76420  0.16790  Biso   1.000  H
  H15      1.0000 0.48870  0.26420  0.33210  Biso   1.000  H
  H16      1.0000 0.98870  0.23580  0.83210  Biso   1.000  H
  C9       1.0000 0.55830  0.82440  0.83970  Biso   1.000  C
  C10      1.0000 0.05830  0.67560  0.33970  Biso   1.000  C
  C11      1.0000 0.44170  0.17560  0.16030  Biso   1.000  C
  C12      1.0000 0.94170  0.32440  0.66030  Biso   1.000  C
  H17      1.0000 0.62410  0.81700  0.89590  Biso   1.000  H
  H18      1.0000 0.12410  0.68300  0.39590  Biso   1.000  H
  H19      1.0000 0.37590  0.18300  0.10410  Biso   1.000  H
  H20      1.0000 0.87590  0.31700  0.60410  Biso   1.000  H
  H21      1.0000 0.45800  0.79600  0.84280  Biso   1.000  H
  H22      1.0000 0.95800  0.70400  0.34280  Biso   1.000  H
  H23      1.0000 0.54200  0.20400  0.15720  Biso   1.000  H
  H24      1.0000 0.04200  0.29600  0.65720  Biso   1.000  H
  C13      1.0000 0.52140  0.91070  0.82580  Biso   1.000  C
  C14      1.0000 0.02140  0.58930  0.32580  Biso   1.000  C
  C15      1.0000 0.47860  0.08930  0.17420  Biso   1.000  C
  C16      1.0000 0.97860  0.41070  0.67420  Biso   1.000  C
  H25      1.0000 0.43260  0.91730  0.77980  Biso   1.000  H
  H26      1.0000 0.93260  0.58270  0.27980  Biso   1.000  H
  H27      1.0000 0.56740  0.08270  0.22020  Biso   1.000  H
  H28      1.0000 0.06740  0.41730  0.72020  Biso   1.000  H
  H29      1.0000 0.49010  0.93330  0.88100  Biso   1.000  H
  H30      1.0000 0.99010  0.56670  0.38100  Biso   1.000  H
  H31      1.0000 0.50990  0.06670  0.11900  Biso   1.000  H
  H32      1.0000 0.00990  0.43330  0.61900  Biso   1.000  H
  C17      1.0000 0.63170  0.00220  0.71950  Biso   1.000  C
  C18      1.0000 0.13170  0.49780  0.21950  Biso   1.000  C
  C19      1.0000 0.36830  0.99780  0.28050  Biso   1.000  C
  C20      1.0000 0.86830  0.50220  0.78050  Biso   1.000  C
  H33      1.0000 0.72560  0.03420  0.71150  Biso   1.000  H
  H34      1.0000 0.22560  0.46580  0.21150  Biso   1.000  H
  H35      1.0000 0.27440  0.96580  0.28850  Biso   1.000  H
  H36      1.0000 0.77440  0.53420  0.78850  Biso   1.000  H
  H37      1.0000 0.54320  0.03630  0.73140  Biso   1.000  H
  H38      1.0000 0.04320  0.46370  0.23140  Biso   1.000  H
  H39      1.0000 0.45680  0.96370  0.26860  Biso   1.000  H
  H40      1.0000 0.95680  0.53630  0.76860  Biso   1.000  H
  C21      1.0000 0.58580  0.95740  0.63340  Biso   1.000  C
  C22      1.0000 0.08580  0.54260  0.13340  Biso   1.000  C
  C23      1.0000 0.41420  0.04260  0.36660  Biso   1.000  C
  C24      1.0000 0.91420  0.45740  0.86660  Biso   1.000  C
  H41      1.0000 0.47900  0.93510  0.63580  Biso   1.000  H
  H42      1.0000 0.97900  0.56490  0.13580  Biso   1.000  H
  H43      1.0000 0.52100  0.06490  0.36420  Biso   1.000  H
  H44      1.0000 0.02100  0.43510  0.86420  Biso   1.000  H
  H45      1.0000 0.58180  0.99260  0.58280  Biso   1.000  H
  H46      1.0000 0.08180  0.50740  0.08280  Biso   1.000  H
  H47      1.0000 0.41820  0.00740  0.41720  Biso   1.000  H
  H48      1.0000 0.91820  0.49260  0.91720  Biso   1.000  H
  C25      1.0000 0.02710  0.75030  0.67520  Biso   1.000  C
  C26      1.0000 0.52710  0.74970  0.17520  Biso   1.000  C
  C27      1.0000 0.97290  0.24970  0.32480  Biso   1.000  C
  C28      1.0000 0.47290  0.25030  0.82480  Biso   1.000  C
  H49      1.0000 0.98480  0.77300  0.62190  Biso   1.000  H
  H50      1.0000 0.48480  0.72700  0.12190  Biso   1.000  H
  H51      1.0000 0.01520  0.22700  0.37810  Biso   1.000  H
  H52      1.0000 0.51520  0.27300  0.87810  Biso   1.000  H
  C29      1.0000 0.12130  0.68620  0.67030  Biso   1.000  C
  C30      1.0000 0.62130  0.81380  0.17030  Biso   1.000  C
  C31      1.0000 0.87870  0.31380  0.32970  Biso   1.000  C
  C32      1.0000 0.37870  0.18620  0.82970  Biso   1.000  C
  H53      1.0000 0.13980  0.66560  0.61480  Biso   1.000  H
  H54      1.0000 0.63980  0.83440  0.11480  Biso   1.000  H
  H55      1.0000 0.86020  0.33440  0.38520  Biso   1.000  H
  H56      1.0000 0.36020  0.16560  0.88520  Biso   1.000  H
  C33      1.0000 0.18920  0.65210  0.74780  Biso   1.000  C
  C34      1.0000 0.68920  0.84790  0.24780  Biso   1.000  C
  C35      1.0000 0.81080  0.34790  0.25220  Biso   1.000  C
  C36      1.0000 0.31080  0.15210  0.75220  Biso   1.000  C
  C37      1.0000 0.15770  0.68700  0.82760  Biso   1.000  C
  C38      1.0000 0.65770  0.81300  0.32760  Biso   1.000  C
  C39      1.0000 0.84230  0.31300  0.17240  Biso   1.000  C
  C40      1.0000 0.34230  0.18700  0.67240  Biso   1.000  C
  H57      1.0000 0.20250  0.66690  0.88190  Biso   1.000  H
  H58      1.0000 0.70250  0.83310  0.38190  Biso   1.000  H
  H59      1.0000 0.79750  0.33310  0.11810  Biso   1.000  H
  H60      1.0000 0.29750  0.16690  0.61810  Biso   1.000  H
  C41      1.0000 0.06060  0.75100  0.82670  Biso   1.000  C
  C42      1.0000 0.56060  0.74900  0.32670  Biso   1.000  C
  C43      1.0000 0.93940  0.24900  0.17330  Biso   1.000  C
  C44      1.0000 0.43940  0.25100  0.67330  Biso   1.000  C
  H61      1.0000 0.04180  0.77360  0.88120  Biso   1.000  H
  H62      1.0000 0.54180  0.72640  0.38120  Biso   1.000  H
  H63      1.0000 0.95820  0.22640  0.11880  Biso   1.000  H
  H64      1.0000 0.45820  0.27360  0.61880  Biso   1.000  H
  C45      1.0000 0.28940  0.58100  0.74500  Biso   1.000  C
  C46      1.0000 0.78940  0.91900  0.24500  Biso   1.000  C
  C47      1.0000 0.71060  0.41900  0.25500  Biso   1.000  C
  C48      1.0000 0.21060  0.08100  0.75500  Biso   1.000  C
  C49      1.0000 0.32520  0.53370  0.81870  Biso   1.000  C
  C50      1.0000 0.82520  0.96630  0.31870  Biso   1.000  C
  C51      1.0000 0.67480  0.46630  0.18130  Biso   1.000  C
  C52      1.0000 0.17480  0.03370  0.68130  Biso   1.000  C
  H65      1.0000 0.28070  0.54500  0.87210  Biso   1.000  H
  H66      1.0000 0.78070  0.95500  0.37210  Biso   1.000  H
  H67      1.0000 0.71930  0.45500  0.12790  Biso   1.000  H
  H68      1.0000 0.21930  0.04500  0.62790  Biso   1.000  H
  C53      1.0000 0.42400  0.47100  0.81500  Biso   1.000  C
  C54      1.0000 0.92400  0.02900  0.31500  Biso   1.000  C
  C55      1.0000 0.57600  0.52900  0.18500  Biso   1.000  C
  C56      1.0000 0.07600  0.97100  0.68500  Biso   1.000  C
  H69      1.0000 0.44500  0.44090  0.86620  Biso   1.000  H
  H70      1.0000 0.94500  0.05910  0.36620  Biso   1.000  H
  H71      1.0000 0.55500  0.55910  0.13380  Biso   1.000  H
  H72      1.0000 0.05500  0.94090  0.63380  Biso   1.000  H
  C57      1.0000 0.45300  0.49440  0.66760  Biso   1.000  C
  C58      1.0000 0.95300  0.00560  0.16760  Biso   1.000  C
  C59      1.0000 0.54700  0.50560  0.33240  Biso   1.000  C
  C60      1.0000 0.04700  0.99440  0.83240  Biso   1.000  C
  H73      1.0000 0.49430  0.48040  0.61410  Biso   1.000  H
  H74      1.0000 0.99430  0.01960  0.11410  Biso   1.000  H
  H75      1.0000 0.50570  0.51960  0.38590  Biso   1.000  H
  H76      1.0000 0.00570  0.98040  0.88590  Biso   1.000  H
  C61      1.0000 0.35500  0.55830  0.66740  Biso   1.000  C
  C62      1.0000 0.85500  0.94170  0.16740  Biso   1.000  C
  C63      1.0000 0.64500  0.44170  0.33260  Biso   1.000  C
  C64      1.0000 0.14500  0.05830  0.83260  Biso   1.000  C
  H77      1.0000 0.33260  0.58660  0.61490  Biso   1.000  H
  H78      1.0000 0.83260  0.91340  0.11490  Biso   1.000  H
  H79      1.0000 0.66740  0.41340  0.38510  Biso   1.000  H
  H80      1.0000 0.16740  0.08660  0.88510  Biso   1.000  H
  Cl1      1.0000 0.21980  0.88714  0.03851  Biso   1.000  Cl
  Cl2      1.0000 0.71980  0.61286  0.53851  Biso   1.000  Cl
  Cl3      1.0000 0.78020  0.11286  0.96149  Biso   1.000  Cl
  Cl4      1.0000 0.28020  0.38714  0.46149  Biso   1.000  Cl
  Cl5      1.0000 0.14170  0.86450  0.46339  Biso   1.000  Cl
  Cl6      1.0000 0.64170  0.63550  0.96339  Biso   1.000  Cl
  Cl7      1.0000 0.85830  0.13550  0.53661  Biso   1.000  Cl
  Cl8      1.0000 0.35830  0.36450  0.03661  Biso   1.000  Cl
  O1       1.0000 0.23500  0.87270  0.13320  Biso   1.000  O
  O2       1.0000 0.73500  0.62730  0.63320  Biso   1.000  O
  O3       1.0000 0.76500  0.12730  0.86680  Biso   1.000  O
  O4       1.0000 0.26500  0.37270  0.36680  Biso   1.000  O
  O5       1.0000 0.05420  0.87190  0.00370  Biso   1.000  O
  O6       1.0000 0.55420  0.62810  0.50370  Biso   1.000  O
  O7       1.0000 0.94580  0.12810  0.99630  Biso   1.000  O
  O8       1.0000 0.44580  0.37190  0.49630  Biso   1.000  O
  O9       1.0000 0.25820  0.96710  0.02360  Biso   1.000  O
  O10      1.0000 0.75820  0.53290  0.52360  Biso   1.000  O
  O11      1.0000 0.74180  0.03290  0.97640  Biso   1.000  O
  O12      1.0000 0.24180  0.46710  0.47640  Biso   1.000  O
  O13      1.0000 0.32520  0.83770  0.99530  Biso   1.000  O
  O14      1.0000 0.82520  0.66230  0.49530  Biso   1.000  O
  O15      1.0000 0.67480  0.16230  0.00470  Biso   1.000  O
  O16      1.0000 0.17480  0.33770  0.50470  Biso   1.000  O
  O17      1.0000 0.14620  0.85550  0.36940  Biso   1.000  O
  O18      1.0000 0.64620  0.64450  0.86940  Biso   1.000  O
  O19      1.0000 0.85380  0.14450  0.63060  Biso   1.000  O
  O20      1.0000 0.35380  0.35550  0.13060  Biso   1.000  O
  O21      1.0000 0.19920  0.93960  0.48760  Biso   1.000  O
  O22      1.0000 0.69920  0.56040  0.98760  Biso   1.000  O
  O23      1.0000 0.80080  0.06040  0.51240  Biso   1.000  O
  O24      1.0000 0.30080  0.43960  0.01240  Biso   1.000  O
  O25      1.0000 0.97720  0.85720  0.48590  Biso   1.000  O
  O26      1.0000 0.47720  0.64280  0.98590  Biso   1.000  O
  O27      1.0000 0.02280  0.14280  0.51410  Biso   1.000  O
  O28      1.0000 0.52280  0.35720  0.01410  Biso   1.000  O
  O29      1.0000 0.23360  0.80640  0.51030  Biso   1.000  O
  O30      1.0000 0.73360  0.69360  0.01030  Biso   1.000  O
  O31      1.0000 0.76640  0.19360  0.48970  Biso   1.000  O
  O32      1.0000 0.26640  0.30640  0.98970  Biso   1.000  O
