data_image0
_cell_length_a       9.73
_cell_length_b       18.24
_cell_length_c       13.43
_cell_angle_alpha    90
_cell_angle_beta     105.3
_cell_angle_gamma    90

_symmetry_space_group_name_H-M    "P 1"
_symmetry_int_tables_number       1

loop_
  _symmetry_equiv_pos_as_xyz
  'x, y, z'

loop_
  _atom_site_label
  _atom_site_occupancy
  _atom_site_fract_x
  _atom_site_fract_y
  _atom_site_fract_z
  _atom_site_thermal_displace_type
  _atom_site_B_iso_or_equiv
  _atom_site_type_symbol
  Cu1      1.0000 0.67961  0.86770  0.08351  Biso   1.000  Cu
  Cu2      1.0000 0.67961  0.63230  0.58351  Biso   1.000  Cu
  Cu3      1.0000 0.32039  0.13230  0.91649  Biso   1.000  Cu
  Cu4      1.0000 0.32039  0.36770  0.41649  Biso   1.000  Cu
  O1       1.0000 0.80600  0.76700  0.12730  Biso   1.000  O
  O2       1.0000 0.80600  0.73300  0.62730  Biso   1.000  O
  O3       1.0000 0.19400  0.23300  0.87270  Biso   1.000  O
  O4       1.0000 0.19400  0.26700  0.37270  Biso   1.000  O
  O5       1.0000 0.64580  0.67930  0.07330  Biso   1.000  O
  O6       1.0000 0.64580  0.82070  0.57330  Biso   1.000  O
  O7       1.0000 0.35420  0.32070  0.92670  Biso   1.000  O
  O8       1.0000 0.35420  0.17930  0.42670  Biso   1.000  O
  O9       1.0000 0.17470  0.42430  0.31960  Biso   1.000  O
  O10      1.0000 0.17470  0.07570  0.81960  Biso   1.000  O
  O11      1.0000 0.82530  0.57570  0.68040  Biso   1.000  O
  O12      1.0000 0.82530  0.92430  0.18040  Biso   1.000  O
  O13      1.0000 0.32950  0.51630  0.35820  Biso   1.000  O
  O14      1.0000 0.32950  0.98370  0.85820  Biso   1.000  O
  O15      1.0000 0.67050  0.48370  0.64180  Biso   1.000  O
  O16      1.0000 0.67050  0.01630  0.14180  Biso   1.000  O
  N1       1.0000 0.53950  0.85930  0.17090  Biso   1.000  N
  N2       1.0000 0.53950  0.64070  0.67090  Biso   1.000  N
  N3       1.0000 0.46050  0.14070  0.82910  Biso   1.000  N
  N4       1.0000 0.46050  0.35930  0.32910  Biso   1.000  N
  N5       1.0000 0.52350  0.81490  0.98150  Biso   1.000  N
  N6       1.0000 0.52350  0.68510  0.48150  Biso   1.000  N
  N7       1.0000 0.47650  0.18510  0.01850  Biso   1.000  N
  N8       1.0000 0.47650  0.31490  0.51850  Biso   1.000  N
  H1       1.0000 0.54300  0.76620  0.99140  Biso   1.000  H
  H2       1.0000 0.54300  0.73380  0.49140  Biso   1.000  H
  H3       1.0000 0.45700  0.23380  0.00860  Biso   1.000  H
  H4       1.0000 0.45700  0.26620  0.50860  Biso   1.000  H
  N9       1.0000 0.75680  0.89170  0.95700  Biso   1.000  N
  N10      1.0000 0.75680  0.60830  0.45700  Biso   1.000  N
  N11      1.0000 0.24320  0.10830  0.04300  Biso   1.000  N
  N12      1.0000 0.24320  0.39170  0.54300  Biso   1.000  N
  C1       1.0000 0.76840  0.70050  0.11810  Biso   1.000  C
  C2       1.0000 0.76840  0.79950  0.61810  Biso   1.000  C
  C3       1.0000 0.23160  0.29950  0.88190  Biso   1.000  C
  C4       1.0000 0.23160  0.20050  0.38190  Biso   1.000  C
  C5       1.0000 0.88220  0.64470  0.16370  Biso   1.000  C
  C6       1.0000 0.88220  0.85530  0.66370  Biso   1.000  C
  C7       1.0000 0.11780  0.35530  0.83630  Biso   1.000  C
  C8       1.0000 0.11780  0.14470  0.33630  Biso   1.000  C
  C9       1.0000 0.85230  0.57000  0.16580  Biso   1.000  C
  C10      1.0000 0.85230  0.93000  0.66580  Biso   1.000  C
  C11      1.0000 0.14770  0.43000  0.83420  Biso   1.000  C
  C12      1.0000 0.14770  0.07000  0.33420  Biso   1.000  C
  H5       1.0000 0.76100  0.55270  0.13530  Biso   1.000  H
  H6       1.0000 0.76100  0.94730  0.63530  Biso   1.000  H
  H7       1.0000 0.23900  0.44730  0.86470  Biso   1.000  H
  H8       1.0000 0.23900  0.05270  0.36470  Biso   1.000  H
  C13      1.0000 0.95750  0.52250  0.21280  Biso   1.000  C
  C14      1.0000 0.95750  0.97750  0.71280  Biso   1.000  C
  C15      1.0000 0.04250  0.47750  0.78720  Biso   1.000  C
  C16      1.0000 0.04250  0.02250  0.28720  Biso   1.000  C
  H9       1.0000 0.93510  0.47310  0.21440  Biso   1.000  H
  H10      1.0000 0.93510  0.02690  0.71440  Biso   1.000  H
  H11      1.0000 0.06490  0.52690  0.78560  Biso   1.000  H
  H12      1.0000 0.06490  0.97310  0.28560  Biso   1.000  H
  C17      1.0000 0.09470  0.54400  0.25780  Biso   1.000  C
  C18      1.0000 0.09470  0.95600  0.75780  Biso   1.000  C
  C19      1.0000 0.90530  0.45600  0.74220  Biso   1.000  C
  C20      1.0000 0.90530  0.04400  0.24220  Biso   1.000  C
  C21      1.0000 0.12620  0.61930  0.25180  Biso   1.000  C
  C22      1.0000 0.12620  0.88070  0.75180  Biso   1.000  C
  C23      1.0000 0.87380  0.38070  0.74820  Biso   1.000  C
  C24      1.0000 0.87380  0.11930  0.24820  Biso   1.000  C
  H13      1.0000 0.21870  0.63640  0.27820  Biso   1.000  H
  H14      1.0000 0.21870  0.86360  0.77820  Biso   1.000  H
  H15      1.0000 0.78130  0.36360  0.72180  Biso   1.000  H
  H16      1.0000 0.78130  0.13640  0.22180  Biso   1.000  H
  C25      1.0000 0.01890  0.66690  0.20660  Biso   1.000  C
  C26      1.0000 0.01890  0.83310  0.70660  Biso   1.000  C
  C27      1.0000 0.98110  0.33310  0.79340  Biso   1.000  C
  C28      1.0000 0.98110  0.16690  0.29340  Biso   1.000  C
  H17      1.0000 0.04020  0.71650  0.20520  Biso   1.000  H
  H18      1.0000 0.04020  0.78350  0.70520  Biso   1.000  H
  H19      1.0000 0.95980  0.28350  0.79480  Biso   1.000  H
  H20      1.0000 0.95980  0.21650  0.29480  Biso   1.000  H
  C29      1.0000 0.20950  0.49410  0.31460  Biso   1.000  C
  C30      1.0000 0.20950  0.00590  0.81460  Biso   1.000  C
  C31      1.0000 0.79050  0.50590  0.68540  Biso   1.000  C
  C32      1.0000 0.79050  0.99410  0.18540  Biso   1.000  C
  C33      1.0000 0.56450  0.87500  0.27180  Biso   1.000  C
  C34      1.0000 0.56450  0.62500  0.77180  Biso   1.000  C
  C35      1.0000 0.43550  0.12500  0.72820  Biso   1.000  C
  C36      1.0000 0.43550  0.37500  0.22820  Biso   1.000  C
  H21      1.0000 0.65540  0.89030  0.30730  Biso   1.000  H
  H22      1.0000 0.65540  0.60970  0.80730  Biso   1.000  H
  H23      1.0000 0.34460  0.10970  0.69270  Biso   1.000  H
  H24      1.0000 0.34460  0.39030  0.19270  Biso   1.000  H
  C37      1.0000 0.46350  0.86930  0.32440  Biso   1.000  C
  C38      1.0000 0.46350  0.63070  0.82440  Biso   1.000  C
  C39      1.0000 0.53650  0.13070  0.67560  Biso   1.000  C
  C40      1.0000 0.53650  0.36930  0.17560  Biso   1.000  C
  H25      1.0000 0.48450  0.87910  0.39480  Biso   1.000  H
  H26      1.0000 0.48450  0.62090  0.89480  Biso   1.000  H
  H27      1.0000 0.51550  0.12090  0.60520  Biso   1.000  H
  H28      1.0000 0.51550  0.37910  0.10520  Biso   1.000  H
  C41      1.0000 0.32630  0.84820  0.26860  Biso   1.000  C
  C42      1.0000 0.32630  0.65180  0.76860  Biso   1.000  C
  C43      1.0000 0.67370  0.15180  0.73140  Biso   1.000  C
  C44      1.0000 0.67370  0.34820  0.23140  Biso   1.000  C
  H29      1.0000 0.25410  0.84530  0.30200  Biso   1.000  H
  H30      1.0000 0.25410  0.65470  0.80200  Biso   1.000  H
  H31      1.0000 0.74590  0.15470  0.69800  Biso   1.000  H
  H32      1.0000 0.74590  0.34530  0.19800  Biso   1.000  H
  C45      1.0000 0.29710  0.83190  0.16620  Biso   1.000  C
  C46      1.0000 0.29710  0.66810  0.66620  Biso   1.000  C
  C47      1.0000 0.70290  0.16810  0.83380  Biso   1.000  C
  C48      1.0000 0.70290  0.33190  0.33380  Biso   1.000  C
  H33      1.0000 0.20720  0.81640  0.12890  Biso   1.000  H
  H34      1.0000 0.20720  0.68360  0.62890  Biso   1.000  H
  H35      1.0000 0.79280  0.18360  0.87110  Biso   1.000  H
  H36      1.0000 0.79280  0.31640  0.37110  Biso   1.000  H
  C49      1.0000 0.41050  0.83970  0.11950  Biso   1.000  C
  C50      1.0000 0.41050  0.66030  0.61950  Biso   1.000  C
  C51      1.0000 0.58950  0.16030  0.88050  Biso   1.000  C
  C52      1.0000 0.58950  0.33970  0.38050  Biso   1.000  C
  C53      1.0000 0.38510  0.82640  0.00350  Biso   1.000  C
  C54      1.0000 0.38510  0.67360  0.50350  Biso   1.000  C
  C55      1.0000 0.61490  0.17360  0.99650  Biso   1.000  C
  C56      1.0000 0.61490  0.32640  0.49650  Biso   1.000  C
  H37      1.0000 0.32520  0.78360  0.98290  Biso   1.000  H
  H38      1.0000 0.32520  0.71640  0.48290  Biso   1.000  H
  H39      1.0000 0.67480  0.21640  0.01710  Biso   1.000  H
  H40      1.0000 0.67480  0.28360  0.51710  Biso   1.000  H
  H41      1.0000 0.33730  0.86830  0.96510  Biso   1.000  H
  H42      1.0000 0.33730  0.63170  0.46510  Biso   1.000  H
  H43      1.0000 0.66270  0.13170  0.03490  Biso   1.000  H
  H44      1.0000 0.66270  0.36830  0.53490  Biso   1.000  H
  C57      1.0000 0.52610  0.83060  0.87520  Biso   1.000  C
  C58      1.0000 0.52610  0.66940  0.37520  Biso   1.000  C
  C59      1.0000 0.47390  0.16940  0.12480  Biso   1.000  C
  C60      1.0000 0.47390  0.33060  0.62480  Biso   1.000  C
  H45      1.0000 0.47750  0.87640  0.85190  Biso   1.000  H
  H46      1.0000 0.47750  0.62360  0.35190  Biso   1.000  H
  H47      1.0000 0.52250  0.12360  0.14810  Biso   1.000  H
  H48      1.0000 0.52250  0.37640  0.64810  Biso   1.000  H
  H49      1.0000 0.47990  0.79170  0.82930  Biso   1.000  H
  H50      1.0000 0.47990  0.70830  0.32930  Biso   1.000  H
  H51      1.0000 0.52010  0.20830  0.17070  Biso   1.000  H
  H52      1.0000 0.52010  0.29170  0.67070  Biso   1.000  H
  C61      1.0000 0.67990  0.83580  0.87710  Biso   1.000  C
  C62      1.0000 0.67990  0.66420  0.37710  Biso   1.000  C
  C63      1.0000 0.32010  0.16420  0.12290  Biso   1.000  C
  C64      1.0000 0.32010  0.33580  0.62290  Biso   1.000  C
  H53      1.0000 0.68820  0.85010  0.80930  Biso   1.000  H
  H54      1.0000 0.68820  0.64990  0.30930  Biso   1.000  H
  H55      1.0000 0.31180  0.14990  0.19070  Biso   1.000  H
  H56      1.0000 0.31180  0.35010  0.69070  Biso   1.000  H
  H57      1.0000 0.72440  0.78820  0.89340  Biso   1.000  H
  H58      1.0000 0.72440  0.71180  0.39340  Biso   1.000  H
  H59      1.0000 0.27560  0.21180  0.10660  Biso   1.000  H
  H60      1.0000 0.27560  0.28820  0.60660  Biso   1.000  H
  C65      1.0000 0.91280  0.87950  0.98070  Biso   1.000  C
  C66      1.0000 0.91280  0.62050  0.48070  Biso   1.000  C
  C67      1.0000 0.08720  0.12050  0.01930  Biso   1.000  C
  C68      1.0000 0.08720  0.37950  0.51930  Biso   1.000  C
  H61      1.0000 0.94550  0.89100  0.92110  Biso   1.000  H
  H62      1.0000 0.94550  0.60900  0.42110  Biso   1.000  H
  H63      1.0000 0.05450  0.10900  0.07890  Biso   1.000  H
  H64      1.0000 0.05450  0.39100  0.57890  Biso   1.000  H
  H65      1.0000 0.93370  0.82910  0.99930  Biso   1.000  H
  H66      1.0000 0.93370  0.67090  0.49930  Biso   1.000  H
  H67      1.0000 0.06630  0.17090  0.00070  Biso   1.000  H
  H68      1.0000 0.06630  0.32910  0.50070  Biso   1.000  H
  H69      1.0000 0.96030  0.91050  0.03720  Biso   1.000  H
  H70      1.0000 0.96030  0.58950  0.53720  Biso   1.000  H
  H71      1.0000 0.03970  0.08950  0.96280  Biso   1.000  H
  H72      1.0000 0.03970  0.41050  0.46280  Biso   1.000  H
  C69      1.0000 0.71910  0.96580  0.91930  Biso   1.000  C
  C70      1.0000 0.71910  0.53420  0.41930  Biso   1.000  C
  C71      1.0000 0.28090  0.03420  0.08070  Biso   1.000  C
  C72      1.0000 0.28090  0.46580  0.58070  Biso   1.000  C
  H73      1.0000 0.75650  0.97520  0.86110  Biso   1.000  H
  H74      1.0000 0.75650  0.52480  0.36110  Biso   1.000  H
  H75      1.0000 0.24350  0.02480  0.13890  Biso   1.000  H
  H76      1.0000 0.24350  0.47520  0.63890  Biso   1.000  H
  H77      1.0000 0.75860  0.00040  0.97320  Biso   1.000  H
  H78      1.0000 0.75860  0.49960  0.47320  Biso   1.000  H
  H79      1.0000 0.24140  0.99960  0.02680  Biso   1.000  H
  H80      1.0000 0.24140  0.50040  0.52680  Biso   1.000  H
  H81      1.0000 0.61730  0.97080  0.89870  Biso   1.000  H
  H82      1.0000 0.61730  0.52920  0.39870  Biso   1.000  H
  H83      1.0000 0.38270  0.02920  0.10130  Biso   1.000  H
  H84      1.0000 0.38270  0.47080  0.60130  Biso   1.000  H
  O17      1.0000 0.38340  0.63520  0.08780  Biso   1.000  O
  O18      1.0000 0.38340  0.86480  0.58780  Biso   1.000  O
  O19      1.0000 0.61660  0.36480  0.91220  Biso   1.000  O
  O20      1.0000 0.61660  0.13520  0.41220  Biso   1.000  O
  H85      1.0000 0.46460  0.65090  0.11080  Biso   1.000  H
  H86      1.0000 0.46460  0.84910  0.61080  Biso   1.000  H
  H87      1.0000 0.53540  0.34910  0.88920  Biso   1.000  H
  H88      1.0000 0.53540  0.15090  0.38920  Biso   1.000  H
  C73      1.0000 0.38330  0.55760  0.09830  Biso   1.000  C
  C74      1.0000 0.38330  0.94240  0.59830  Biso   1.000  C
  C75      1.0000 0.61670  0.44240  0.90170  Biso   1.000  C
  C76      1.0000 0.61670  0.05760  0.40170  Biso   1.000  C
  H89      1.0000 0.42510  0.54480  0.16920  Biso   1.000  H
  H90      1.0000 0.42510  0.95520  0.66920  Biso   1.000  H
  H91      1.0000 0.57490  0.45520  0.83080  Biso   1.000  H
  H92      1.0000 0.57490  0.04480  0.33080  Biso   1.000  H
  H93      1.0000 0.43790  0.53600  0.05590  Biso   1.000  H
  H94      1.0000 0.43790  0.96400  0.55590  Biso   1.000  H
  H95      1.0000 0.56210  0.46400  0.94410  Biso   1.000  H
  H96      1.0000 0.56210  0.03600  0.44410  Biso   1.000  H
  H97      1.0000 0.28720  0.53970  0.07730  Biso   1.000  H
  H98      1.0000 0.28720  0.96030  0.57730  Biso   1.000  H
  H99      1.0000 0.71280  0.46030  0.92270  Biso   1.000  H
  H100     1.0000 0.71280  0.03970  0.42270  Biso   1.000  H
  O21      1.0000 0.02510  0.82710  0.33800  Biso   1.000  O
  O22      1.0000 0.02510  0.67290  0.83800  Biso   1.000  O
  O23      1.0000 0.97490  0.17290  0.66200  Biso   1.000  O
  O24      1.0000 0.97490  0.32710  0.16200  Biso   1.000  O
  H101     1.0000 0.95560  0.84510  0.29700  Biso   1.000  H
  H102     1.0000 0.95560  0.65490  0.79700  Biso   1.000  H
  H103     1.0000 0.04440  0.15490  0.70300  Biso   1.000  H
  H104     1.0000 0.04440  0.34510  0.20300  Biso   1.000  H
  C77      1.0000 0.02200  0.83720  0.44070  Biso   1.000  C
  C78      1.0000 0.02200  0.66280  0.94070  Biso   1.000  C
  C79      1.0000 0.97800  0.16280  0.55930  Biso   1.000  C
  C80      1.0000 0.97800  0.33720  0.05930  Biso   1.000  C
  H105     1.0000 0.11480  0.83340  0.48780  Biso   1.000  H
  H106     1.0000 0.11480  0.66660  0.98780  Biso   1.000  H
  H107     1.0000 0.88520  0.16660  0.51220  Biso   1.000  H
  H108     1.0000 0.88520  0.33340  0.01220  Biso   1.000  H
  H109     1.0000 0.96000  0.80110  0.45790  Biso   1.000  H
  H110     1.0000 0.96000  0.69890  0.95790  Biso   1.000  H
  H111     1.0000 0.04000  0.19890  0.54210  Biso   1.000  H
  H112     1.0000 0.04000  0.30110  0.04210  Biso   1.000  H
  H113     1.0000 0.98380  0.88530  0.44560  Biso   1.000  H
  H114     1.0000 0.98380  0.61470  0.94560  Biso   1.000  H
  H115     1.0000 0.01620  0.11470  0.55440  Biso   1.000  H
  H116     1.0000 0.01620  0.38530  0.05440  Biso   1.000  H
