data_image0
_cell_length_a       12.3677
_cell_length_b       12.7886
_cell_length_c       14.2243
_cell_angle_alpha    109.825
_cell_angle_beta     115.576
_cell_angle_gamma    96.582

_symmetry_space_group_name_H-M    "P 1"
_symmetry_int_tables_number       1

loop_
  _symmetry_equiv_pos_as_xyz
  'x, y, z'

loop_
  _atom_site_label
  _atom_site_occupancy
  _atom_site_fract_x
  _atom_site_fract_y
  _atom_site_fract_z
  _atom_site_thermal_displace_type
  _atom_site_B_iso_or_equiv
  _atom_site_type_symbol
  Cu1      1.0000 0.98810  0.51618  0.89546  Biso   1.000  Cu
  Cu2      1.0000 0.01190  0.48382  0.10454  Biso   1.000  Cu
  O1       1.0000 0.95840  0.39390  0.94100  Biso   1.000  O
  O2       1.0000 0.04160  0.60610  0.05900  Biso   1.000  O
  N1       1.0000 0.19070  0.51260  0.92660  Biso   1.000  N
  N2       1.0000 0.80930  0.48740  0.07340  Biso   1.000  N
  N3       1.0000 0.78440  0.73430  0.53830  Biso   1.000  N
  N4       1.0000 0.21560  0.26570  0.46170  Biso   1.000  N
  N5       1.0000 0.98980  0.69690  0.57510  Biso   1.000  N
  N6       1.0000 0.01020  0.30310  0.42490  Biso   1.000  N
  N7       1.0000 0.96030  0.64040  0.84250  Biso   1.000  N
  N8       1.0000 0.03970  0.35960  0.15750  Biso   1.000  N
  N9       1.0000 0.92620  0.72970  0.72650  Biso   1.000  N
  N10      1.0000 0.07380  0.27030  0.27350  Biso   1.000  N
  N11      1.0000 0.02700  0.59520  0.43260  Biso   1.000  N
  N12      1.0000 0.97300  0.40480  0.56740  Biso   1.000  N
  N13      1.0000 0.57560  0.64230  0.41840  Biso   1.000  N
  N14      1.0000 0.42440  0.35770  0.58160  Biso   1.000  N
  C1       1.0000 0.33390  0.76320  0.76580  Biso   1.000  C
  C2       1.0000 0.66610  0.23680  0.23420  Biso   1.000  C
  C3       1.0000 0.26230  0.49670  0.01740  Biso   1.000  C
  C4       1.0000 0.73770  0.50330  0.98260  Biso   1.000  C
  H1       1.0000 0.22870  0.48860  0.06260  Biso   1.000  H
  H2       1.0000 0.77130  0.51140  0.93740  Biso   1.000  H
  C5       1.0000 0.36100  0.52010  0.89080  Biso   1.000  C
  C6       1.0000 0.63900  0.47990  0.10920  Biso   1.000  C
  H3       1.0000 0.39140  0.52850  0.84350  Biso   1.000  H
  H4       1.0000 0.60860  0.47150  0.15650  Biso   1.000  H
  C7       1.0000 0.24050  0.52600  0.86510  Biso   1.000  C
  C8       1.0000 0.75950  0.47400  0.13490  Biso   1.000  C
  H5       1.0000 0.19340  0.53990  0.80160  Biso   1.000  H
  H6       1.0000 0.80660  0.46010  0.19840  Biso   1.000  H
  C9       1.0000 0.38390  0.49100  0.05150  Biso   1.000  C
  C10      1.0000 0.61610  0.50900  0.94850  Biso   1.000  C
  C11      1.0000 0.43510  0.50230  0.98400  Biso   1.000  C
  C12      1.0000 0.56490  0.49770  0.01600  Biso   1.000  C
  C13      1.0000 0.91520  0.73140  0.88000  Biso   1.000  C
  C14      1.0000 0.08480  0.26860  0.12000  Biso   1.000  C
  C15      1.0000 0.74190  0.78720  0.46480  Biso   1.000  C
  C16      1.0000 0.25810  0.21280  0.53520  Biso   1.000  C
  C17      1.0000 0.94390  0.63040  0.46110  Biso   1.000  C
  C18      1.0000 0.05610  0.36960  0.53890  Biso   1.000  C
  H7       1.0000 0.85960  0.61060  0.40620  Biso   1.000  H
  H8       1.0000 0.14040  0.38940  0.59380  Biso   1.000  H
  C19      1.0000 0.89340  0.78760  0.80800  Biso   1.000  C
  C20      1.0000 0.10660  0.21240  0.19200  Biso   1.000  C
  C21      1.0000 0.82390  0.92020  0.91350  Biso   1.000  C
  C22      1.0000 0.17610  0.07980  0.08650  Biso   1.000  C
  C23      1.0000 0.84200  0.86040  0.98550  Biso   1.000  C
  C24      1.0000 0.15800  0.13960  0.01450  Biso   1.000  C
  C25      1.0000 0.84930  0.88150  0.82480  Biso   1.000  C
  C26      1.0000 0.15070  0.11850  0.17520  Biso   1.000  C
  H9       1.0000 0.83660  0.91880  0.77680  Biso   1.000  H
  H10      1.0000 0.16340  0.08120  0.22320  Biso   1.000  H
  C27      1.0000 0.11750  0.70750  0.62650  Biso   1.000  C
  C28      1.0000 0.88250  0.29250  0.37350  Biso   1.000  C
  C29      1.0000 0.81640  0.90450  0.08500  Biso   1.000  C
  C30      1.0000 0.18360  0.09550  0.91500  Biso   1.000  C
  H11      1.0000 0.83320  0.85550  0.12460  Biso   1.000  H
  H12      1.0000 0.16680  0.14450  0.87540  Biso   1.000  H
  H13      1.0000 0.72990  0.90270  0.05540  Biso   1.000  H
  H14      1.0000 0.27010  0.09730  0.94460  Biso   1.000  H
  H15      1.0000 0.87010  0.98320  0.13790  Biso   1.000  H
  H16      1.0000 0.12990  0.01680  0.86210  Biso   1.000  H
  C31      1.0000 0.88740  0.76870  0.96840  Biso   1.000  C
  C32      1.0000 0.11260  0.23130  0.03160  Biso   1.000  C
  H17      1.0000 0.90000  0.73060  0.01580  Biso   1.000  H
  H18      1.0000 0.10000  0.26940  0.98420  Biso   1.000  H
  C33      1.0000 0.21450  0.76720  0.74120  Biso   1.000  C
  C34      1.0000 0.78550  0.23280  0.25880  Biso   1.000  C
  H19      1.0000 0.19890  0.80840  0.79940  Biso   1.000  H
  H20      1.0000 0.80110  0.19160  0.20060  Biso   1.000  H
  C35      1.0000 0.80050  0.87610  0.45370  Biso   1.000  C
  C36      1.0000 0.19950  0.12390  0.54630  Biso   1.000  C
  H21      1.0000 0.88680  0.91290  0.50210  Biso   1.000  H
  H22      1.0000 0.11320  0.08710  0.49790  Biso   1.000  H
  C37      1.0000 0.35620  0.69970  0.67590  Biso   1.000  C
  C38      1.0000 0.64380  0.30030  0.32410  Biso   1.000  C
  C39      1.0000 0.54280  0.76500  0.30600  Biso   1.000  C
  C40      1.0000 0.45720  0.23500  0.69400  Biso   1.000  C
  H23      1.0000 0.45650  0.72840  0.25750  Biso   1.000  H
  H24      1.0000 0.54350  0.27160  0.74250  Biso   1.000  H
  C41      1.0000 0.61220  0.72810  0.38950  Biso   1.000  C
  C42      1.0000 0.38780  0.27190  0.61050  Biso   1.000  C
  C43      1.0000 0.73110  0.91070  0.37060  Biso   1.000  C
  C44      1.0000 0.26890  0.08930  0.62940  Biso   1.000  C
  C45      1.0000 0.60020  0.85310  0.29530  Biso   1.000  C
  C46      1.0000 0.39980  0.14690  0.70470  Biso   1.000  C
  C47      1.0000 0.77880  0.02680  0.93610  Biso   1.000  C
  C48      1.0000 0.22120  0.97320  0.06390  Biso   1.000  C
  H25      1.0000 0.77170  0.05590  0.88030  Biso   1.000  H
  H26      1.0000 0.22830  0.94410  0.11970  Biso   1.000  H
  H27      1.0000 0.83820  0.08640  0.01250  Biso   1.000  H
  H28      1.0000 0.16180  0.91360  0.98750  Biso   1.000  H
  H29      1.0000 0.69810  0.00570  0.92970  Biso   1.000  H
  H30      1.0000 0.30190  0.99430  0.07030  Biso   1.000  H
  C49      1.0000 0.52530  0.89130  0.20240  Biso   1.000  C
  C50      1.0000 0.47470  0.10870  0.79760  Biso   1.000  C
  H31      1.0000 0.43860  0.84440  0.15890  Biso   1.000  H
  H32      1.0000 0.56140  0.15560  0.84110  Biso   1.000  H
  H33      1.0000 0.55880  0.88160  0.15150  Biso   1.000  H
  H34      1.0000 0.44120  0.11840  0.84850  Biso   1.000  H
  H35      1.0000 0.53150  0.97200  0.23830  Biso   1.000  H
  H36      1.0000 0.46850  0.02800  0.76170  Biso   1.000  H
  C51      1.0000 0.48990  0.69890  0.70600  Biso   1.000  C
  C52      1.0000 0.51010  0.30110  0.29400  Biso   1.000  C
  H37      1.0000 0.49020  0.65270  0.63700  Biso   1.000  H
  H38      1.0000 0.50980  0.34730  0.36300  Biso   1.000  H
  H39      1.0000 0.52070  0.66610  0.76030  Biso   1.000  H
  H40      1.0000 0.47930  0.33390  0.23970  Biso   1.000  H
  H41      1.0000 0.54310  0.77740  0.73950  Biso   1.000  H
  H42      1.0000 0.45690  0.22260  0.26050  Biso   1.000  H
  C53      1.0000 0.79550  0.01140  0.36220  Biso   1.000  C
  C54      1.0000 0.20450  0.98860  0.63780  Biso   1.000  C
  H43      1.0000 0.88350  0.03980  0.41930  Biso   1.000  H
  H44      1.0000 0.11650  0.96020  0.58070  Biso   1.000  H
  H45      1.0000 0.75840  0.07290  0.37560  Biso   1.000  H
  H46      1.0000 0.24160  0.92710  0.62440  Biso   1.000  H
  H47      1.0000 0.78580  0.98590  0.28650  Biso   1.000  H
  H48      1.0000 0.21420  0.01410  0.71350  Biso   1.000  H
  C55      1.0000 0.44110  0.83020  0.88940  Biso   1.000  C
  C56      1.0000 0.55890  0.16980  0.11060  Biso   1.000  C
  H49      1.0000 0.40900  0.86790  0.93790  Biso   1.000  H
  H50      1.0000 0.59100  0.13210  0.06210  Biso   1.000  H
  H51      1.0000 0.50190  0.88800  0.89340  Biso   1.000  H
  H52      1.0000 0.49810  0.11200  0.10660  Biso   1.000  H
  H53      1.0000 0.48050  0.77720  0.91520  Biso   1.000  H
  H54      1.0000 0.51950  0.22280  0.08480  Biso   1.000  H
  C57      1.0000 0.96350  0.64350  0.75200  Biso   1.000  C
  C58      1.0000 0.03650  0.35650  0.24800  Biso   1.000  C
  H55      1.0000 0.98950  0.59060  0.70960  Biso   1.000  H
  H56      1.0000 0.01050  0.40940  0.29040  Biso   1.000  H
  N15      1.0000 0.88250  0.38500  0.73480  Biso   1.000  N
  N16      1.0000 0.11750  0.61500  0.26520  Biso   1.000  N
  C59      1.0000 0.26030  0.64300  0.56440  Biso   1.000  C
  C60      1.0000 0.73970  0.35700  0.43560  Biso   1.000  C
  H57      1.0000 0.27570  0.60280  0.50580  Biso   1.000  H
  H58      1.0000 0.72430  0.39720  0.49420  Biso   1.000  H
  C61      1.0000 0.86100  0.29180  0.84840  Biso   1.000  C
  C62      1.0000 0.13900  0.70820  0.15160  Biso   1.000  C
  H59      1.0000 0.80700  0.24180  0.85520  Biso   1.000  H
  H60      1.0000 0.19300  0.75820  0.14480  Biso   1.000  H
  C63      1.0000 0.74330  0.18040  0.63030  Biso   1.000  C
  C64      1.0000 0.25670  0.81960  0.36970  Biso   1.000  C
  H61      1.0000 0.76270  0.16450  0.56870  Biso   1.000  H
  H62      1.0000 0.23730  0.83550  0.43130  Biso   1.000  H
  H63      1.0000 0.67300  0.21180  0.61070  Biso   1.000  H
  H64      1.0000 0.32700  0.78820  0.38930  Biso   1.000  H
  C65      1.0000 0.13930  0.64560  0.53880  Biso   1.000  C
  C66      1.0000 0.86070  0.35440  0.46120  Biso   1.000  C
  C67      1.0000 0.68290  0.65080  0.50720  Biso   1.000  C
  C68      1.0000 0.31710  0.34920  0.49280  Biso   1.000  C
  H65      1.0000 0.68690  0.60270  0.54430  Biso   1.000  H
  H66      1.0000 0.31310  0.39730  0.45570  Biso   1.000  H
  B1       1.0000 0.91980  0.76300  0.62960  Biso   1.000  B
  B2       1.0000 0.08020  0.23700  0.37040  Biso   1.000  B
  H67      1.0000 0.96050  0.84540  0.66300  Biso   1.000  H
  H68      1.0000 0.03950  0.15460  0.33700  Biso   1.000  H
  C69      1.0000 0.69910  0.06420  0.63040  Biso   1.000  C
  C70      1.0000 0.30090  0.93580  0.36960  Biso   1.000  C
  H69      1.0000 0.62600  0.01350  0.55680  Biso   1.000  H
  H70      1.0000 0.37400  0.98650  0.44320  Biso   1.000  H
  H71      1.0000 0.67820  0.07740  0.69020  Biso   1.000  H
  H72      1.0000 0.32180  0.92260  0.30980  Biso   1.000  H
  H73      1.0000 0.76510  0.02850  0.64420  Biso   1.000  H
  H74      1.0000 0.23490  0.97150  0.35580  Biso   1.000  H
  C71      1.0000 0.85740  0.27630  0.74160  Biso   1.000  C
  C72      1.0000 0.14260  0.72370  0.25840  Biso   1.000  C
  O3       1.0000 0.66790  0.48660  0.67610  Biso   1.000  O
  O4       1.0000 0.33210  0.51340  0.32390  Biso   1.000  O
  N17      1.0000 0.95450  0.22470  0.73620  Biso   1.000  N
  N18      1.0000 0.04550  0.77530  0.26380  Biso   1.000  N
