data_image0
_cell_length_a       9.8725
_cell_length_b       22.6438
_cell_length_c       17.0294
_cell_angle_alpha    90
_cell_angle_beta     122.972
_cell_angle_gamma    90

_symmetry_space_group_name_H-M    "P 1"
_symmetry_int_tables_number       1

loop_
  _symmetry_equiv_pos_as_xyz
  'x, y, z'

loop_
  _atom_site_label
  _atom_site_occupancy
  _atom_site_fract_x
  _atom_site_fract_y
  _atom_site_fract_z
  _atom_site_thermal_displace_type
  _atom_site_B_iso_or_equiv
  _atom_site_type_symbol
  N1       1.0000 0.58590  0.01200  0.68420  Biso   1.000  N
  N2       1.0000 0.41410  0.51200  0.81580  Biso   1.000  N
  N3       1.0000 0.41410  0.98800  0.31580  Biso   1.000  N
  N4       1.0000 0.58590  0.48800  0.18420  Biso   1.000  N
  H1       1.0000 0.65060  0.03810  0.68560  Biso   1.000  H
  H2       1.0000 0.34940  0.53810  0.81440  Biso   1.000  H
  H3       1.0000 0.34940  0.96190  0.31440  Biso   1.000  H
  H4       1.0000 0.65060  0.46190  0.18560  Biso   1.000  H
  N5       1.0000 0.60300  0.80390  0.34000  Biso   1.000  N
  N6       1.0000 0.39700  0.30390  0.16000  Biso   1.000  N
  N7       1.0000 0.39700  0.19610  0.66000  Biso   1.000  N
  N8       1.0000 0.60300  0.69610  0.84000  Biso   1.000  N
  H5       1.0000 0.51250  0.79590  0.28910  Biso   1.000  H
  H6       1.0000 0.48750  0.29590  0.21090  Biso   1.000  H
  H7       1.0000 0.48750  0.20410  0.71090  Biso   1.000  H
  H8       1.0000 0.51250  0.70410  0.78910  Biso   1.000  H
  C1       1.0000 0.63890  0.97650  0.76600  Biso   1.000  C
  C2       1.0000 0.36110  0.47650  0.73400  Biso   1.000  C
  C3       1.0000 0.36110  0.02350  0.23400  Biso   1.000  C
  C4       1.0000 0.63890  0.52350  0.26600  Biso   1.000  C
  H9       1.0000 0.55330  0.97470  0.77780  Biso   1.000  H
  H10      1.0000 0.44670  0.47470  0.72220  Biso   1.000  H
  H11      1.0000 0.44670  0.02530  0.22220  Biso   1.000  H
  H12      1.0000 0.55330  0.52530  0.27780  Biso   1.000  H
  H13      1.0000 0.73160  0.99520  0.81950  Biso   1.000  H
  H14      1.0000 0.26840  0.49520  0.68050  Biso   1.000  H
  H15      1.0000 0.26840  0.00480  0.18050  Biso   1.000  H
  H16      1.0000 0.73160  0.50480  0.31950  Biso   1.000  H
  C5       1.0000 0.68340  0.91550  0.75680  Biso   1.000  C
  C6       1.0000 0.31660  0.41550  0.74320  Biso   1.000  C
  C7       1.0000 0.31660  0.08450  0.24320  Biso   1.000  C
  C8       1.0000 0.68340  0.58450  0.25680  Biso   1.000  C
  H17      1.0000 0.74100  0.91650  0.72610  Biso   1.000  H
  H18      1.0000 0.25900  0.41650  0.77390  Biso   1.000  H
  H19      1.0000 0.25900  0.08350  0.27390  Biso   1.000  H
  H20      1.0000 0.74100  0.58350  0.22610  Biso   1.000  H
  H21      1.0000 0.58730  0.89220  0.72060  Biso   1.000  H
  H22      1.0000 0.41270  0.39220  0.77940  Biso   1.000  H
  H23      1.0000 0.41270  0.10780  0.27940  Biso   1.000  H
  H24      1.0000 0.58730  0.60780  0.22060  Biso   1.000  H
  H25      1.0000 0.75070  0.89840  0.81790  Biso   1.000  H
  H26      1.0000 0.24930  0.39840  0.68210  Biso   1.000  H
  H27      1.0000 0.24930  0.10160  0.18210  Biso   1.000  H
  H28      1.0000 0.75070  0.60160  0.31790  Biso   1.000  H
  C9       1.0000 0.65240  0.76820  0.42220  Biso   1.000  C
  C10      1.0000 0.34760  0.26820  0.07780  Biso   1.000  C
  C11      1.0000 0.34760  0.23180  0.57780  Biso   1.000  C
  C12      1.0000 0.65240  0.73180  0.92220  Biso   1.000  C
  H29      1.0000 0.66360  0.79310  0.47170  Biso   1.000  H
  H30      1.0000 0.33640  0.29310  0.02830  Biso   1.000  H
  H31      1.0000 0.33640  0.20690  0.52830  Biso   1.000  H
  H32      1.0000 0.66360  0.70690  0.97170  Biso   1.000  H
  H33      1.0000 0.75660  0.75040  0.44420  Biso   1.000  H
  H34      1.0000 0.24340  0.25040  0.05580  Biso   1.000  H
  H35      1.0000 0.24340  0.24960  0.55580  Biso   1.000  H
  H36      1.0000 0.75660  0.74960  0.94420  Biso   1.000  H
  C13      1.0000 0.52870  0.71960  0.39980  Biso   1.000  C
  C14      1.0000 0.47130  0.21960  0.10020  Biso   1.000  C
  C15      1.0000 0.47130  0.28040  0.60020  Biso   1.000  C
  C16      1.0000 0.52870  0.78040  0.89980  Biso   1.000  C
  H37      1.0000 0.42170  0.73560  0.36170  Biso   1.000  H
  H38      1.0000 0.57830  0.23560  0.13830  Biso   1.000  H
  H39      1.0000 0.57830  0.26440  0.63830  Biso   1.000  H
  H40      1.0000 0.42170  0.76440  0.86170  Biso   1.000  H
  H41      1.0000 0.54490  0.70450  0.45700  Biso   1.000  H
  H42      1.0000 0.45510  0.20450  0.04300  Biso   1.000  H
  H43      1.0000 0.45510  0.29550  0.54300  Biso   1.000  H
  H44      1.0000 0.54490  0.79550  0.95700  Biso   1.000  H
  H45      1.0000 0.54190  0.68820  0.36660  Biso   1.000  H
  H46      1.0000 0.45810  0.18820  0.13340  Biso   1.000  H
  H47      1.0000 0.45810  0.31180  0.63340  Biso   1.000  H
  H48      1.0000 0.54190  0.81180  0.86660  Biso   1.000  H
  Cu1      1.0000 0.12980  0.84670  0.22835  Biso   1.000  Cu
  Cu2      1.0000 0.87020  0.34670  0.27165  Biso   1.000  Cu
  Cu3      1.0000 0.87020  0.15330  0.77165  Biso   1.000  Cu
  Cu4      1.0000 0.12980  0.65330  0.72835  Biso   1.000  Cu
  N9       1.0000 0.01130  0.87770  0.10340  Biso   1.000  N
  N10      1.0000 0.98870  0.37770  0.39660  Biso   1.000  N
  N11      1.0000 0.98870  0.12230  0.89660  Biso   1.000  N
  N12      1.0000 0.01130  0.62230  0.60340  Biso   1.000  N
  N13      1.0000 0.93310  0.93140  0.09270  Biso   1.000  N
  N14      1.0000 0.06690  0.43140  0.40730  Biso   1.000  N
  N15      1.0000 0.06690  0.06860  0.90730  Biso   1.000  N
  N16      1.0000 0.93310  0.56860  0.59270  Biso   1.000  N
  O1       1.0000 0.20540  0.68033  0.85190  Biso   1.000  O
  O2       1.0000 0.79460  0.18033  0.64810  Biso   1.000  O
  O3       1.0000 0.79460  0.31967  0.14810  Biso   1.000  O
  O4       1.0000 0.20540  0.81967  0.35190  Biso   1.000  O
  O5       1.0000 0.97280  0.72720  0.77330  Biso   1.000  O
  O6       1.0000 0.02720  0.22720  0.72670  Biso   1.000  O
  O7       1.0000 0.02720  0.27280  0.22670  Biso   1.000  O
  O8       1.0000 0.97280  0.77280  0.27330  Biso   1.000  O
  O9       1.0000 0.22640  0.78547  0.19910  Biso   1.000  O
  O10      1.0000 0.77360  0.28547  0.30090  Biso   1.000  O
  O11      1.0000 0.77360  0.21453  0.80090  Biso   1.000  O
  O12      1.0000 0.22640  0.71453  0.69910  Biso   1.000  O
  O13      1.0000 0.08500  0.92606  0.25330  Biso   1.000  O
  O14      1.0000 0.91500  0.42606  0.24670  Biso   1.000  O
  O15      1.0000 0.91500  0.07394  0.74670  Biso   1.000  O
  O16      1.0000 0.08500  0.57394  0.75330  Biso   1.000  O
  O17      1.0000 0.07520  0.91708  0.50320  Biso   1.000  O
  O18      1.0000 0.92480  0.41708  0.99680  Biso   1.000  O
  O19      1.0000 0.92480  0.08292  0.49680  Biso   1.000  O
  O20      1.0000 0.07520  0.58292  0.00320  Biso   1.000  O
  C17      1.0000 0.09790  0.71320  0.84830  Biso   1.000  C
  C18      1.0000 0.90210  0.21320  0.65170  Biso   1.000  C
  C19      1.0000 0.90210  0.28680  0.15170  Biso   1.000  C
  C20      1.0000 0.09790  0.78680  0.34830  Biso   1.000  C
  C21      1.0000 0.12860  0.73340  0.94000  Biso   1.000  C
  C22      1.0000 0.87140  0.23340  0.56000  Biso   1.000  C
  C23      1.0000 0.87140  0.26660  0.06000  Biso   1.000  C
  C24      1.0000 0.12860  0.76660  0.44000  Biso   1.000  C
  C25      1.0000 0.24530  0.70520  0.02270  Biso   1.000  C
  C26      1.0000 0.75470  0.20520  0.47730  Biso   1.000  C
  C27      1.0000 0.75470  0.29480  0.97730  Biso   1.000  C
  C28      1.0000 0.24530  0.79480  0.52270  Biso   1.000  C
  H49      1.0000 0.30500  0.67440  0.02020  Biso   1.000  H
  H50      1.0000 0.69500  0.17440  0.47980  Biso   1.000  H
  H51      1.0000 0.69500  0.32560  0.97980  Biso   1.000  H
  H52      1.0000 0.30500  0.82560  0.52020  Biso   1.000  H
  C29      1.0000 0.27340  0.72220  0.10750  Biso   1.000  C
  C30      1.0000 0.72660  0.22220  0.39250  Biso   1.000  C
  C31      1.0000 0.72660  0.27780  0.89250  Biso   1.000  C
  C32      1.0000 0.27340  0.77780  0.60750  Biso   1.000  C
  H53      1.0000 0.34970  0.70180  0.16100  Biso   1.000  H
  H54      1.0000 0.65030  0.20180  0.33900  Biso   1.000  H
  H55      1.0000 0.65030  0.29820  0.83900  Biso   1.000  H
  H56      1.0000 0.34970  0.79820  0.66100  Biso   1.000  H
  C33      1.0000 0.18970  0.77000  0.11620  Biso   1.000  C
  C34      1.0000 0.81030  0.27000  0.38380  Biso   1.000  C
  C35      1.0000 0.81030  0.23000  0.88380  Biso   1.000  C
  C36      1.0000 0.18970  0.73000  0.61620  Biso   1.000  C
  C37      1.0000 0.07370  0.80010  0.03140  Biso   1.000  C
  C38      1.0000 0.92630  0.30010  0.46860  Biso   1.000  C
  C39      1.0000 0.92630  0.19990  0.96860  Biso   1.000  C
  C40      1.0000 0.07370  0.69990  0.53140  Biso   1.000  C
  C41      1.0000 0.04440  0.77960  0.94510  Biso   1.000  C
  C42      1.0000 0.95560  0.27960  0.55490  Biso   1.000  C
  C43      1.0000 0.95560  0.22040  0.05490  Biso   1.000  C
  C44      1.0000 0.04440  0.72040  0.44510  Biso   1.000  C
  H57      1.0000 0.96560  0.79810  0.89010  Biso   1.000  H
  H58      1.0000 0.03440  0.29810  0.60990  Biso   1.000  H
  H59      1.0000 0.03440  0.20190  0.10990  Biso   1.000  H
  H60      1.0000 0.96560  0.70190  0.39010  Biso   1.000  H
  C45      1.0000 0.99350  0.85310  0.03050  Biso   1.000  C
  C46      1.0000 0.00650  0.35310  0.46950  Biso   1.000  C
  C47      1.0000 0.00650  0.14690  0.96950  Biso   1.000  C
  C48      1.0000 0.99350  0.64690  0.53050  Biso   1.000  C
  H61      1.0000 0.92350  0.87100  0.97290  Biso   1.000  H
  H62      1.0000 0.07650  0.37100  0.52710  Biso   1.000  H
  H63      1.0000 0.07650  0.12900  0.02710  Biso   1.000  H
  H64      1.0000 0.92350  0.62900  0.47290  Biso   1.000  H
  C49      1.0000 0.98280  0.95200  0.17640  Biso   1.000  C
  C50      1.0000 0.01720  0.45200  0.32360  Biso   1.000  C
  C51      1.0000 0.01720  0.04800  0.82360  Biso   1.000  C
  C52      1.0000 0.98280  0.54800  0.67640  Biso   1.000  C
  C53      1.0000 0.91890  0.01080  0.18250  Biso   1.000  C
  C54      1.0000 0.08110  0.51080  0.31750  Biso   1.000  C
  C55      1.0000 0.08110  0.98920  0.81750  Biso   1.000  C
  C56      1.0000 0.91890  0.48920  0.68250  Biso   1.000  C
  C57      1.0000 0.85420  0.04950  0.10780  Biso   1.000  C
  C58      1.0000 0.14580  0.54950  0.39220  Biso   1.000  C
  C59      1.0000 0.14580  0.95050  0.89220  Biso   1.000  C
  C60      1.0000 0.85420  0.45050  0.60780  Biso   1.000  C
  H65      1.0000 0.84260  0.03770  0.05210  Biso   1.000  H
  H66      1.0000 0.15740  0.53770  0.44790  Biso   1.000  H
  H67      1.0000 0.15740  0.96230  0.94790  Biso   1.000  H
  H68      1.0000 0.84260  0.46230  0.55210  Biso   1.000  H
  C61      1.0000 0.80580  0.10650  0.11520  Biso   1.000  C
  C62      1.0000 0.19420  0.60650  0.38480  Biso   1.000  C
  C63      1.0000 0.19420  0.89350  0.88480  Biso   1.000  C
  C64      1.0000 0.80580  0.39350  0.61520  Biso   1.000  C
  H69      1.0000 0.76150  0.13230  0.06470  Biso   1.000  H
  H70      1.0000 0.23850  0.63230  0.43530  Biso   1.000  H
  H71      1.0000 0.23850  0.86770  0.93530  Biso   1.000  H
  H72      1.0000 0.76150  0.36770  0.56470  Biso   1.000  H
  C65      1.0000 0.82480  0.12380  0.19850  Biso   1.000  C
  C66      1.0000 0.17520  0.62380  0.30150  Biso   1.000  C
  C67      1.0000 0.17520  0.87620  0.80150  Biso   1.000  C
  C68      1.0000 0.82480  0.37620  0.69850  Biso   1.000  C
  H73      1.0000 0.79570  0.16180  0.20440  Biso   1.000  H
  H74      1.0000 0.20430  0.66180  0.29560  Biso   1.000  H
  H75      1.0000 0.20430  0.83820  0.79560  Biso   1.000  H
  H76      1.0000 0.79570  0.33820  0.70440  Biso   1.000  H
  C69      1.0000 0.88680  0.08500  0.27310  Biso   1.000  C
  C70      1.0000 0.11320  0.58500  0.22690  Biso   1.000  C
  C71      1.0000 0.11320  0.91500  0.72690  Biso   1.000  C
  C72      1.0000 0.88680  0.41500  0.77310  Biso   1.000  C
  H77      1.0000 0.89810  0.09700  0.32860  Biso   1.000  H
  H78      1.0000 0.10190  0.59700  0.17140  Biso   1.000  H
  H79      1.0000 0.10190  0.90300  0.67140  Biso   1.000  H
  H80      1.0000 0.89810  0.40300  0.82860  Biso   1.000  H
  C73      1.0000 0.93230  0.02800  0.26540  Biso   1.000  C
  C74      1.0000 0.06770  0.52800  0.23460  Biso   1.000  C
  C75      1.0000 0.06770  0.97200  0.73460  Biso   1.000  C
  C76      1.0000 0.93230  0.47200  0.76540  Biso   1.000  C
  C77      1.0000 0.98640  0.98740  0.34720  Biso   1.000  C
  C78      1.0000 0.01360  0.48740  0.15280  Biso   1.000  C
  C79      1.0000 0.01360  0.01260  0.65280  Biso   1.000  C
  C80      1.0000 0.98640  0.51260  0.84720  Biso   1.000  C
  C81      1.0000 0.88490  0.94230  0.34130  Biso   1.000  C
  C82      1.0000 0.11510  0.44230  0.15870  Biso   1.000  C
  C83      1.0000 0.11510  0.05770  0.65870  Biso   1.000  C
  C84      1.0000 0.88490  0.55770  0.84130  Biso   1.000  C
  C85      1.0000 0.93340  0.90700  0.42100  Biso   1.000  C
  C86      1.0000 0.06660  0.40700  0.07900  Biso   1.000  C
  C87      1.0000 0.06660  0.09300  0.57900  Biso   1.000  C
  C88      1.0000 0.93340  0.59300  0.92100  Biso   1.000  C
  C89      1.0000 0.17790  0.95990  0.50950  Biso   1.000  C
  C90      1.0000 0.82210  0.45990  0.99050  Biso   1.000  C
  C91      1.0000 0.82210  0.04010  0.49050  Biso   1.000  C
  C92      1.0000 0.17790  0.54010  0.00950  Biso   1.000  C
  C93      1.0000 0.13520  0.99700  0.43250  Biso   1.000  C
  C94      1.0000 0.86480  0.49700  0.06750  Biso   1.000  C
  C95      1.0000 0.86480  0.00300  0.56750  Biso   1.000  C
  C96      1.0000 0.13520  0.50300  0.93250  Biso   1.000  C
  C97      1.0000 0.25070  0.04010  0.44620  Biso   1.000  C
  C98      1.0000 0.74930  0.54010  0.05380  Biso   1.000  C
  C99      1.0000 0.74930  0.95990  0.55380  Biso   1.000  C
  C100     1.0000 0.25070  0.45990  0.94620  Biso   1.000  C
  H81      1.0000 0.22610  0.06550  0.39730  Biso   1.000  H
  H82      1.0000 0.77390  0.56550  0.10270  Biso   1.000  H
  H83      1.0000 0.77390  0.93450  0.60270  Biso   1.000  H
  H84      1.0000 0.22610  0.43450  0.89730  Biso   1.000  H
  C101     1.0000 0.39760  0.04540  0.52940  Biso   1.000  C
  C102     1.0000 0.60240  0.54540  0.97060  Biso   1.000  C
  C103     1.0000 0.60240  0.95460  0.47060  Biso   1.000  C
  C104     1.0000 0.39760  0.45460  0.02940  Biso   1.000  C
  C105     1.0000 0.51590  0.09260  0.54220  Biso   1.000  C
  C106     1.0000 0.48410  0.59260  0.95780  Biso   1.000  C
  C107     1.0000 0.48410  0.90740  0.45780  Biso   1.000  C
  C108     1.0000 0.51590  0.40740  0.04220  Biso   1.000  C
  H85      1.0000 0.47340  0.11380  0.48450  Biso   1.000  H
  H86      1.0000 0.52660  0.61380  0.01550  Biso   1.000  H
  H87      1.0000 0.52660  0.88620  0.51550  Biso   1.000  H
  H88      1.0000 0.47340  0.38620  0.98450  Biso   1.000  H
  H89      1.0000 0.61670  0.07460  0.55970  Biso   1.000  H
  H90      1.0000 0.38330  0.57460  0.94030  Biso   1.000  H
  H91      1.0000 0.38330  0.92540  0.44030  Biso   1.000  H
  H92      1.0000 0.61670  0.42540  0.05970  Biso   1.000  H
  H93      1.0000 0.53290  0.11950  0.59040  Biso   1.000  H
  H94      1.0000 0.46710  0.61950  0.90960  Biso   1.000  H
  H95      1.0000 0.46710  0.88050  0.40960  Biso   1.000  H
  H96      1.0000 0.53290  0.38050  0.09040  Biso   1.000  H
  C109     1.0000 0.32450  0.96430  0.59410  Biso   1.000  C
  C110     1.0000 0.67550  0.46430  0.90590  Biso   1.000  C
  C111     1.0000 0.67550  0.03570  0.40590  Biso   1.000  C
  C112     1.0000 0.32450  0.53570  0.09410  Biso   1.000  C
  H97      1.0000 0.34770  0.93970  0.64360  Biso   1.000  H
  H98      1.0000 0.65230  0.43970  0.85640  Biso   1.000  H
  H99      1.0000 0.65230  0.06030  0.35640  Biso   1.000  H
  H100     1.0000 0.34770  0.56030  0.14360  Biso   1.000  H
  C113     1.0000 0.43710  0.00580  0.60470  Biso   1.000  C
  C114     1.0000 0.56290  0.50580  0.89530  Biso   1.000  C
  C115     1.0000 0.56290  0.99420  0.39530  Biso   1.000  C
  C116     1.0000 0.43710  0.49420  0.10470  Biso   1.000  C
  C117     1.0000 0.83990  0.86190  0.42100  Biso   1.000  C
  C118     1.0000 0.16010  0.36190  0.07900  Biso   1.000  C
  C119     1.0000 0.16010  0.13810  0.57900  Biso   1.000  C
  C120     1.0000 0.83990  0.63810  0.92100  Biso   1.000  C
  H101     1.0000 0.87550  0.84020  0.47530  Biso   1.000  H
  H102     1.0000 0.12450  0.34020  0.02470  Biso   1.000  H
  H103     1.0000 0.12450  0.15980  0.52470  Biso   1.000  H
  H104     1.0000 0.87550  0.65980  0.97530  Biso   1.000  H
  C121     1.0000 0.69170  0.84870  0.33950  Biso   1.000  C
  C122     1.0000 0.30830  0.34870  0.16050  Biso   1.000  C
  C123     1.0000 0.30830  0.15130  0.66050  Biso   1.000  C
  C124     1.0000 0.69170  0.65130  0.83950  Biso   1.000  C
  C125     1.0000 0.47990  0.87020  0.16830  Biso   1.000  C
  C126     1.0000 0.52010  0.37020  0.33170  Biso   1.000  C
  C127     1.0000 0.52010  0.12980  0.83170  Biso   1.000  C
  C128     1.0000 0.47990  0.62980  0.66830  Biso   1.000  C
  H105     1.0000 0.47740  0.82940  0.15250  Biso   1.000  H
  H106     1.0000 0.52260  0.32940  0.34750  Biso   1.000  H
  H107     1.0000 0.52260  0.17060  0.84750  Biso   1.000  H
  H108     1.0000 0.47740  0.67060  0.65250  Biso   1.000  H
  H109     1.0000 0.46740  0.89450  0.11850  Biso   1.000  H
  H110     1.0000 0.53260  0.39450  0.38150  Biso   1.000  H
  H111     1.0000 0.53260  0.10550  0.88150  Biso   1.000  H
  H112     1.0000 0.46740  0.60550  0.61850  Biso   1.000  H
  H113     1.0000 0.39340  0.87810  0.17710  Biso   1.000  H
  H114     1.0000 0.60660  0.37810  0.32290  Biso   1.000  H
  H115     1.0000 0.60660  0.12190  0.82290  Biso   1.000  H
  H116     1.0000 0.39340  0.62190  0.67710  Biso   1.000  H
  C129     1.0000 0.63750  0.88370  0.25650  Biso   1.000  C
  C130     1.0000 0.36250  0.38370  0.24350  Biso   1.000  C
  C131     1.0000 0.36250  0.11630  0.74350  Biso   1.000  C
  C132     1.0000 0.63750  0.61630  0.75650  Biso   1.000  C
  C133     1.0000 0.73400  0.92790  0.25970  Biso   1.000  C
  C134     1.0000 0.26600  0.42790  0.24030  Biso   1.000  C
  C135     1.0000 0.26600  0.07210  0.74030  Biso   1.000  C
  C136     1.0000 0.73400  0.57210  0.75970  Biso   1.000  C
  H117     1.0000 0.69900  0.94970  0.20570  Biso   1.000  H
  H118     1.0000 0.30100  0.44970  0.29430  Biso   1.000  H
  H119     1.0000 0.30100  0.05030  0.79430  Biso   1.000  H
  H120     1.0000 0.69900  0.55030  0.70570  Biso   1.000  H
  N17      1.0000 0.58000  0.99940  0.69100  Biso   1.000  N
  N18      1.0000 0.42000  0.49940  0.80900  Biso   1.000  N
  N19      1.0000 0.42000  0.00060  0.30900  Biso   1.000  N
  N20      1.0000 0.58000  0.50060  0.19100  Biso   1.000  N
  H121     1.0000 0.64150  0.02990  0.70710  Biso   1.000  H
  H122     1.0000 0.35850  0.52990  0.79290  Biso   1.000  H
  H123     1.0000 0.35850  0.97010  0.29290  Biso   1.000  H
  H124     1.0000 0.64150  0.47010  0.20710  Biso   1.000  H
  N21      1.0000 0.58300  0.80700  0.33300  Biso   1.000  N
  N22      1.0000 0.41700  0.30700  0.16700  Biso   1.000  N
  N23      1.0000 0.41700  0.19300  0.66700  Biso   1.000  N
  N24      1.0000 0.58300  0.69300  0.83300  Biso   1.000  N
  H125     1.0000 0.49220  0.80450  0.27980  Biso   1.000  H
  H126     1.0000 0.50780  0.30450  0.22020  Biso   1.000  H
  H127     1.0000 0.50780  0.19550  0.72020  Biso   1.000  H
  H128     1.0000 0.49220  0.69550  0.77980  Biso   1.000  H
  C137     1.0000 0.64900  0.95350  0.75900  Biso   1.000  C
  C138     1.0000 0.35100  0.45350  0.74100  Biso   1.000  C
  C139     1.0000 0.35100  0.04650  0.24100  Biso   1.000  C
  C140     1.0000 0.64900  0.54650  0.25900  Biso   1.000  C
  H129     1.0000 0.58040  0.91880  0.73520  Biso   1.000  H
  H130     1.0000 0.41960  0.41880  0.76480  Biso   1.000  H
  H131     1.0000 0.41960  0.08120  0.26480  Biso   1.000  H
  H132     1.0000 0.58040  0.58120  0.23520  Biso   1.000  H
  H133     1.0000 0.65340  0.96630  0.81520  Biso   1.000  H
  H134     1.0000 0.34660  0.46630  0.68480  Biso   1.000  H
  H135     1.0000 0.34660  0.03370  0.18480  Biso   1.000  H
  H136     1.0000 0.65340  0.53370  0.31520  Biso   1.000  H
  C141     1.0000 0.81700  0.93730  0.78500  Biso   1.000  C
  C142     1.0000 0.18300  0.43730  0.71500  Biso   1.000  C
  C143     1.0000 0.18300  0.06270  0.21500  Biso   1.000  C
  C144     1.0000 0.81700  0.56270  0.28500  Biso   1.000  C
  H137     1.0000 0.81050  0.91380  0.73650  Biso   1.000  H
  H138     1.0000 0.18950  0.41380  0.76350  Biso   1.000  H
  H139     1.0000 0.18950  0.08620  0.26350  Biso   1.000  H
  H140     1.0000 0.81050  0.58620  0.23650  Biso   1.000  H
  H141     1.0000 0.87120  0.91530  0.84280  Biso   1.000  H
  H142     1.0000 0.12880  0.41530  0.65720  Biso   1.000  H
  H143     1.0000 0.12880  0.08470  0.15720  Biso   1.000  H
  H144     1.0000 0.87120  0.58470  0.34280  Biso   1.000  H
  H145     1.0000 0.87720  0.97270  0.79340  Biso   1.000  H
  H146     1.0000 0.12280  0.47270  0.70660  Biso   1.000  H
  H147     1.0000 0.12280  0.02730  0.20660  Biso   1.000  H
  H148     1.0000 0.87720  0.52730  0.29340  Biso   1.000  H
  C145     1.0000 0.60900  0.76910  0.40500  Biso   1.000  C
  C146     1.0000 0.39100  0.26910  0.09500  Biso   1.000  C
  C147     1.0000 0.39100  0.23090  0.59500  Biso   1.000  C
  C148     1.0000 0.60900  0.73090  0.90500  Biso   1.000  C
  H149     1.0000 0.52920  0.77670  0.41960  Biso   1.000  H
  H150     1.0000 0.47080  0.27670  0.08040  Biso   1.000  H
  H151     1.0000 0.47080  0.22330  0.58040  Biso   1.000  H
  H152     1.0000 0.52920  0.72330  0.91960  Biso   1.000  H
  H153     1.0000 0.71510  0.77690  0.46040  Biso   1.000  H
  H154     1.0000 0.28490  0.27690  0.03960  Biso   1.000  H
  H155     1.0000 0.28490  0.22310  0.53960  Biso   1.000  H
  H156     1.0000 0.71510  0.72310  0.96040  Biso   1.000  H
  C149     1.0000 0.60000  0.70420  0.37700  Biso   1.000  C
  C150     1.0000 0.40000  0.20420  0.12300  Biso   1.000  C
  C151     1.0000 0.40000  0.29580  0.62300  Biso   1.000  C
  C152     1.0000 0.60000  0.79580  0.87700  Biso   1.000  C
  H157     1.0000 0.49200  0.69520  0.32630  Biso   1.000  H
  H158     1.0000 0.50800  0.19520  0.17370  Biso   1.000  H
  H159     1.0000 0.50800  0.30480  0.67370  Biso   1.000  H
  H160     1.0000 0.49200  0.80480  0.82630  Biso   1.000  H
  H161     1.0000 0.62860  0.67950  0.42960  Biso   1.000  H
  H162     1.0000 0.37140  0.17950  0.07040  Biso   1.000  H
  H163     1.0000 0.37140  0.32050  0.57040  Biso   1.000  H
  H164     1.0000 0.62860  0.82050  0.92960  Biso   1.000  H
  H165     1.0000 0.67350  0.69730  0.35750  Biso   1.000  H
  H166     1.0000 0.32650  0.19730  0.14250  Biso   1.000  H
  H167     1.0000 0.32650  0.30270  0.64250  Biso   1.000  H
  H168     1.0000 0.67350  0.80270  0.85750  Biso   1.000  H
