data_image0
_cell_length_a       12.7026
_cell_length_b       6.8787
_cell_length_c       10.8189
_cell_angle_alpha    90
_cell_angle_beta     95.426
_cell_angle_gamma    90

_symmetry_space_group_name_H-M    "P 1"
_symmetry_int_tables_number       1

loop_
  _symmetry_equiv_pos_as_xyz
  'x, y, z'

loop_
  _atom_site_label
  _atom_site_occupancy
  _atom_site_fract_x
  _atom_site_fract_y
  _atom_site_fract_z
  _atom_site_thermal_displace_type
  _atom_site_B_iso_or_equiv
  _atom_site_type_symbol
  Cu1      1.0000 0.50000  0.26929  0.25000  Biso   1.000  Cu
  Cu2      1.0000 0.00000  0.76929  0.25000  Biso   1.000  Cu
  Cu3      1.0000 0.50000  0.73071  0.75000  Biso   1.000  Cu
  Cu4      1.0000 0.00000  0.23071  0.75000  Biso   1.000  Cu
  Ti1      1.0000 0.25000  0.25000  0.00000  Biso   1.000  Ti
  Ti2      1.0000 0.75000  0.75000  0.00000  Biso   1.000  Ti
  Ti3      1.0000 0.25000  0.75000  0.50000  Biso   1.000  Ti
  Ti4      1.0000 0.75000  0.25000  0.50000  Biso   1.000  Ti
  F1       1.0000 0.39252  0.26850  0.06052  Biso   1.000  F
  F2       1.0000 0.89252  0.76850  0.06052  Biso   1.000  F
  F3       1.0000 0.39252  0.73150  0.56052  Biso   1.000  F
  F4       1.0000 0.89252  0.23150  0.56052  Biso   1.000  F
  F5       1.0000 0.60748  0.73150  0.93948  Biso   1.000  F
  F6       1.0000 0.10748  0.23150  0.93948  Biso   1.000  F
  F7       1.0000 0.60748  0.26850  0.43948  Biso   1.000  F
  F8       1.0000 0.10748  0.76850  0.43948  Biso   1.000  F
  F9       1.0000 0.22181  0.47030  0.08830  Biso   1.000  F
  F10      1.0000 0.72181  0.97030  0.08830  Biso   1.000  F
  F11      1.0000 0.22181  0.52970  0.58830  Biso   1.000  F
  F12      1.0000 0.72181  0.02970  0.58830  Biso   1.000  F
  F13      1.0000 0.77819  0.52970  0.91170  Biso   1.000  F
  F14      1.0000 0.27819  0.02970  0.91170  Biso   1.000  F
  F15      1.0000 0.77819  0.47030  0.41170  Biso   1.000  F
  F16      1.0000 0.27819  0.97030  0.41170  Biso   1.000  F
  F17      1.0000 0.22550  0.09800  0.13559  Biso   1.000  F
  F18      1.0000 0.72550  0.59800  0.13559  Biso   1.000  F
  F19      1.0000 0.22550  0.90200  0.63559  Biso   1.000  F
  F20      1.0000 0.72550  0.40200  0.63559  Biso   1.000  F
  F21      1.0000 0.77450  0.90200  0.86441  Biso   1.000  F
  F22      1.0000 0.27450  0.40200  0.86441  Biso   1.000  F
  F23      1.0000 0.77450  0.09800  0.36441  Biso   1.000  F
  F24      1.0000 0.27450  0.59800  0.36441  Biso   1.000  F
  O1       1.0000 0.62101  0.27490  0.15230  Biso   1.000  O
  O2       1.0000 0.12101  0.77490  0.15230  Biso   1.000  O
  O3       1.0000 0.62101  0.72510  0.65230  Biso   1.000  O
  O4       1.0000 0.12101  0.22510  0.65230  Biso   1.000  O
  O5       1.0000 0.37899  0.72510  0.84770  Biso   1.000  O
  O6       1.0000 0.87899  0.22510  0.84770  Biso   1.000  O
  O7       1.0000 0.37899  0.27490  0.34770  Biso   1.000  O
  O8       1.0000 0.87899  0.77490  0.34770  Biso   1.000  O
  N1       1.0000 0.50000  0.97120  0.25000  Biso   1.000  N
  N2       1.0000 0.00000  0.47120  0.25000  Biso   1.000  N
  N3       1.0000 0.50000  0.02880  0.75000  Biso   1.000  N
  N4       1.0000 0.00000  0.52880  0.75000  Biso   1.000  N
  N5       1.0000 0.50000  0.56670  0.25000  Biso   1.000  N
  N6       1.0000 0.00000  0.06670  0.25000  Biso   1.000  N
  N7       1.0000 0.50000  0.43330  0.75000  Biso   1.000  N
  N8       1.0000 0.00000  0.93330  0.75000  Biso   1.000  N
  C1       1.0000 0.46090  0.66830  0.15060  Biso   1.000  C
  C2       1.0000 0.96090  0.16830  0.15060  Biso   1.000  C
  C3       1.0000 0.46090  0.33170  0.65060  Biso   1.000  C
  C4       1.0000 0.96090  0.83170  0.65060  Biso   1.000  C
  C5       1.0000 0.53910  0.33170  0.84940  Biso   1.000  C
  C6       1.0000 0.03910  0.83170  0.84940  Biso   1.000  C
  C7       1.0000 0.53910  0.66830  0.34940  Biso   1.000  C
  C8       1.0000 0.03910  0.16830  0.34940  Biso   1.000  C
  H1       1.0000 0.43260  0.60070  0.07830  Biso   1.000  H
  H2       1.0000 0.93260  0.10070  0.07830  Biso   1.000  H
  H3       1.0000 0.43260  0.39930  0.57830  Biso   1.000  H
  H4       1.0000 0.93260  0.89930  0.57830  Biso   1.000  H
  H5       1.0000 0.56740  0.39930  0.92170  Biso   1.000  H
  H6       1.0000 0.06740  0.89930  0.92170  Biso   1.000  H
  H7       1.0000 0.56740  0.60070  0.42170  Biso   1.000  H
  H8       1.0000 0.06740  0.10070  0.42170  Biso   1.000  H
  C9       1.0000 0.46070  0.86990  0.15040  Biso   1.000  C
  C10      1.0000 0.96070  0.36990  0.15040  Biso   1.000  C
  C11      1.0000 0.46070  0.13010  0.65040  Biso   1.000  C
  C12      1.0000 0.96070  0.63010  0.65040  Biso   1.000  C
  C13      1.0000 0.53930  0.13010  0.84960  Biso   1.000  C
  C14      1.0000 0.03930  0.63010  0.84960  Biso   1.000  C
  C15      1.0000 0.53930  0.86990  0.34960  Biso   1.000  C
  C16      1.0000 0.03930  0.36990  0.34960  Biso   1.000  C
  H9       1.0000 0.43210  0.93740  0.07830  Biso   1.000  H
  H10      1.0000 0.93210  0.43740  0.07830  Biso   1.000  H
  H11      1.0000 0.43210  0.06260  0.57830  Biso   1.000  H
  H12      1.0000 0.93210  0.56260  0.57830  Biso   1.000  H
  H13      1.0000 0.56790  0.06260  0.92170  Biso   1.000  H
  H14      1.0000 0.06790  0.56260  0.92170  Biso   1.000  H
  H15      1.0000 0.56790  0.93740  0.42170  Biso   1.000  H
  H16      1.0000 0.06790  0.43740  0.42170  Biso   1.000  H
  H17      1.0000 0.66020  0.18210  0.14330  Biso   1.000  H
  H18      1.0000 0.16020  0.68210  0.14330  Biso   1.000  H
  H19      1.0000 0.66020  0.81790  0.64330  Biso   1.000  H
  H20      1.0000 0.16020  0.31790  0.64330  Biso   1.000  H
  H21      1.0000 0.33980  0.81790  0.85670  Biso   1.000  H
  H22      1.0000 0.83980  0.31790  0.85670  Biso   1.000  H
  H23      1.0000 0.33980  0.18210  0.35670  Biso   1.000  H
  H24      1.0000 0.83980  0.68210  0.35670  Biso   1.000  H
  H25      1.0000 0.66110  0.36930  0.15870  Biso   1.000  H
  H26      1.0000 0.16110  0.86930  0.15870  Biso   1.000  H
  H27      1.0000 0.66110  0.63070  0.65870  Biso   1.000  H
  H28      1.0000 0.16110  0.13070  0.65870  Biso   1.000  H
  H29      1.0000 0.33890  0.63070  0.84130  Biso   1.000  H
  H30      1.0000 0.83890  0.13070  0.84130  Biso   1.000  H
  H31      1.0000 0.33890  0.36930  0.34130  Biso   1.000  H
  H32      1.0000 0.83890  0.86930  0.34130  Biso   1.000  H
