data_image0
_cell_length_a       15.999
_cell_length_b       9.766
_cell_length_c       14.588
_cell_angle_alpha    90
_cell_angle_beta     90
_cell_angle_gamma    90

_symmetry_space_group_name_H-M    "P 1"
_symmetry_int_tables_number       1

loop_
  _symmetry_equiv_pos_as_xyz
  'x, y, z'

loop_
  _atom_site_label
  _atom_site_occupancy
  _atom_site_fract_x
  _atom_site_fract_y
  _atom_site_fract_z
  _atom_site_thermal_displace_type
  _atom_site_B_iso_or_equiv
  _atom_site_type_symbol
  Cu1      1.0000 0.48942  0.15407  0.82921  Biso   1.000  Cu
  Cu2      1.0000 0.01058  0.34593  0.82921  Biso   1.000  Cu
  Cu3      1.0000 0.98942  0.84593  0.67079  Biso   1.000  Cu
  Cu4      1.0000 0.51058  0.65407  0.67079  Biso   1.000  Cu
  Cu5      1.0000 0.51058  0.84593  0.17079  Biso   1.000  Cu
  Cu6      1.0000 0.98942  0.65407  0.17079  Biso   1.000  Cu
  Cu7      1.0000 0.01058  0.15407  0.32921  Biso   1.000  Cu
  Cu8      1.0000 0.48942  0.34593  0.32921  Biso   1.000  Cu
  O1       1.0000 0.41406  0.16260  0.93256  Biso   1.000  O
  O2       1.0000 0.08594  0.33740  0.93256  Biso   1.000  O
  O3       1.0000 0.91406  0.83740  0.56744  Biso   1.000  O
  O4       1.0000 0.58594  0.66260  0.56744  Biso   1.000  O
  O5       1.0000 0.58594  0.83740  0.06744  Biso   1.000  O
  O6       1.0000 0.91406  0.66260  0.06744  Biso   1.000  O
  O7       1.0000 0.08594  0.16260  0.43256  Biso   1.000  O
  O8       1.0000 0.41406  0.33740  0.43256  Biso   1.000  O
  O9       1.0000 0.41274  0.23060  0.07797  Biso   1.000  O
  O10      1.0000 0.08726  0.26940  0.07797  Biso   1.000  O
  O11      1.0000 0.91274  0.76940  0.42203  Biso   1.000  O
  O12      1.0000 0.58726  0.73060  0.42203  Biso   1.000  O
  O13      1.0000 0.58726  0.76940  0.92203  Biso   1.000  O
  O14      1.0000 0.91274  0.73060  0.92203  Biso   1.000  O
  O15      1.0000 0.08726  0.23060  0.57797  Biso   1.000  O
  O16      1.0000 0.41274  0.26940  0.57797  Biso   1.000  O
  O17      1.0000 0.50762  0.07210  0.21718  Biso   1.000  O
  O18      1.0000 0.99238  0.42790  0.21718  Biso   1.000  O
  O19      1.0000 0.00762  0.92790  0.28282  Biso   1.000  O
  O20      1.0000 0.49238  0.57210  0.28282  Biso   1.000  O
  O21      1.0000 0.49238  0.92790  0.78282  Biso   1.000  O
  O22      1.0000 0.00762  0.57210  0.78282  Biso   1.000  O
  O23      1.0000 0.99238  0.07210  0.71718  Biso   1.000  O
  O24      1.0000 0.50762  0.42790  0.71718  Biso   1.000  O
  O25      1.0000 0.55815  0.28680  0.22487  Biso   1.000  O
  O26      1.0000 0.94185  0.21320  0.22487  Biso   1.000  O
  O27      1.0000 0.05815  0.71320  0.27513  Biso   1.000  O
  O28      1.0000 0.44185  0.78680  0.27513  Biso   1.000  O
  O29      1.0000 0.44185  0.71320  0.77513  Biso   1.000  O
  O30      1.0000 0.05815  0.78680  0.77513  Biso   1.000  O
  O31      1.0000 0.94185  0.28680  0.72487  Biso   1.000  O
  O32      1.0000 0.55815  0.21320  0.72487  Biso   1.000  O
  O33      1.0000 0.82953  0.02240  0.08245  Biso   1.000  O
  O34      1.0000 0.67047  0.47760  0.08245  Biso   1.000  O
  O35      1.0000 0.32953  0.97760  0.41755  Biso   1.000  O
  O36      1.0000 0.17047  0.52240  0.41755  Biso   1.000  O
  O37      1.0000 0.17047  0.97760  0.91755  Biso   1.000  O
  O38      1.0000 0.32953  0.52240  0.91755  Biso   1.000  O
  O39      1.0000 0.67047  0.02240  0.58245  Biso   1.000  O
  O40      1.0000 0.82953  0.47760  0.58245  Biso   1.000  O
  H1       1.0000 0.88100  0.00720  0.07750  Biso   1.000  H
  H2       1.0000 0.61900  0.49280  0.07750  Biso   1.000  H
  H3       1.0000 0.38100  0.99280  0.42250  Biso   1.000  H
  H4       1.0000 0.11900  0.50720  0.42250  Biso   1.000  H
  H5       1.0000 0.11900  0.99280  0.92250  Biso   1.000  H
  H6       1.0000 0.38100  0.50720  0.92250  Biso   1.000  H
  H7       1.0000 0.61900  0.00720  0.57750  Biso   1.000  H
  H8       1.0000 0.88100  0.49280  0.57750  Biso   1.000  H
  O41      1.0000 0.84132  0.06640  0.93246  Biso   1.000  O
  O42      1.0000 0.65868  0.43360  0.93246  Biso   1.000  O
  O43      1.0000 0.34132  0.93360  0.56754  Biso   1.000  O
  O44      1.0000 0.15868  0.56640  0.56754  Biso   1.000  O
  O45      1.0000 0.15868  0.93360  0.06754  Biso   1.000  O
  O46      1.0000 0.34132  0.56640  0.06754  Biso   1.000  O
  O47      1.0000 0.65868  0.06640  0.43246  Biso   1.000  O
  O48      1.0000 0.84132  0.43360  0.43246  Biso   1.000  O
  O49      1.0000 0.38929  0.16850  0.75107  Biso   1.000  O
  O50      1.0000 0.11071  0.33150  0.75107  Biso   1.000  O
  O51      1.0000 0.88929  0.83150  0.74893  Biso   1.000  O
  O52      1.0000 0.61071  0.66850  0.74893  Biso   1.000  O
  O53      1.0000 0.61071  0.83150  0.24893  Biso   1.000  O
  O54      1.0000 0.88929  0.66850  0.24893  Biso   1.000  O
  O55      1.0000 0.11071  0.16850  0.25107  Biso   1.000  O
  O56      1.0000 0.38929  0.33150  0.25107  Biso   1.000  O
  H9       1.0000 0.34500  0.19700  0.78200  Biso   1.000  H
  H10      1.0000 0.15500  0.30300  0.78200  Biso   1.000  H
  H11      1.0000 0.84500  0.80300  0.71800  Biso   1.000  H
  H12      1.0000 0.65500  0.69700  0.71800  Biso   1.000  H
  H13      1.0000 0.65500  0.80300  0.21800  Biso   1.000  H
  H14      1.0000 0.84500  0.69700  0.21800  Biso   1.000  H
  H15      1.0000 0.15500  0.19700  0.28200  Biso   1.000  H
  H16      1.0000 0.34500  0.30300  0.28200  Biso   1.000  H
  H17      1.0000 0.39700  0.20300  0.70100  Biso   1.000  H
  H18      1.0000 0.10300  0.29700  0.70100  Biso   1.000  H
  H19      1.0000 0.89700  0.79700  0.79900  Biso   1.000  H
  H20      1.0000 0.60300  0.70300  0.79900  Biso   1.000  H
  H21      1.0000 0.60300  0.79700  0.29900  Biso   1.000  H
  H22      1.0000 0.89700  0.70300  0.29900  Biso   1.000  H
  H23      1.0000 0.10300  0.20300  0.20100  Biso   1.000  H
  H24      1.0000 0.39700  0.29700  0.20100  Biso   1.000  H
  N1       1.0000 0.57726  0.13140  0.93019  Biso   1.000  N
  N2       1.0000 0.92274  0.36860  0.93019  Biso   1.000  N
  N3       1.0000 0.07726  0.86860  0.56981  Biso   1.000  N
  N4       1.0000 0.42274  0.63140  0.56981  Biso   1.000  N
  N5       1.0000 0.42274  0.86860  0.06981  Biso   1.000  N
  N6       1.0000 0.07726  0.63140  0.06981  Biso   1.000  N
  N7       1.0000 0.92274  0.13140  0.43019  Biso   1.000  N
  N8       1.0000 0.57726  0.36860  0.43019  Biso   1.000  N
  C1       1.0000 0.44953  0.18950  0.00870  Biso   1.000  C
  C2       1.0000 0.05047  0.31050  0.00870  Biso   1.000  C
  C3       1.0000 0.94953  0.81050  0.49130  Biso   1.000  C
  C4       1.0000 0.55047  0.68950  0.49130  Biso   1.000  C
  C5       1.0000 0.55047  0.81050  0.99130  Biso   1.000  C
  C6       1.0000 0.94953  0.68950  0.99130  Biso   1.000  C
  C7       1.0000 0.05047  0.18950  0.50870  Biso   1.000  C
  C8       1.0000 0.44953  0.31050  0.50870  Biso   1.000  C
  C9       1.0000 0.54244  0.16090  0.01220  Biso   1.000  C
  C10      1.0000 0.95756  0.33910  0.01220  Biso   1.000  C
  C11      1.0000 0.04244  0.83910  0.48780  Biso   1.000  C
  C12      1.0000 0.45756  0.66090  0.48780  Biso   1.000  C
  C13      1.0000 0.45756  0.83910  0.98780  Biso   1.000  C
  C14      1.0000 0.04244  0.66090  0.98780  Biso   1.000  C
  C15      1.0000 0.95756  0.16090  0.51220  Biso   1.000  C
  C16      1.0000 0.54244  0.33910  0.51220  Biso   1.000  C
  C17      1.0000 0.58698  0.15530  0.09350  Biso   1.000  C
  C18      1.0000 0.91302  0.34470  0.09350  Biso   1.000  C
  C19      1.0000 0.08698  0.84470  0.40650  Biso   1.000  C
  C20      1.0000 0.41302  0.65530  0.40650  Biso   1.000  C
  C21      1.0000 0.41302  0.84470  0.90650  Biso   1.000  C
  C22      1.0000 0.08698  0.65530  0.90650  Biso   1.000  C
  C23      1.0000 0.91302  0.15530  0.59350  Biso   1.000  C
  C24      1.0000 0.58698  0.34470  0.59350  Biso   1.000  C
  C25      1.0000 0.67117  0.12190  0.08820  Biso   1.000  C
  C26      1.0000 0.82883  0.37810  0.08820  Biso   1.000  C
  C27      1.0000 0.17117  0.87810  0.41180  Biso   1.000  C
  C28      1.0000 0.32883  0.62190  0.41180  Biso   1.000  C
  C29      1.0000 0.32883  0.87810  0.91180  Biso   1.000  C
  C30      1.0000 0.17117  0.62190  0.91180  Biso   1.000  C
  C31      1.0000 0.82883  0.12190  0.58820  Biso   1.000  C
  C32      1.0000 0.67117  0.37810  0.58820  Biso   1.000  C
  H25      1.0000 0.70410  0.12010  0.14240  Biso   1.000  H
  H26      1.0000 0.79590  0.37990  0.14240  Biso   1.000  H
  H27      1.0000 0.20410  0.87990  0.35760  Biso   1.000  H
  H28      1.0000 0.29590  0.62010  0.35760  Biso   1.000  H
  H29      1.0000 0.29590  0.87990  0.85760  Biso   1.000  H
  H30      1.0000 0.20410  0.62010  0.85760  Biso   1.000  H
  H31      1.0000 0.79590  0.12010  0.64240  Biso   1.000  H
  H32      1.0000 0.70410  0.37990  0.64240  Biso   1.000  H
  C33      1.0000 0.70755  0.09110  0.00450  Biso   1.000  C
  C34      1.0000 0.79245  0.40890  0.00450  Biso   1.000  C
  C35      1.0000 0.20755  0.90890  0.49550  Biso   1.000  C
  C36      1.0000 0.29245  0.59110  0.49550  Biso   1.000  C
  C37      1.0000 0.29245  0.90890  0.99550  Biso   1.000  C
  C38      1.0000 0.20755  0.59110  0.99550  Biso   1.000  C
  C39      1.0000 0.79245  0.09110  0.50450  Biso   1.000  C
  C40      1.0000 0.70755  0.40890  0.50450  Biso   1.000  C
  C41      1.0000 0.65854  0.09380  0.92410  Biso   1.000  C
  C42      1.0000 0.84146  0.40620  0.92410  Biso   1.000  C
  C43      1.0000 0.15854  0.90620  0.57590  Biso   1.000  C
  C44      1.0000 0.34146  0.59380  0.57590  Biso   1.000  C
  C45      1.0000 0.34146  0.90620  0.07590  Biso   1.000  C
  C46      1.0000 0.15854  0.59380  0.07590  Biso   1.000  C
  C47      1.0000 0.84146  0.09380  0.42410  Biso   1.000  C
  C48      1.0000 0.65854  0.40620  0.42410  Biso   1.000  C
  C49      1.0000 0.68970  0.05160  0.83090  Biso   1.000  C
  C50      1.0000 0.81030  0.44840  0.83090  Biso   1.000  C
  C51      1.0000 0.18970  0.94840  0.66910  Biso   1.000  C
  C52      1.0000 0.31030  0.55160  0.66910  Biso   1.000  C
  C53      1.0000 0.31030  0.94840  0.16910  Biso   1.000  C
  C54      1.0000 0.18970  0.55160  0.16910  Biso   1.000  C
  C55      1.0000 0.81030  0.05160  0.33090  Biso   1.000  C
  C56      1.0000 0.68970  0.44840  0.33090  Biso   1.000  C
  H33      1.0000 0.64350  0.01230  0.79550  Biso   1.000  H
  H34      1.0000 0.85650  0.48770  0.79550  Biso   1.000  H
  H35      1.0000 0.14350  0.98770  0.70450  Biso   1.000  H
  H36      1.0000 0.35650  0.51230  0.70450  Biso   1.000  H
  H37      1.0000 0.35650  0.98770  0.20450  Biso   1.000  H
  H38      1.0000 0.14350  0.51230  0.20450  Biso   1.000  H
  H39      1.0000 0.85650  0.01230  0.29550  Biso   1.000  H
  H40      1.0000 0.64350  0.48770  0.29550  Biso   1.000  H
  H41      1.0000 0.73410  0.98320  0.83780  Biso   1.000  H
  H42      1.0000 0.76590  0.51680  0.83780  Biso   1.000  H
  H43      1.0000 0.23410  0.01680  0.66220  Biso   1.000  H
  H44      1.0000 0.26590  0.48320  0.66220  Biso   1.000  H
  H45      1.0000 0.26590  0.01680  0.16220  Biso   1.000  H
  H46      1.0000 0.23410  0.48320  0.16220  Biso   1.000  H
  H47      1.0000 0.76590  0.98320  0.33780  Biso   1.000  H
  H48      1.0000 0.73410  0.51680  0.33780  Biso   1.000  H
  H49      1.0000 0.71190  0.13190  0.79870  Biso   1.000  H
  H50      1.0000 0.78810  0.36810  0.79870  Biso   1.000  H
  H51      1.0000 0.21190  0.86810  0.70130  Biso   1.000  H
  H52      1.0000 0.28810  0.63190  0.70130  Biso   1.000  H
  H53      1.0000 0.28810  0.86810  0.20130  Biso   1.000  H
  H54      1.0000 0.21190  0.63190  0.20130  Biso   1.000  H
  H55      1.0000 0.78810  0.13190  0.29870  Biso   1.000  H
  H56      1.0000 0.71190  0.36810  0.29870  Biso   1.000  H
  C57      1.0000 0.54610  0.17280  0.18610  Biso   1.000  C
  C58      1.0000 0.95390  0.32720  0.18610  Biso   1.000  C
  C59      1.0000 0.04610  0.82720  0.31390  Biso   1.000  C
  C60      1.0000 0.45390  0.67280  0.31390  Biso   1.000  C
  C61      1.0000 0.45390  0.82720  0.81390  Biso   1.000  C
  C62      1.0000 0.04610  0.67280  0.81390  Biso   1.000  C
  C63      1.0000 0.95390  0.17280  0.68610  Biso   1.000  C
  C64      1.0000 0.54610  0.32720  0.68610  Biso   1.000  C
  C65      1.0000 0.79928  0.05600  0.00310  Biso   1.000  C
  C66      1.0000 0.70072  0.44400  0.00310  Biso   1.000  C
  C67      1.0000 0.29928  0.94400  0.49690  Biso   1.000  C
  C68      1.0000 0.20072  0.55600  0.49690  Biso   1.000  C
  C69      1.0000 0.20072  0.94400  0.99690  Biso   1.000  C
  C70      1.0000 0.29928  0.55600  0.99690  Biso   1.000  C
  C71      1.0000 0.70072  0.05600  0.50310  Biso   1.000  C
  C72      1.0000 0.79928  0.44400  0.50310  Biso   1.000  C
  O57      1.0000 0.25000  0.25000  0.00980  Biso   1.000  O
  O58      1.0000 0.75000  0.75000  0.49020  Biso   1.000  O
  O59      1.0000 0.75000  0.75000  0.99020  Biso   1.000  O
  O60      1.0000 0.25000  0.25000  0.50980  Biso   1.000  O
  H57      1.0000 0.29100  0.24500  0.04400  Biso   1.000  H
  H58      1.0000 0.20900  0.25500  0.04400  Biso   1.000  H
  H59      1.0000 0.79100  0.75500  0.45600  Biso   1.000  H
  H60      1.0000 0.70900  0.74500  0.45600  Biso   1.000  H
  H61      1.0000 0.70900  0.75500  0.95600  Biso   1.000  H
  H62      1.0000 0.79100  0.74500  0.95600  Biso   1.000  H
  H63      1.0000 0.20900  0.24500  0.54400  Biso   1.000  H
  H64      1.0000 0.29100  0.25500  0.54400  Biso   1.000  H
  O61      1.0000 0.01144  0.44840  0.40160  Biso   1.000  O
  O62      1.0000 0.48856  0.05160  0.40160  Biso   1.000  O
  O63      1.0000 0.51144  0.55160  0.09840  Biso   1.000  O
  O64      1.0000 0.98856  0.94840  0.09840  Biso   1.000  O
  O65      1.0000 0.98856  0.55160  0.59840  Biso   1.000  O
  O66      1.0000 0.51144  0.94840  0.59840  Biso   1.000  O
  O67      1.0000 0.48856  0.44840  0.90160  Biso   1.000  O
  O68      1.0000 0.01144  0.05160  0.90160  Biso   1.000  O
  H65      1.0000 0.01400  0.44700  0.34100  Biso   1.000  H
  H66      1.0000 0.48600  0.05300  0.34100  Biso   1.000  H
  H67      1.0000 0.51400  0.55300  0.15900  Biso   1.000  H
  H68      1.0000 0.98600  0.94700  0.15900  Biso   1.000  H
  H69      1.0000 0.98600  0.55300  0.65900  Biso   1.000  H
  H70      1.0000 0.51400  0.94700  0.65900  Biso   1.000  H
  H71      1.0000 0.48600  0.44700  0.84100  Biso   1.000  H
  H72      1.0000 0.01400  0.05300  0.84100  Biso   1.000  H
  H73      1.0000 0.96400  0.45800  0.42300  Biso   1.000  H
  H74      1.0000 0.53600  0.04200  0.42300  Biso   1.000  H
  H75      1.0000 0.46400  0.54200  0.07700  Biso   1.000  H
  H76      1.0000 0.03600  0.95800  0.07700  Biso   1.000  H
  H77      1.0000 0.03600  0.54200  0.57700  Biso   1.000  H
  H78      1.0000 0.46400  0.95800  0.57700  Biso   1.000  H
  H79      1.0000 0.53600  0.45800  0.92300  Biso   1.000  H
  H80      1.0000 0.96400  0.04200  0.92300  Biso   1.000  H
  O69      1.0000 0.26140  0.20600  0.33220  Biso   1.000  O
  O70      1.0000 0.23860  0.29400  0.33220  Biso   1.000  O
  O71      1.0000 0.76140  0.79400  0.16780  Biso   1.000  O
  O72      1.0000 0.73860  0.70600  0.16780  Biso   1.000  O
  O73      1.0000 0.73860  0.79400  0.66780  Biso   1.000  O
  O74      1.0000 0.76140  0.70600  0.66780  Biso   1.000  O
  O75      1.0000 0.23860  0.20600  0.83220  Biso   1.000  O
  O76      1.0000 0.26140  0.29400  0.83220  Biso   1.000  O
