data_image0
_cell_length_a       8.9331
_cell_length_b       11.7577
_cell_length_c       29.8171
_cell_angle_alpha    90
_cell_angle_beta     90
_cell_angle_gamma    90

_symmetry_space_group_name_H-M    "P 1"
_symmetry_int_tables_number       1

loop_
  _symmetry_equiv_pos_as_xyz
  'x, y, z'

loop_
  _atom_site_label
  _atom_site_occupancy
  _atom_site_fract_x
  _atom_site_fract_y
  _atom_site_fract_z
  _atom_site_thermal_displace_type
  _atom_site_B_iso_or_equiv
  _atom_site_type_symbol
  Cu1      1.0000 0.01802  0.31017  0.59805  Biso   1.000  Cu
  Cu2      1.0000 0.01802  0.81017  0.90195  Biso   1.000  Cu
  Cu3      1.0000 0.48198  0.31017  0.09805  Biso   1.000  Cu
  Cu4      1.0000 0.51802  0.18983  0.59805  Biso   1.000  Cu
  Cu5      1.0000 0.98198  0.68983  0.40195  Biso   1.000  Cu
  Cu6      1.0000 0.98198  0.18983  0.09805  Biso   1.000  Cu
  Cu7      1.0000 0.51802  0.68983  0.90195  Biso   1.000  Cu
  Cu8      1.0000 0.48198  0.81017  0.40195  Biso   1.000  Cu
  O1       1.0000 0.01670  0.97230  0.59820  Biso   1.000  O
  O2       1.0000 0.01670  0.47230  0.90180  Biso   1.000  O
  O3       1.0000 0.48330  0.97230  0.09820  Biso   1.000  O
  O4       1.0000 0.51670  0.52770  0.59820  Biso   1.000  O
  O5       1.0000 0.98330  0.02770  0.40180  Biso   1.000  O
  O6       1.0000 0.98330  0.52770  0.09820  Biso   1.000  O
  O7       1.0000 0.51670  0.02770  0.90180  Biso   1.000  O
  O8       1.0000 0.48330  0.47230  0.40180  Biso   1.000  O
  O9       1.0000 0.99300  0.15250  0.58274  Biso   1.000  O
  O10      1.0000 0.99300  0.65250  0.91726  Biso   1.000  O
  O11      1.0000 0.50700  0.15250  0.08274  Biso   1.000  O
  O12      1.0000 0.49300  0.34750  0.58274  Biso   1.000  O
  O13      1.0000 0.00700  0.84750  0.41726  Biso   1.000  O
  O14      1.0000 0.00700  0.34750  0.08274  Biso   1.000  O
  O15      1.0000 0.49300  0.84750  0.91726  Biso   1.000  O
  O16      1.0000 0.50700  0.65250  0.41726  Biso   1.000  O
  O17      1.0000 0.35460  0.15390  0.65425  Biso   1.000  O
  O18      1.0000 0.35460  0.65390  0.84575  Biso   1.000  O
  O19      1.0000 0.14540  0.15390  0.15425  Biso   1.000  O
  O20      1.0000 0.85460  0.34610  0.65425  Biso   1.000  O
  O21      1.0000 0.64540  0.84610  0.34575  Biso   1.000  O
  O22      1.0000 0.64540  0.34610  0.15425  Biso   1.000  O
  O23      1.0000 0.85460  0.84610  0.84575  Biso   1.000  O
  O24      1.0000 0.14540  0.65390  0.34575  Biso   1.000  O
  O25      1.0000 0.19420  0.28150  0.63189  Biso   1.000  O
  O26      1.0000 0.19420  0.78150  0.86811  Biso   1.000  O
  O27      1.0000 0.30580  0.28150  0.13189  Biso   1.000  O
  O28      1.0000 0.69420  0.21850  0.63189  Biso   1.000  O
  O29      1.0000 0.80580  0.71850  0.36811  Biso   1.000  O
  O30      1.0000 0.80580  0.21850  0.13189  Biso   1.000  O
  O31      1.0000 0.69420  0.71850  0.86811  Biso   1.000  O
  O32      1.0000 0.30580  0.78150  0.36811  Biso   1.000  O
  C1       1.0000 0.03100  0.07020  0.60881  Biso   1.000  C
  C2       1.0000 0.03100  0.57020  0.89119  Biso   1.000  C
  C3       1.0000 0.46900  0.07020  0.10881  Biso   1.000  C
  C4       1.0000 0.53100  0.42980  0.60881  Biso   1.000  C
  C5       1.0000 0.96900  0.92980  0.39119  Biso   1.000  C
  C6       1.0000 0.96900  0.42980  0.10881  Biso   1.000  C
  C7       1.0000 0.53100  0.92980  0.89119  Biso   1.000  C
  C8       1.0000 0.46900  0.57020  0.39119  Biso   1.000  C
  C9       1.0000 0.09240  0.10510  0.65486  Biso   1.000  C
  C10      1.0000 0.09240  0.60510  0.84514  Biso   1.000  C
  C11      1.0000 0.40760  0.10510  0.15486  Biso   1.000  C
  C12      1.0000 0.59240  0.39490  0.65486  Biso   1.000  C
  C13      1.0000 0.90760  0.89490  0.34514  Biso   1.000  C
  C14      1.0000 0.90760  0.39490  0.15486  Biso   1.000  C
  C15      1.0000 0.59240  0.89490  0.84514  Biso   1.000  C
  C16      1.0000 0.40760  0.60510  0.34514  Biso   1.000  C
  C17      1.0000 0.22560  0.18380  0.64688  Biso   1.000  C
  C18      1.0000 0.22560  0.68380  0.85312  Biso   1.000  C
  C19      1.0000 0.27440  0.18380  0.14688  Biso   1.000  C
  C20      1.0000 0.72560  0.31620  0.64688  Biso   1.000  C
  C21      1.0000 0.77440  0.81620  0.35312  Biso   1.000  C
  C22      1.0000 0.77440  0.31620  0.14688  Biso   1.000  C
  C23      1.0000 0.72560  0.81620  0.85312  Biso   1.000  C
  C24      1.0000 0.27440  0.68380  0.35312  Biso   1.000  C
  C25      1.0000 0.12230  0.00550  0.68534  Biso   1.000  C
  C26      1.0000 0.12230  0.50550  0.81466  Biso   1.000  C
  C27      1.0000 0.37770  0.00550  0.18534  Biso   1.000  C
  C28      1.0000 0.62230  0.49450  0.68534  Biso   1.000  C
  C29      1.0000 0.87770  0.99450  0.31466  Biso   1.000  C
  C30      1.0000 0.87770  0.49450  0.18534  Biso   1.000  C
  C31      1.0000 0.62230  0.99450  0.81466  Biso   1.000  C
  C32      1.0000 0.37770  0.50550  0.31466  Biso   1.000  C
  C33      1.0000 0.23780  0.93070  0.67940  Biso   1.000  C
  C34      1.0000 0.23780  0.43070  0.82060  Biso   1.000  C
  C35      1.0000 0.26220  0.93070  0.17940  Biso   1.000  C
  C36      1.0000 0.73780  0.56930  0.67940  Biso   1.000  C
  C37      1.0000 0.76220  0.06930  0.32060  Biso   1.000  C
  C38      1.0000 0.76220  0.56930  0.17940  Biso   1.000  C
  C39      1.0000 0.73780  0.06930  0.82060  Biso   1.000  C
  C40      1.0000 0.26220  0.43070  0.32060  Biso   1.000  C
  C41      1.0000 0.26430  0.84230  0.70862  Biso   1.000  C
  C42      1.0000 0.26430  0.34230  0.79138  Biso   1.000  C
  C43      1.0000 0.23570  0.84230  0.20862  Biso   1.000  C
  C44      1.0000 0.76430  0.65770  0.70862  Biso   1.000  C
  C45      1.0000 0.73570  0.15770  0.29138  Biso   1.000  C
  C46      1.0000 0.73570  0.65770  0.20862  Biso   1.000  C
  C47      1.0000 0.76430  0.15770  0.79138  Biso   1.000  C
  C48      1.0000 0.23570  0.34230  0.29138  Biso   1.000  C
  C49      1.0000 0.17350  0.82650  0.74350  Biso   1.000  C
  C50      1.0000 0.17350  0.32650  0.75650  Biso   1.000  C
  C51      1.0000 0.32650  0.82650  0.24350  Biso   1.000  C
  C52      1.0000 0.67350  0.67350  0.74350  Biso   1.000  C
  C53      1.0000 0.82650  0.17350  0.25650  Biso   1.000  C
  C54      1.0000 0.82650  0.67350  0.24350  Biso   1.000  C
  C55      1.0000 0.67350  0.17350  0.75650  Biso   1.000  C
  C56      1.0000 0.32650  0.32650  0.25650  Biso   1.000  C
  C57      1.0000 0.05510  0.89630  0.75100  Biso   1.000  C
  C58      1.0000 0.05510  0.39630  0.74900  Biso   1.000  C
  C59      1.0000 0.44490  0.89630  0.25100  Biso   1.000  C
  C60      1.0000 0.55510  0.60370  0.75100  Biso   1.000  C
  C61      1.0000 0.94490  0.10370  0.24900  Biso   1.000  C
  C62      1.0000 0.94490  0.60370  0.25100  Biso   1.000  C
  C63      1.0000 0.55510  0.10370  0.74900  Biso   1.000  C
  C64      1.0000 0.44490  0.39630  0.24900  Biso   1.000  C
  C65      1.0000 0.02920  0.98880  0.72190  Biso   1.000  C
  C66      1.0000 0.02920  0.48880  0.77810  Biso   1.000  C
  C67      1.0000 0.47080  0.98880  0.22190  Biso   1.000  C
  C68      1.0000 0.52920  0.51120  0.72190  Biso   1.000  C
  C69      1.0000 0.97080  0.01120  0.27810  Biso   1.000  C
  C70      1.0000 0.97080  0.51120  0.22190  Biso   1.000  C
  C71      1.0000 0.52920  0.01120  0.77810  Biso   1.000  C
  C72      1.0000 0.47080  0.48880  0.27810  Biso   1.000  C
  C73      1.0000 0.79010  0.30000  0.52419  Biso   1.000  C
  C74      1.0000 0.79010  0.80000  0.97581  Biso   1.000  C
  C75      1.0000 0.70990  0.30000  0.02419  Biso   1.000  C
  C76      1.0000 0.29010  0.20000  0.52419  Biso   1.000  C
  C77      1.0000 0.20990  0.70000  0.47581  Biso   1.000  C
  C78      1.0000 0.20990  0.20000  0.02419  Biso   1.000  C
  C79      1.0000 0.29010  0.70000  0.97581  Biso   1.000  C
  C80      1.0000 0.70990  0.80000  0.47581  Biso   1.000  C
  C81      1.0000 0.69810  0.34870  0.49320  Biso   1.000  C
  C82      1.0000 0.69810  0.84870  0.00680  Biso   1.000  C
  C83      1.0000 0.80190  0.34870  0.99320  Biso   1.000  C
  C84      1.0000 0.19810  0.15130  0.49320  Biso   1.000  C
  C85      1.0000 0.30190  0.65130  0.50680  Biso   1.000  C
  C86      1.0000 0.30190  0.15130  0.99320  Biso   1.000  C
  C87      1.0000 0.19810  0.65130  0.00680  Biso   1.000  C
  C88      1.0000 0.80190  0.84870  0.50680  Biso   1.000  C
  C89      1.0000 0.70170  0.46480  0.48954  Biso   1.000  C
  C90      1.0000 0.70170  0.96480  0.01046  Biso   1.000  C
  C91      1.0000 0.79830  0.46480  0.98954  Biso   1.000  C
  C92      1.0000 0.20170  0.03520  0.48954  Biso   1.000  C
  C93      1.0000 0.29830  0.53520  0.51046  Biso   1.000  C
  C94      1.0000 0.29830  0.03520  0.98954  Biso   1.000  C
  C95      1.0000 0.20170  0.53520  0.01046  Biso   1.000  C
  C96      1.0000 0.79830  0.96480  0.51046  Biso   1.000  C
  C97      1.0000 0.87540  0.47610  0.54363  Biso   1.000  C
  C98      1.0000 0.87540  0.97610  0.95637  Biso   1.000  C
  C99      1.0000 0.62460  0.47610  0.04363  Biso   1.000  C
  C100     1.0000 0.37540  0.02390  0.54363  Biso   1.000  C
  C101     1.0000 0.12460  0.52390  0.45637  Biso   1.000  C
  C102     1.0000 0.12460  0.02390  0.04363  Biso   1.000  C
  C103     1.0000 0.37540  0.52390  0.95637  Biso   1.000  C
  C104     1.0000 0.62460  0.97610  0.45637  Biso   1.000  C
  C105     1.0000 0.97670  0.54160  0.57316  Biso   1.000  C
  C106     1.0000 0.97670  0.04160  0.92684  Biso   1.000  C
  C107     1.0000 0.52330  0.54160  0.07316  Biso   1.000  C
  C108     1.0000 0.47670  0.95840  0.57316  Biso   1.000  C
  C109     1.0000 0.02330  0.45840  0.42684  Biso   1.000  C
  C110     1.0000 0.02330  0.95840  0.07316  Biso   1.000  C
  C111     1.0000 0.47670  0.45840  0.92684  Biso   1.000  C
  C112     1.0000 0.52330  0.04160  0.42684  Biso   1.000  C
  C113     1.0000 0.07300  0.70330  0.60010  Biso   1.000  C
  C114     1.0000 0.07300  0.20330  0.89990  Biso   1.000  C
  C115     1.0000 0.42700  0.70330  0.10010  Biso   1.000  C
  C116     1.0000 0.57300  0.79670  0.60010  Biso   1.000  C
  C117     1.0000 0.92700  0.29670  0.39990  Biso   1.000  C
  C118     1.0000 0.92700  0.79670  0.10010  Biso   1.000  C
  C119     1.0000 0.57300  0.29670  0.89990  Biso   1.000  C
  C120     1.0000 0.42700  0.20330  0.39990  Biso   1.000  C
  C121     1.0000 0.16750  0.64380  0.62730  Biso   1.000  C
  C122     1.0000 0.16750  0.14380  0.87270  Biso   1.000  C
  C123     1.0000 0.33250  0.64380  0.12730  Biso   1.000  C
  C124     1.0000 0.66750  0.85620  0.62730  Biso   1.000  C
  C125     1.0000 0.83250  0.35620  0.37270  Biso   1.000  C
  C126     1.0000 0.83250  0.85620  0.12730  Biso   1.000  C
  C127     1.0000 0.66750  0.35620  0.87270  Biso   1.000  C
  C128     1.0000 0.33250  0.14380  0.37270  Biso   1.000  C
  C129     1.0000 0.15830  0.52790  0.62648  Biso   1.000  C
  C130     1.0000 0.15830  0.02790  0.87352  Biso   1.000  C
  C131     1.0000 0.34170  0.52790  0.12648  Biso   1.000  C
  C132     1.0000 0.65830  0.97210  0.62648  Biso   1.000  C
  C133     1.0000 0.84170  0.47210  0.37352  Biso   1.000  C
  C134     1.0000 0.84170  0.97210  0.12648  Biso   1.000  C
  C135     1.0000 0.65830  0.47210  0.87352  Biso   1.000  C
  C136     1.0000 0.34170  0.02790  0.37352  Biso   1.000  C
  N1       1.0000 0.06250  0.47710  0.59975  Biso   1.000  N
  N2       1.0000 0.06250  0.97710  0.90025  Biso   1.000  N
  N3       1.0000 0.43750  0.47710  0.09975  Biso   1.000  N
  N4       1.0000 0.56250  0.02290  0.59975  Biso   1.000  N
  N5       1.0000 0.93750  0.52290  0.40025  Biso   1.000  N
  N6       1.0000 0.93750  0.02290  0.09975  Biso   1.000  N
  N7       1.0000 0.56250  0.52290  0.90025  Biso   1.000  N
  N8       1.0000 0.43750  0.97710  0.40025  Biso   1.000  N
  N9       1.0000 0.87960  0.36310  0.54983  Biso   1.000  N
  N10      1.0000 0.87960  0.86310  0.95017  Biso   1.000  N
  N11      1.0000 0.62040  0.36310  0.04983  Biso   1.000  N
  N12      1.0000 0.37960  0.13690  0.54983  Biso   1.000  N
  N13      1.0000 0.12040  0.63690  0.45017  Biso   1.000  N
  N14      1.0000 0.12040  0.13690  0.04983  Biso   1.000  N
  N15      1.0000 0.37960  0.63690  0.95017  Biso   1.000  N
  N16      1.0000 0.62040  0.86310  0.45017  Biso   1.000  N
  N17      1.0000 0.79050  0.52970  0.51444  Biso   1.000  N
  N18      1.0000 0.79050  0.02970  0.98556  Biso   1.000  N
  N19      1.0000 0.70950  0.52970  0.01444  Biso   1.000  N
  N20      1.0000 0.29050  0.97030  0.51444  Biso   1.000  N
  N21      1.0000 0.20950  0.47030  0.48556  Biso   1.000  N
  N22      1.0000 0.20950  0.97030  0.01444  Biso   1.000  N
  N23      1.0000 0.29050  0.47030  0.98556  Biso   1.000  N
  N24      1.0000 0.70950  0.02970  0.48556  Biso   1.000  N
  N25      1.0000 0.97830  0.65370  0.57215  Biso   1.000  N
  N26      1.0000 0.97830  0.15370  0.92785  Biso   1.000  N
  N27      1.0000 0.52170  0.65370  0.07215  Biso   1.000  N
  N28      1.0000 0.47830  0.84630  0.57215  Biso   1.000  N
  N29      1.0000 0.02170  0.34630  0.42785  Biso   1.000  N
  N30      1.0000 0.02170  0.84630  0.07215  Biso   1.000  N
  N31      1.0000 0.47830  0.34630  0.92785  Biso   1.000  N
  N32      1.0000 0.52170  0.15370  0.42785  Biso   1.000  N
  H1       1.0000 0.01600  0.14600  0.66960  Biso   1.000  H
  H2       1.0000 0.01600  0.64600  0.83040  Biso   1.000  H
  H3       1.0000 0.48400  0.14600  0.16960  Biso   1.000  H
  H4       1.0000 0.51600  0.35400  0.66960  Biso   1.000  H
  H5       1.0000 0.98400  0.85400  0.33040  Biso   1.000  H
  H6       1.0000 0.98400  0.35400  0.16960  Biso   1.000  H
  H7       1.0000 0.51600  0.85400  0.83040  Biso   1.000  H
  H8       1.0000 0.48400  0.64600  0.33040  Biso   1.000  H
  H9       1.0000 0.64600  0.30700  0.47640  Biso   1.000  H
  H10      1.0000 0.64600  0.80700  0.02360  Biso   1.000  H
  H11      1.0000 0.85400  0.30700  0.97640  Biso   1.000  H
  H12      1.0000 0.14600  0.19300  0.47640  Biso   1.000  H
  H13      1.0000 0.35400  0.69300  0.52360  Biso   1.000  H
  H14      1.0000 0.35400  0.19300  0.97640  Biso   1.000  H
  H15      1.0000 0.14600  0.69300  0.02360  Biso   1.000  H
  H16      1.0000 0.85400  0.80700  0.52360  Biso   1.000  H
  H17      1.0000 0.22600  0.67500  0.64630  Biso   1.000  H
  H18      1.0000 0.22600  0.17500  0.85370  Biso   1.000  H
  H19      1.0000 0.27400  0.67500  0.14630  Biso   1.000  H
  H20      1.0000 0.72600  0.82500  0.64630  Biso   1.000  H
  H21      1.0000 0.77400  0.32500  0.35370  Biso   1.000  H
  H22      1.0000 0.77400  0.82500  0.14630  Biso   1.000  H
  H23      1.0000 0.72600  0.32500  0.85370  Biso   1.000  H
  H24      1.0000 0.27400  0.17500  0.35370  Biso   1.000  H
  H25      1.0000 0.20900  0.48100  0.64640  Biso   1.000  H
  H26      1.0000 0.20900  0.98100  0.85360  Biso   1.000  H
  H27      1.0000 0.29100  0.48100  0.14640  Biso   1.000  H
  H28      1.0000 0.70900  0.01900  0.64640  Biso   1.000  H
  H29      1.0000 0.79100  0.51900  0.35360  Biso   1.000  H
  H30      1.0000 0.79100  0.01900  0.14640  Biso   1.000  H
  H31      1.0000 0.70900  0.51900  0.85360  Biso   1.000  H
  H32      1.0000 0.29100  0.98100  0.35360  Biso   1.000  H
  H33      1.0000 0.08300  0.78100  0.59980  Biso   1.000  H
  H34      1.0000 0.08300  0.28100  0.90020  Biso   1.000  H
  H35      1.0000 0.41700  0.78100  0.09980  Biso   1.000  H
  H36      1.0000 0.58300  0.71900  0.59980  Biso   1.000  H
  H37      1.0000 0.91700  0.21900  0.40020  Biso   1.000  H
  H38      1.0000 0.91700  0.71900  0.09980  Biso   1.000  H
  H39      1.0000 0.58300  0.21900  0.90020  Biso   1.000  H
  H40      1.0000 0.41700  0.28100  0.40020  Biso   1.000  H
  H41      1.0000 0.79500  0.22600  0.52920  Biso   1.000  H
  H42      1.0000 0.79500  0.72600  0.97080  Biso   1.000  H
  H43      1.0000 0.70500  0.22600  0.02920  Biso   1.000  H
  H44      1.0000 0.29500  0.27400  0.52920  Biso   1.000  H
  H45      1.0000 0.20500  0.77400  0.47080  Biso   1.000  H
  H46      1.0000 0.20500  0.27400  0.02920  Biso   1.000  H
  H47      1.0000 0.29500  0.77400  0.97080  Biso   1.000  H
  H48      1.0000 0.70500  0.72600  0.47080  Biso   1.000  H
  H49      1.0000 0.29700  0.94500  0.65310  Biso   1.000  H
  H50      1.0000 0.29700  0.44500  0.84690  Biso   1.000  H
  H51      1.0000 0.20300  0.94500  0.15310  Biso   1.000  H
  H52      1.0000 0.79700  0.55500  0.65310  Biso   1.000  H
  H53      1.0000 0.70300  0.05500  0.34690  Biso   1.000  H
  H54      1.0000 0.70300  0.55500  0.15310  Biso   1.000  H
  H55      1.0000 0.79700  0.05500  0.84690  Biso   1.000  H
  H56      1.0000 0.20300  0.44500  0.34690  Biso   1.000  H
  H57      1.0000 0.64300  0.49600  0.46850  Biso   1.000  H
  H58      1.0000 0.64300  0.99600  0.03150  Biso   1.000  H
  H59      1.0000 0.85700  0.49600  0.96850  Biso   1.000  H
  H60      1.0000 0.14300  0.00400  0.46850  Biso   1.000  H
  H61      1.0000 0.35700  0.50400  0.53150  Biso   1.000  H
  H62      1.0000 0.35700  0.00400  0.96850  Biso   1.000  H
  H63      1.0000 0.14300  0.50400  0.03150  Biso   1.000  H
  H64      1.0000 0.85700  0.99600  0.53150  Biso   1.000  H
  H65      1.0000 0.34600  0.78700  0.70250  Biso   1.000  H
  H66      1.0000 0.34600  0.28700  0.79750  Biso   1.000  H
  H67      1.0000 0.15400  0.78700  0.20250  Biso   1.000  H
  H68      1.0000 0.84600  0.71300  0.70250  Biso   1.000  H
  H69      1.0000 0.65400  0.21300  0.29750  Biso   1.000  H
  H70      1.0000 0.65400  0.71300  0.20250  Biso   1.000  H
  H71      1.0000 0.84600  0.21300  0.79750  Biso   1.000  H
  H72      1.0000 0.15400  0.28700  0.29750  Biso   1.000  H
  H73      1.0000 0.19900  0.76900  0.76540  Biso   1.000  H
  H74      1.0000 0.19900  0.26900  0.73460  Biso   1.000  H
  H75      1.0000 0.30100  0.76900  0.26540  Biso   1.000  H
  H76      1.0000 0.69900  0.73100  0.76540  Biso   1.000  H
  H77      1.0000 0.80100  0.23100  0.23460  Biso   1.000  H
  H78      1.0000 0.80100  0.73100  0.26540  Biso   1.000  H
  H79      1.0000 0.69900  0.23100  0.73460  Biso   1.000  H
  H80      1.0000 0.30100  0.26900  0.23460  Biso   1.000  H
  H81      1.0000 0.95400  0.05300  0.72320  Biso   1.000  H
  H82      1.0000 0.95400  0.55300  0.77680  Biso   1.000  H
  H83      1.0000 0.54600  0.05300  0.22320  Biso   1.000  H
  H84      1.0000 0.45400  0.44700  0.72320  Biso   1.000  H
  H85      1.0000 0.04600  0.94700  0.27680  Biso   1.000  H
  H86      1.0000 0.04600  0.44700  0.22320  Biso   1.000  H
  H87      1.0000 0.45400  0.94700  0.77680  Biso   1.000  H
  H88      1.0000 0.54600  0.55300  0.27680  Biso   1.000  H
  H89      1.0000 0.99300  0.91200  0.77000  Biso   1.000  H
  H90      1.0000 0.99300  0.41200  0.73000  Biso   1.000  H
  H91      1.0000 0.50700  0.91200  0.27000  Biso   1.000  H
  H92      1.0000 0.49300  0.58800  0.77000  Biso   1.000  H
  H93      1.0000 0.00700  0.08800  0.23000  Biso   1.000  H
  H94      1.0000 0.00700  0.58800  0.27000  Biso   1.000  H
  H95      1.0000 0.49300  0.08800  0.73000  Biso   1.000  H
  H96      1.0000 0.50700  0.41200  0.23000  Biso   1.000  H
