data_image0
_cell_length_a       5.0145
_cell_length_b       26.403
_cell_length_c       14.685
_cell_angle_alpha    90
_cell_angle_beta     94.75
_cell_angle_gamma    90

_symmetry_space_group_name_H-M    "P 1"
_symmetry_int_tables_number       1

loop_
  _symmetry_equiv_pos_as_xyz
  'x, y, z'

loop_
  _atom_site_label
  _atom_site_occupancy
  _atom_site_fract_x
  _atom_site_fract_y
  _atom_site_fract_z
  _atom_site_thermal_displace_type
  _atom_site_B_iso_or_equiv
  _atom_site_type_symbol
  Cu1      1.0000 0.56273  0.23777  0.71709  Biso   1.000  Cu
  Cu2      1.0000 0.06273  0.26223  0.21709  Biso   1.000  Cu
  Cu3      1.0000 0.43727  0.76223  0.28291  Biso   1.000  Cu
  Cu4      1.0000 0.93727  0.73777  0.78291  Biso   1.000  Cu
  O1       1.0000 0.26360  0.37023  0.62561  Biso   1.000  O
  O2       1.0000 0.76360  0.12977  0.12561  Biso   1.000  O
  O3       1.0000 0.73640  0.62977  0.37439  Biso   1.000  O
  O4       1.0000 0.23640  0.87023  0.87439  Biso   1.000  O
  O5       1.0000 0.45970  0.29651  0.64647  Biso   1.000  O
  O6       1.0000 0.95970  0.20349  0.14647  Biso   1.000  O
  O7       1.0000 0.54030  0.70349  0.35353  Biso   1.000  O
  O8       1.0000 0.04030  0.79651  0.85353  Biso   1.000  O
  O9       1.0000 0.87720  0.28220  0.80966  Biso   1.000  O
  O10      1.0000 0.37720  0.21780  0.30966  Biso   1.000  O
  O11      1.0000 0.12280  0.71780  0.19034  Biso   1.000  O
  O12      1.0000 0.62280  0.78220  0.69034  Biso   1.000  O
  O13      1.0000 0.25280  0.24187  0.78683  Biso   1.000  O
  O14      1.0000 0.75280  0.25813  0.28683  Biso   1.000  O
  O15      1.0000 0.74720  0.75813  0.21317  Biso   1.000  O
  O16      1.0000 0.24720  0.74187  0.71317  Biso   1.000  O
  O17      1.0000 0.82700  0.97370  0.97020  Biso   1.000  O
  O18      1.0000 0.32700  0.52630  0.47020  Biso   1.000  O
  O19      1.0000 0.17300  0.02630  0.02980  Biso   1.000  O
  O20      1.0000 0.67300  0.47370  0.52980  Biso   1.000  O
  O21      1.0000 0.72200  0.37271  0.50960  Biso   1.000  O
  O22      1.0000 0.22200  0.12729  0.00960  Biso   1.000  O
  O23      1.0000 0.27800  0.62729  0.49040  Biso   1.000  O
  O24      1.0000 0.77800  0.87271  0.99040  Biso   1.000  O
  O25      1.0000 0.30540  0.97656  0.88280  Biso   1.000  O
  O26      1.0000 0.80540  0.52344  0.38280  Biso   1.000  O
  O27      1.0000 0.69460  0.02344  0.11720  Biso   1.000  O
  O28      1.0000 0.19460  0.47656  0.61720  Biso   1.000  O
  N1       1.0000 0.65710  0.16930  0.76690  Biso   1.000  N
  N2       1.0000 0.15710  0.33070  0.26690  Biso   1.000  N
  N3       1.0000 0.34290  0.83070  0.23310  Biso   1.000  N
  N4       1.0000 0.84290  0.66930  0.73310  Biso   1.000  N
  N5       1.0000 0.81900  0.21710  0.62411  Biso   1.000  N
  N6       1.0000 0.31900  0.28290  0.12411  Biso   1.000  N
  N7       1.0000 0.18100  0.78290  0.37589  Biso   1.000  N
  N8       1.0000 0.68100  0.71710  0.87589  Biso   1.000  N
  C1       1.0000 0.32550  0.33380  0.67420  Biso   1.000  C
  C2       1.0000 0.82550  0.16620  0.17420  Biso   1.000  C
  C3       1.0000 0.67450  0.66620  0.32580  Biso   1.000  C
  C4       1.0000 0.17450  0.83380  0.82580  Biso   1.000  C
  C5       1.0000 0.26090  0.33249  0.77580  Biso   1.000  C
  C6       1.0000 0.76090  0.16751  0.27580  Biso   1.000  C
  C7       1.0000 0.73910  0.66751  0.22420  Biso   1.000  C
  C8       1.0000 0.23910  0.83249  0.72420  Biso   1.000  C
  C9       1.0000 0.11320  0.28199  0.79220  Biso   1.000  C
  C10      1.0000 0.61320  0.21801  0.29220  Biso   1.000  C
  C11      1.0000 0.88680  0.71801  0.20780  Biso   1.000  C
  C12      1.0000 0.38680  0.78199  0.70780  Biso   1.000  C
  C13      1.0000 0.11840  0.37894  0.80580  Biso   1.000  C
  C14      1.0000 0.61840  0.12106  0.30580  Biso   1.000  C
  C15      1.0000 0.88160  0.62106  0.19420  Biso   1.000  C
  C16      1.0000 0.38160  0.87894  0.69420  Biso   1.000  C
  C17      1.0000 0.88850  0.39762  0.76260  Biso   1.000  C
  C18      1.0000 0.38850  0.10238  0.26260  Biso   1.000  C
  C19      1.0000 0.11150  0.60238  0.23740  Biso   1.000  C
  C20      1.0000 0.61150  0.89762  0.73740  Biso   1.000  C
  C21      1.0000 0.77070  0.44129  0.78970  Biso   1.000  C
  C22      1.0000 0.27070  0.05871  0.28970  Biso   1.000  C
  C23      1.0000 0.22930  0.55871  0.21030  Biso   1.000  C
  C24      1.0000 0.72930  0.94129  0.71030  Biso   1.000  C
  C25      1.0000 0.88310  0.46754  0.86290  Biso   1.000  C
  C26      1.0000 0.38310  0.03246  0.36290  Biso   1.000  C
  C27      1.0000 0.11690  0.53246  0.13710  Biso   1.000  C
  C28      1.0000 0.61690  0.96754  0.63710  Biso   1.000  C
  C29      1.0000 0.10810  0.45027  0.90970  Biso   1.000  C
  C30      1.0000 0.60810  0.04973  0.40970  Biso   1.000  C
  C31      1.0000 0.89190  0.54973  0.09030  Biso   1.000  C
  C32      1.0000 0.39190  0.95027  0.59030  Biso   1.000  C
  C33      1.0000 0.22720  0.40592  0.88260  Biso   1.000  C
  C34      1.0000 0.72720  0.09408  0.38260  Biso   1.000  C
  C35      1.0000 0.77280  0.59408  0.11740  Biso   1.000  C
  C36      1.0000 0.27280  0.90592  0.61740  Biso   1.000  C
  C37      1.0000 0.89750  0.24253  0.55330  Biso   1.000  C
  C38      1.0000 0.39750  0.25747  0.05330  Biso   1.000  C
  C39      1.0000 0.10250  0.75747  0.44670  Biso   1.000  C
  C40      1.0000 0.60250  0.74253  0.94670  Biso   1.000  C
  C41      1.0000 0.08870  0.22410  0.49860  Biso   1.000  C
  C42      1.0000 0.58870  0.27590  0.99860  Biso   1.000  C
  C43      1.0000 0.91130  0.77590  0.50140  Biso   1.000  C
  C44      1.0000 0.41130  0.72410  0.00140  Biso   1.000  C
  C45      1.0000 0.20240  0.17835  0.51720  Biso   1.000  C
  C46      1.0000 0.70240  0.32165  0.01720  Biso   1.000  C
  C47      1.0000 0.79760  0.82165  0.48280  Biso   1.000  C
  C48      1.0000 0.29760  0.67835  0.98280  Biso   1.000  C
  C49      1.0000 0.12350  0.14905  0.59130  Biso   1.000  C
  C50      1.0000 0.62350  0.35095  0.09130  Biso   1.000  C
  C51      1.0000 0.87650  0.85095  0.40870  Biso   1.000  C
  C52      1.0000 0.37650  0.64905  0.90870  Biso   1.000  C
  C53      1.0000 0.93130  0.17116  0.64340  Biso   1.000  C
  C54      1.0000 0.43130  0.32884  0.14340  Biso   1.000  C
  C55      1.0000 0.06870  0.82884  0.35660  Biso   1.000  C
  C56      1.0000 0.56870  0.67116  0.85660  Biso   1.000  C
  C57      1.0000 0.84170  0.14480  0.72080  Biso   1.000  C
  C58      1.0000 0.34170  0.35520  0.22080  Biso   1.000  C
  C59      1.0000 0.15830  0.85520  0.27920  Biso   1.000  C
  C60      1.0000 0.65830  0.64480  0.77920  Biso   1.000  C
  C61      1.0000 0.94440  0.09731  0.74450  Biso   1.000  C
  C62      1.0000 0.44440  0.40269  0.24450  Biso   1.000  C
  C63      1.0000 0.05560  0.90269  0.25550  Biso   1.000  C
  C64      1.0000 0.55560  0.59731  0.75550  Biso   1.000  C
  C65      1.0000 0.84660  0.07365  0.82090  Biso   1.000  C
  C66      1.0000 0.34660  0.42635  0.32090  Biso   1.000  C
  C67      1.0000 0.15340  0.92635  0.17910  Biso   1.000  C
  C68      1.0000 0.65340  0.57365  0.67910  Biso   1.000  C
  C69      1.0000 0.65760  0.09826  0.86700  Biso   1.000  C
  C70      1.0000 0.15760  0.40174  0.36700  Biso   1.000  C
  C71      1.0000 0.34240  0.90174  0.13300  Biso   1.000  C
  C72      1.0000 0.84240  0.59826  0.63300  Biso   1.000  C
  C73      1.0000 0.56670  0.14618  0.83840  Biso   1.000  C
  C74      1.0000 0.06670  0.35382  0.33840  Biso   1.000  C
  C75      1.0000 0.43330  0.85382  0.16160  Biso   1.000  C
  C76      1.0000 0.93330  0.64618  0.66160  Biso   1.000  C
  C77      1.0000 0.13980  0.07553  0.68970  Biso   1.000  C
  C78      1.0000 0.63980  0.42447  0.18970  Biso   1.000  C
  C79      1.0000 0.86020  0.92447  0.31030  Biso   1.000  C
  C80      1.0000 0.36020  0.57553  0.81030  Biso   1.000  C
  C81      1.0000 0.22250  0.10012  0.61710  Biso   1.000  C
  C82      1.0000 0.72250  0.39988  0.11710  Biso   1.000  C
  C83      1.0000 0.77750  0.89988  0.38290  Biso   1.000  C
  C84      1.0000 0.27750  0.60012  0.88290  Biso   1.000  C
  H1       1.0000 0.90000  0.04000  0.84800  Biso   1.000  H
  H2       1.0000 0.40000  0.46000  0.34800  Biso   1.000  H
  H3       1.0000 0.10000  0.96000  0.15200  Biso   1.000  H
  H4       1.0000 0.60000  0.54000  0.65200  Biso   1.000  H
  H5       1.0000 0.44400  0.33080  0.81400  Biso   1.000  H
  H6       1.0000 0.94400  0.16920  0.31400  Biso   1.000  H
  H7       1.0000 0.55600  0.66920  0.18600  Biso   1.000  H
  H8       1.0000 0.05600  0.83080  0.68600  Biso   1.000  H
  H9       1.0000 0.44900  0.16040  0.87500  Biso   1.000  H
  H10      1.0000 0.94900  0.33960  0.37500  Biso   1.000  H
  H11      1.0000 0.55100  0.83960  0.12500  Biso   1.000  H
  H12      1.0000 0.05100  0.66040  0.62500  Biso   1.000  H
  H13      1.0000 0.83000  0.27230  0.54100  Biso   1.000  H
  H14      1.0000 0.33000  0.22770  0.04100  Biso   1.000  H
  H15      1.0000 0.17000  0.72770  0.45900  Biso   1.000  H
  H16      1.0000 0.67000  0.77230  0.95900  Biso   1.000  H
  H17      1.0000 0.37000  0.39390  0.91000  Biso   1.000  H
  H18      1.0000 0.87000  0.10610  0.41000  Biso   1.000  H
  H19      1.0000 0.63000  0.60610  0.09000  Biso   1.000  H
  H20      1.0000 0.13000  0.89390  0.59000  Biso   1.000  H
  H21      1.0000 0.81600  0.38320  0.71700  Biso   1.000  H
  H22      1.0000 0.31600  0.11680  0.21700  Biso   1.000  H
  H23      1.0000 0.18400  0.61680  0.28300  Biso   1.000  H
  H24      1.0000 0.68400  0.88320  0.78300  Biso   1.000  H
  H25      1.0000 0.35600  0.08740  0.57400  Biso   1.000  H
  H26      1.0000 0.85600  0.41260  0.07400  Biso   1.000  H
  H27      1.0000 0.64400  0.91260  0.42600  Biso   1.000  H
  H28      1.0000 0.14400  0.58740  0.92600  Biso   1.000  H
  H29      1.0000 0.32800  0.16550  0.47600  Biso   1.000  H
  H30      1.0000 0.82800  0.33450  0.97600  Biso   1.000  H
  H31      1.0000 0.67200  0.83450  0.52400  Biso   1.000  H
  H32      1.0000 0.17200  0.66550  0.02400  Biso   1.000  H
  H33      1.0000 0.78600  0.49880  0.88500  Biso   1.000  H
  H34      1.0000 0.28600  0.00120  0.38500  Biso   1.000  H
  H35      1.0000 0.21400  0.50120  0.11500  Biso   1.000  H
  H36      1.0000 0.71400  0.99880  0.61500  Biso   1.000  H
  H37      1.0000 0.59000  0.08680  0.91600  Biso   1.000  H
  H38      1.0000 0.09000  0.41320  0.41600  Biso   1.000  H
  H39      1.0000 0.41000  0.91320  0.08400  Biso   1.000  H
  H40      1.0000 0.91000  0.58680  0.58400  Biso   1.000  H
  H41      1.0000 0.14100  0.24090  0.44800  Biso   1.000  H
  H42      1.0000 0.64100  0.25910  0.94800  Biso   1.000  H
  H43      1.0000 0.85900  0.75910  0.55200  Biso   1.000  H
  H44      1.0000 0.35900  0.74090  0.05200  Biso   1.000  H
  H45      1.0000 0.18900  0.04410  0.70900  Biso   1.000  H
  H46      1.0000 0.68900  0.45590  0.20900  Biso   1.000  H
  H47      1.0000 0.81100  0.95590  0.29100  Biso   1.000  H
  H48      1.0000 0.31100  0.54410  0.79100  Biso   1.000  H
  H49      1.0000 0.61300  0.45160  0.75700  Biso   1.000  H
  H50      1.0000 0.11300  0.04840  0.25700  Biso   1.000  H
  H51      1.0000 0.38700  0.54840  0.24300  Biso   1.000  H
  H52      1.0000 0.88700  0.95160  0.74300  Biso   1.000  H
  H53      1.0000 0.19500  0.46760  0.96600  Biso   1.000  H
  H54      1.0000 0.69500  0.03240  0.46600  Biso   1.000  H
  H55      1.0000 0.80500  0.53240  0.03400  Biso   1.000  H
  H56      1.0000 0.30500  0.96760  0.53400  Biso   1.000  H
