data_image0
_cell_length_a       8.993
_cell_length_b       9.749
_cell_length_c       8.919
_cell_angle_alpha    111
_cell_angle_beta     118.68
_cell_angle_gamma    71.49

_symmetry_space_group_name_H-M    "P 1"
_symmetry_int_tables_number       1

loop_
  _symmetry_equiv_pos_as_xyz
  'x, y, z'

loop_
  _atom_site_label
  _atom_site_occupancy
  _atom_site_fract_x
  _atom_site_fract_y
  _atom_site_fract_z
  _atom_site_thermal_displace_type
  _atom_site_B_iso_or_equiv
  _atom_site_type_symbol
  Cu1      1.0000 0.13390  0.23250  0.86640  Biso   1.000  Cu
  Cu2      1.0000 0.86610  0.76750  0.13360  Biso   1.000  Cu
  S1       1.0000 0.99136  0.36855  0.65623  Biso   1.000  S
  S2       1.0000 0.00864  0.63145  0.34377  Biso   1.000  S
  O1       1.0000 0.20640  0.14490  0.06690  Biso   1.000  O
  O2       1.0000 0.79360  0.85510  0.93310  Biso   1.000  O
  O3       1.0000 0.09370  0.10370  0.21860  Biso   1.000  O
  O4       1.0000 0.90630  0.89630  0.78140  Biso   1.000  O
  O5       1.0000 0.35800  0.19120  0.86780  Biso   1.000  O
  O6       1.0000 0.64200  0.80880  0.13220  Biso   1.000  O
  O7       1.0000 0.44980  0.38810  0.08580  Biso   1.000  O
  O8       1.0000 0.55020  0.61190  0.91420  Biso   1.000  O
  O9       1.0000 0.09130  0.99970  0.67850  Biso   1.000  O
  O10      1.0000 0.90870  0.00030  0.32150  Biso   1.000  O
  O11      1.0000 0.42410  0.83830  0.67740  Biso   1.000  O
  O12      1.0000 0.57590  0.16170  0.32260  Biso   1.000  O
  O13      1.0000 0.60950  0.05120  0.53930  Biso   1.000  O
  O14      1.0000 0.39050  0.94880  0.46070  Biso   1.000  O
  O15      1.0000 0.58310  0.00470  0.55220  Biso   1.000  O
  O16      1.0000 0.41690  0.99530  0.44780  Biso   1.000  O
  N1       1.0000 0.69390  0.55250  0.63050  Biso   1.000  N
  N2       1.0000 0.30610  0.44750  0.36950  Biso   1.000  N
  H1       1.0000 0.61150  0.59220  0.66450  Biso   1.000  H
  H2       1.0000 0.38850  0.40780  0.33550  Biso   1.000  H
  N3       1.0000 0.79970  0.41590  0.83190  Biso   1.000  N
  N4       1.0000 0.20030  0.58410  0.16810  Biso   1.000  N
  H3       1.0000 0.71060  0.45510  0.85510  Biso   1.000  H
  H4       1.0000 0.28940  0.54490  0.14490  Biso   1.000  H
  N5       1.0000 0.92940  0.31570  0.91850  Biso   1.000  N
  N6       1.0000 0.07060  0.68430  0.08150  Biso   1.000  N
  C1       1.0000 0.81710  0.45130  0.70750  Biso   1.000  C
  C2       1.0000 0.18290  0.54870  0.29250  Biso   1.000  C
  C3       1.0000 0.92430  0.27200  0.03560  Biso   1.000  C
  C4       1.0000 0.07570  0.72800  0.96440  Biso   1.000  C
  C5       1.0000 0.08690  0.16380  0.11470  Biso   1.000  C
  C6       1.0000 0.91310  0.83620  0.88530  Biso   1.000  C
  C7       1.0000 0.77630  0.31450  0.08630  Biso   1.000  C
  C8       1.0000 0.22370  0.68550  0.91370  Biso   1.000  C
  H5       1.0000 0.72930  0.41990  0.09390  Biso   1.000  H
  H6       1.0000 0.27070  0.58010  0.90610  Biso   1.000  H
  H7       1.0000 0.81620  0.29720  0.20120  Biso   1.000  H
  H8       1.0000 0.18380  0.70280  0.79880  Biso   1.000  H
  C9       1.0000 0.63620  0.22260  0.94990  Biso   1.000  C
  C10      1.0000 0.36380  0.77740  0.05010  Biso   1.000  C
  H9       1.0000 0.61220  0.22670  0.83320  Biso   1.000  H
  H10      1.0000 0.38780  0.77330  0.16680  Biso   1.000  H
  H11      1.0000 0.67980  0.11920  0.95610  Biso   1.000  H
  H12      1.0000 0.32020  0.88080  0.04390  Biso   1.000  H
  C11      1.0000 0.46990  0.27330  0.97280  Biso   1.000  C
  C12      1.0000 0.53010  0.72670  0.02720  Biso   1.000  C
  C13      1.0000 0.68860  0.60120  0.49170  Biso   1.000  C
  C14      1.0000 0.31140  0.39880  0.50830  Biso   1.000  C
  H13      1.0000 0.58760  0.67550  0.45580  Biso   1.000  H
  H14      1.0000 0.41240  0.32450  0.54420  Biso   1.000  H
  H15      1.0000 0.68530  0.51740  0.39260  Biso   1.000  H
  H16      1.0000 0.31470  0.48260  0.60740  Biso   1.000  H
  H17      1.0000 0.78940  0.64290  0.53490  Biso   1.000  H
  H18      1.0000 0.21060  0.35710  0.46510  Biso   1.000  H
  H19      1.0000 0.04100  0.96900  0.70700  Biso   1.000  H
  H20      1.0000 0.95900  0.03100  0.29300  Biso   1.000  H
  H21      1.0000 0.18800  0.94900  0.69700  Biso   1.000  H
  H22      1.0000 0.81200  0.05100  0.30300  Biso   1.000  H
