data_image0
_cell_length_a       6.265
_cell_length_b       8.792
_cell_length_c       9.915
_cell_angle_alpha    105.78
_cell_angle_beta     99.14
_cell_angle_gamma    103.81

_symmetry_space_group_name_H-M    "P 1"
_symmetry_int_tables_number       1

loop_
  _symmetry_equiv_pos_as_xyz
  'x, y, z'

loop_
  _atom_site_label
  _atom_site_occupancy
  _atom_site_fract_x
  _atom_site_fract_y
  _atom_site_fract_z
  _atom_site_thermal_displace_type
  _atom_site_B_iso_or_equiv
  _atom_site_type_symbol
  Cu1      1.0000 0.00000  0.00000  0.00000  Biso   1.000  Cu
  Cu2      1.0000 0.29123  0.56141  0.79671  Biso   1.000  Cu
  Cu3      1.0000 0.70877  0.43859  0.20329  Biso   1.000  Cu
  P1       1.0000 0.18800  0.87990  0.74350  Biso   1.000  P
  P2       1.0000 0.81200  0.12010  0.25650  Biso   1.000  P
  P3       1.0000 0.83690  0.63790  0.80900  Biso   1.000  P
  P4       1.0000 0.16310  0.36210  0.19100  Biso   1.000  P
  O1       1.0000 0.23800  0.98200  0.64070  Biso   1.000  O
  O2       1.0000 0.76200  0.01800  0.35930  Biso   1.000  O
  O3       1.0000 0.24310  0.99920  0.89600  Biso   1.000  O
  O4       1.0000 0.75690  0.00080  0.10400  Biso   1.000  O
  O5       1.0000 0.31580  0.75170  0.72440  Biso   1.000  O
  O6       1.0000 0.68420  0.24830  0.27560  Biso   1.000  O
  O7       1.0000 0.93690  0.75800  0.96590  Biso   1.000  O
  O8       1.0000 0.06310  0.24200  0.03410  Biso   1.000  O
  O9       1.0000 0.96710  0.51140  0.77240  Biso   1.000  O
  O10      1.0000 0.03290  0.48860  0.22760  Biso   1.000  O
  O11      1.0000 0.58620  0.55330  0.77360  Biso   1.000  O
  O12      1.0000 0.41380  0.44670  0.22640  Biso   1.000  O
  O13      1.0000 0.77780  0.90160  0.74720  Biso   1.000  O
  O14      1.0000 0.22220  0.09840  0.25280  Biso   1.000  O
  O15      1.0000 0.26150  0.35140  0.83280  Biso   1.000  O
  O16      1.0000 0.73850  0.64860  0.16720  Biso   1.000  O
  O17      1.0000 0.37890  0.73040  0.03460  Biso   1.000  O
  O18      1.0000 0.62110  0.26960  0.96540  Biso   1.000  O
  O19      1.0000 0.26950  0.82900  0.38930  Biso   1.000  O
  O20      1.0000 0.73050  0.17100  0.61070  Biso   1.000  O
  C1       1.0000 0.88400  0.77280  0.69610  Biso   1.000  C
  C2       1.0000 0.11600  0.22720  0.30390  Biso   1.000  C
  C3       1.0000 0.79100  0.68000  0.53590  Biso   1.000  C
  C4       1.0000 0.20900  0.32000  0.46410  Biso   1.000  C
  H1       1.0000 0.82060  0.75570  0.48250  Biso   1.000  H
  H2       1.0000 0.17940  0.24430  0.51750  Biso   1.000  H
  H3       1.0000 0.86140  0.59480  0.50630  Biso   1.000  H
  H4       1.0000 0.13860  0.40520  0.49370  Biso   1.000  H
  H5       1.0000 0.63060  0.63110  0.51770  Biso   1.000  H
  H6       1.0000 0.36940  0.36890  0.48230  Biso   1.000  H
  H7       1.0000 0.31400  0.96700  0.58500  Biso   1.000  H
  H8       1.0000 0.68600  0.03300  0.41500  Biso   1.000  H
  H9       1.0000 0.64880  0.89600  0.75000  Biso   1.000  H
  H10      1.0000 0.35120  0.10400  0.25000  Biso   1.000  H
  H11      1.0000 0.37800  0.33600  0.86700  Biso   1.000  H
  H12      1.0000 0.62200  0.66400  0.13300  Biso   1.000  H
  H13      1.0000 0.20400  0.34000  0.89700  Biso   1.000  H
  H14      1.0000 0.79600  0.66000  0.10300  Biso   1.000  H
  H15      1.0000 0.25130  0.73000  0.03700  Biso   1.000  H
  H16      1.0000 0.74870  0.27000  0.96300  Biso   1.000  H
  H17      1.0000 0.42300  0.81640  0.02500  Biso   1.000  H
  H18      1.0000 0.57700  0.18360  0.97500  Biso   1.000  H
  H19      1.0000 0.22600  0.86400  0.32900  Biso   1.000  H
  H20      1.0000 0.77400  0.13600  0.67100  Biso   1.000  H
  H21      1.0000 0.20300  0.73280  0.34900  Biso   1.000  H
  H22      1.0000 0.79700  0.26720  0.65100  Biso   1.000  H
