data_image0
_cell_length_a       9.916
_cell_length_b       8.785
_cell_length_c       6.264
_cell_angle_alpha    103.8
_cell_angle_beta     99.22
_cell_angle_gamma    105.78

_symmetry_space_group_name_H-M    "P 1"
_symmetry_int_tables_number       1

loop_
  _symmetry_equiv_pos_as_xyz
  'x, y, z'

loop_
  _atom_site_label
  _atom_site_occupancy
  _atom_site_fract_x
  _atom_site_fract_y
  _atom_site_fract_z
  _atom_site_thermal_displace_type
  _atom_site_B_iso_or_equiv
  _atom_site_type_symbol
  Cu1      1.0000 0.29650  0.06100  0.79160  Biso   1.000  Cu
  Cu2      1.0000 0.70350  0.93900  0.20840  Biso   1.000  Cu
  Cu3      1.0000 0.50000  0.50000  0.50000  Biso   1.000  Cu
  P1       1.0000 0.24370  0.37930  0.68800  Biso   1.000  P
  P2       1.0000 0.75630  0.62070  0.31200  Biso   1.000  P
  P3       1.0000 0.30950  0.13810  0.33670  Biso   1.000  P
  P4       1.0000 0.69050  0.86190  0.66330  Biso   1.000  P
  O1       1.0000 0.24970  0.40190  0.27700  Biso   1.000  O
  O2       1.0000 0.75030  0.59810  0.72300  Biso   1.000  O
  O3       1.0000 0.22460  0.25080  0.81330  Biso   1.000  O
  O4       1.0000 0.77540  0.74920  0.18670  Biso   1.000  O
  O5       1.0000 0.39490  0.49650  0.73690  Biso   1.000  O
  O6       1.0000 0.60510  0.50350  0.26310  Biso   1.000  O
  O7       1.0000 0.13870  0.47730  0.73750  Biso   1.000  O
  O8       1.0000 0.86130  0.52270  0.26250  Biso   1.000  O
  O9       1.0000 0.27580  0.05340  0.08840  Biso   1.000  O
  O10      1.0000 0.72420  0.94660  0.91160  Biso   1.000  O
  O11      1.0000 0.27300  0.01100  0.46620  Biso   1.000  O
  O12      1.0000 0.72700  0.98900  0.53380  Biso   1.000  O
  O13      1.0000 0.46350  0.25700  0.42920  Biso   1.000  O
  O14      1.0000 0.53650  0.74300  0.57080  Biso   1.000  O
  O15      1.0000 0.33150  0.84770  0.75860  Biso   1.000  O
  O16      1.0000 0.66850  0.15230  0.24140  Biso   1.000  O
  O17      1.0000 0.53790  0.22980  0.87300  Biso   1.000  O
  O18      1.0000 0.46210  0.77020  0.12700  Biso   1.000  O
  C1       1.0000 0.19650  0.27220  0.38310  Biso   1.000  C
  C2       1.0000 0.80350  0.72780  0.61690  Biso   1.000  C
  C3       1.0000 0.03670  0.18460  0.28480  Biso   1.000  C
  C4       1.0000 0.96330  0.81540  0.71520  Biso   1.000  C
  O19      1.0000 0.10930  0.67210  0.23440  Biso   1.000  O
  O20      1.0000 0.89070  0.32790  0.76560  Biso   1.000  O
