data_image0
_cell_length_a       11.2684
_cell_length_b       14.3382
_cell_length_c       16.2508
_cell_angle_alpha    72.678
_cell_angle_beta     83.247
_cell_angle_gamma    82.512

_symmetry_space_group_name_H-M    "P 1"
_symmetry_int_tables_number       1

loop_
  _symmetry_equiv_pos_as_xyz
  'x, y, z'

loop_
  _atom_site_label
  _atom_site_occupancy
  _atom_site_fract_x
  _atom_site_fract_y
  _atom_site_fract_z
  _atom_site_thermal_displace_type
  _atom_site_B_iso_or_equiv
  _atom_site_type_symbol
  Cu1      1.0000 0.50000  0.50000  0.00000  Biso   1.000  Cu
  N1       1.0000 0.65730  0.42370  0.00910  Biso   1.000  N
  N2       1.0000 0.34270  0.57630  0.99090  Biso   1.000  N
  H1       1.0000 0.67210  0.37790  0.05760  Biso   1.000  H
  H2       1.0000 0.32790  0.62210  0.94240  Biso   1.000  H
  S1       1.0000 0.76025  0.44240  0.93076  Biso   1.000  S
  S2       1.0000 0.23975  0.55760  0.06924  Biso   1.000  S
  C1       1.0000 0.75760  0.38380  0.85220  Biso   1.000  C
  C2       1.0000 0.24240  0.61620  0.14780  Biso   1.000  C
  C3       1.0000 0.80390  0.42710  0.77100  Biso   1.000  C
  C4       1.0000 0.19610  0.57290  0.22900  Biso   1.000  C
  H3       1.0000 0.83630  0.48840  0.75720  Biso   1.000  H
  H4       1.0000 0.16370  0.51160  0.24280  Biso   1.000  H
  C5       1.0000 0.80230  0.37870  0.70840  Biso   1.000  C
  C6       1.0000 0.19770  0.62130  0.29160  Biso   1.000  C
  H5       1.0000 0.83420  0.40610  0.65070  Biso   1.000  H
  H6       1.0000 0.16580  0.59390  0.34930  Biso   1.000  H
  C7       1.0000 0.75330  0.29000  0.73230  Biso   1.000  C
  C8       1.0000 0.24670  0.71000  0.26770  Biso   1.000  C
  H7       1.0000 0.75400  0.25520  0.69080  Biso   1.000  H
  H8       1.0000 0.24600  0.74480  0.30920  Biso   1.000  H
  C9       1.0000 0.70330  0.25110  0.81530  Biso   1.000  C
  C10      1.0000 0.29670  0.74890  0.18470  Biso   1.000  C
  H9       1.0000 0.66500  0.19240  0.82970  Biso   1.000  H
  H10      1.0000 0.33500  0.80760  0.17030  Biso   1.000  H
  C11      1.0000 0.70940  0.29870  0.87770  Biso   1.000  C
  C12      1.0000 0.29060  0.70130  0.12230  Biso   1.000  C
  H11      1.0000 0.68030  0.27140  0.93610  Biso   1.000  H
  H12      1.0000 0.31970  0.72860  0.06390  Biso   1.000  H
  C13      1.0000 0.74400  0.34790  0.87900  Biso   1.000  C
  C14      1.0000 0.25600  0.65210  0.12100  Biso   1.000  C
  C15      1.0000 0.76130  0.36970  0.78180  Biso   1.000  C
  C16      1.0000 0.23870  0.63030  0.21820  Biso   1.000  C
  H13      1.0000 0.77820  0.43440  0.74990  Biso   1.000  H
  H14      1.0000 0.22180  0.56560  0.25010  Biso   1.000  H
  C17      1.0000 0.75500  0.30600  0.73560  Biso   1.000  C
  C18      1.0000 0.24500  0.69400  0.26440  Biso   1.000  C
  H15      1.0000 0.76200  0.32610  0.67420  Biso   1.000  H
  H16      1.0000 0.23800  0.67390  0.32580  Biso   1.000  H
  C19      1.0000 0.73900  0.21220  0.78080  Biso   1.000  C
  C20      1.0000 0.26100  0.78780  0.21920  Biso   1.000  C
  H17      1.0000 0.74160  0.16630  0.74870  Biso   1.000  H
  H18      1.0000 0.25840  0.83370  0.25130  Biso   1.000  H
  C21      1.0000 0.71900  0.17790  0.86750  Biso   1.000  C
  C22      1.0000 0.28100  0.82210  0.13250  Biso   1.000  C
  H19      1.0000 0.70270  0.11200  0.89450  Biso   1.000  H
  H20      1.0000 0.29730  0.88800  0.10550  Biso   1.000  H
  C23      1.0000 0.72400  0.24050  0.91490  Biso   1.000  C
  C24      1.0000 0.27600  0.75950  0.08510  Biso   1.000  C
  H21      1.0000 0.71470  0.21460  0.97610  Biso   1.000  H
  H22      1.0000 0.28530  0.78540  0.02390  Biso   1.000  H
  C25      1.0000 0.90110  0.38680  0.97290  Biso   1.000  C
  C26      1.0000 0.09890  0.61320  0.02710  Biso   1.000  C
  C27      1.0000 0.00080  0.43120  0.93140  Biso   1.000  C
  C28      1.0000 0.99920  0.56880  0.06860  Biso   1.000  C
  H23      1.0000 0.99390  0.48780  0.88290  Biso   1.000  H
  H24      1.0000 0.00610  0.51220  0.11710  Biso   1.000  H
  C29      1.0000 0.11140  0.39220  0.96130  Biso   1.000  C
  C30      1.0000 0.88860  0.60780  0.03870  Biso   1.000  C
  H25      1.0000 0.18130  0.42180  0.93240  Biso   1.000  H
  H26      1.0000 0.81870  0.57820  0.06760  Biso   1.000  H
  C31      1.0000 0.12210  0.31230  0.03120  Biso   1.000  C
  C32      1.0000 0.87790  0.68770  0.96880  Biso   1.000  C
  H27      1.0000 0.19880  0.28730  0.05180  Biso   1.000  H
  H28      1.0000 0.80120  0.71270  0.94820  Biso   1.000  H
  C33      1.0000 0.02160  0.26750  0.07220  Biso   1.000  C
  C34      1.0000 0.97840  0.73250  0.92780  Biso   1.000  C
  H29      1.0000 0.02890  0.21120  0.12090  Biso   1.000  H
  H30      1.0000 0.97110  0.78880  0.87910  Biso   1.000  H
  C35      1.0000 0.90920  0.30500  0.04220  Biso   1.000  C
  C36      1.0000 0.09080  0.69500  0.95780  Biso   1.000  C
  H31      1.0000 0.83940  0.27410  0.06940  Biso   1.000  H
  H32      1.0000 0.16060  0.72590  0.93060  Biso   1.000  H
  C37      1.0000 0.34730  0.32970  0.23300  Biso   1.000  C
  C38      1.0000 0.65270  0.67030  0.76700  Biso   1.000  C
  C39      1.0000 0.26510  0.26040  0.25110  Biso   1.000  C
  C40      1.0000 0.73490  0.73960  0.74890  Biso   1.000  C
  H33      1.0000 0.24820  0.23470  0.20670  Biso   1.000  H
  H34      1.0000 0.75180  0.76530  0.79330  Biso   1.000  H
  C41      1.0000 0.20770  0.22830  0.33330  Biso   1.000  C
  C42      1.0000 0.79230  0.77170  0.66670  Biso   1.000  C
  C43      1.0000 0.23160  0.26630  0.39770  Biso   1.000  C
  C44      1.0000 0.76840  0.73370  0.60230  Biso   1.000  C
  H35      1.0000 0.19250  0.24440  0.45410  Biso   1.000  H
  H36      1.0000 0.80750  0.75560  0.54590  Biso   1.000  H
  C45      1.0000 0.31250  0.33650  0.38050  Biso   1.000  C
  C46      1.0000 0.68750  0.66350  0.61950  Biso   1.000  C
  C47      1.0000 0.37000  0.36830  0.29770  Biso   1.000  C
  C48      1.0000 0.63000  0.63170  0.70230  Biso   1.000  C
  H37      1.0000 0.42490  0.41650  0.28560  Biso   1.000  H
  H38      1.0000 0.57510  0.58350  0.71440  Biso   1.000  H
  C49      1.0000 0.40820  0.36370  0.14290  Biso   1.000  C
  C50      1.0000 0.59180  0.63630  0.85710  Biso   1.000  C
  O1       1.0000 0.46050  0.44190  0.12534  Biso   1.000  O
  O2       1.0000 0.53950  0.55810  0.87466  Biso   1.000  O
  O3       1.0000 0.40350  0.31650  0.09060  Biso   1.000  O
  O4       1.0000 0.59650  0.68350  0.90940  Biso   1.000  O
  C51      1.0000 0.12150  0.15040  0.35230  Biso   1.000  C
  C52      1.0000 0.87850  0.84960  0.64770  Biso   1.000  C
  O5       1.0000 0.09220  0.11210  0.43154  Biso   1.000  O
  O6       1.0000 0.90780  0.88790  0.56846  Biso   1.000  O
  O7       1.0000 0.08570  0.13060  0.29050  Biso   1.000  O
  O8       1.0000 0.91430  0.86940  0.70950  Biso   1.000  O
  C53      1.0000 0.33720  0.37670  0.45230  Biso   1.000  C
  C54      1.0000 0.66280  0.62330  0.54770  Biso   1.000  C
  O9       1.0000 0.42020  0.43370  0.43330  Biso   1.000  O
  O10      1.0000 0.57980  0.56630  0.56670  Biso   1.000  O
  O11      1.0000 0.27650  0.35270  0.52280  Biso   1.000  O
  O12      1.0000 0.72350  0.64730  0.47720  Biso   1.000  O
  Cu2      1.0000 0.02897  0.98380  0.50122  Biso   1.000  Cu
  Cu3      1.0000 0.97103  0.01620  0.49878  Biso   1.000  Cu
  N3       1.0000 0.96980  0.97060  0.39540  Biso   1.000  N
  N4       1.0000 0.03020  0.02940  0.60460  Biso   1.000  N
  H39      1.0000 0.99780  0.01000  0.34630  Biso   1.000  H
  H40      1.0000 0.00220  0.99000  0.65370  Biso   1.000  H
  S3       1.0000 0.88177  0.90098  0.38758  Biso   1.000  S
  S4       1.0000 0.11823  0.09902  0.61242  Biso   1.000  S
  C55      1.0000 0.91960  0.87640  0.28480  Biso   1.000  C
  C56      1.0000 0.08040  0.12360  0.71520  Biso   1.000  C
  C57      1.0000 0.97670  0.93940  0.21790  Biso   1.000  C
  C58      1.0000 0.02330  0.06060  0.78210  Biso   1.000  C
  H41      1.0000 0.00230  0.99730  0.22410  Biso   1.000  H
  H42      1.0000 0.99770  0.00270  0.77590  Biso   1.000  H
  C59      1.0000 0.99740  0.91720  0.13910  Biso   1.000  C
  C60      1.0000 0.00260  0.08280  0.86090  Biso   1.000  C
  H43      1.0000 0.03620  0.96080  0.09040  Biso   1.000  H
  H44      1.0000 0.96380  0.03920  0.90960  Biso   1.000  H
  C61      1.0000 0.96130  0.83220  0.13200  Biso   1.000  C
  C62      1.0000 0.03870  0.16780  0.86800  Biso   1.000  C
  H45      1.0000 0.97170  0.81910  0.07750  Biso   1.000  H
  H46      1.0000 0.02830  0.18090  0.92250  Biso   1.000  H
  C63      1.0000 0.91260  0.76860  0.19970  Biso   1.000  C
  C64      1.0000 0.08740  0.23140  0.80030  Biso   1.000  C
  H47      1.0000 0.89140  0.70890  0.19400  Biso   1.000  H
  H48      1.0000 0.10860  0.29110  0.80600  Biso   1.000  H
  C65      1.0000 0.89180  0.78780  0.27930  Biso   1.000  C
  C66      1.0000 0.10820  0.21220  0.72070  Biso   1.000  C
  H49      1.0000 0.85930  0.74110  0.32870  Biso   1.000  H
  H50      1.0000 0.14070  0.25890  0.67130  Biso   1.000  H
  C67      1.0000 0.74270  0.97300  0.37120  Biso   1.000  C
  C68      1.0000 0.25730  0.02700  0.62880  Biso   1.000  C
  C69      1.0000 0.64230  0.92760  0.39410  Biso   1.000  C
  C70      1.0000 0.35770  0.07240  0.60590  Biso   1.000  C
  H51      1.0000 0.64610  0.85810  0.41620  Biso   1.000  H
  H52      1.0000 0.35390  0.14190  0.58380  Biso   1.000  H
  C71      1.0000 0.52910  0.98600  0.38430  Biso   1.000  C
  C72      1.0000 0.47090  0.01400  0.61570  Biso   1.000  C
  H53      1.0000 0.45720  0.95460  0.39860  Biso   1.000  H
  H54      1.0000 0.54280  0.04540  0.60140  Biso   1.000  H
  C73      1.0000 0.52240  0.08300  0.35590  Biso   1.000  C
  C74      1.0000 0.47760  0.91700  0.64410  Biso   1.000  C
  H55      1.0000 0.44680  0.12100  0.34800  Biso   1.000  H
  H56      1.0000 0.55320  0.87900  0.65200  Biso   1.000  H
  C75      1.0000 0.62240  0.12550  0.33890  Biso   1.000  C
  C76      1.0000 0.37760  0.87450  0.66110  Biso   1.000  C
  H57      1.0000 0.61740  0.19520  0.31930  Biso   1.000  H
  H58      1.0000 0.38260  0.80480  0.68070  Biso   1.000  H
  C77      1.0000 0.73800  0.07180  0.34840  Biso   1.000  C
  C78      1.0000 0.26200  0.92820  0.65160  Biso   1.000  C
  H59      1.0000 0.80880  0.10420  0.33920  Biso   1.000  H
  H60      1.0000 0.19120  0.89580  0.66080  Biso   1.000  H
  S5       1.0000 0.95700  0.86800  0.40150  Biso   1.000  S
  S6       1.0000 0.04300  0.13200  0.59850  Biso   1.000  S
  C79      1.0000 0.12990  0.82810  0.43020  Biso   1.000  C
  C80      1.0000 0.87010  0.17190  0.56980  Biso   1.000  C
  C81      1.0000 0.15830  0.73790  0.48300  Biso   1.000  C
  C82      1.0000 0.84170  0.26210  0.51700  Biso   1.000  C
  H61      1.0000 0.09720  0.69590  0.50920  Biso   1.000  H
  H62      1.0000 0.90280  0.30410  0.49080  Biso   1.000  H
  C83      1.0000 0.28130  0.70530  0.49970  Biso   1.000  C
  C84      1.0000 0.71870  0.29470  0.50030  Biso   1.000  C
  H63      1.0000 0.29950  0.64130  0.53700  Biso   1.000  H
  H64      1.0000 0.70050  0.35870  0.46300  Biso   1.000  H
  C85      1.0000 0.37030  0.75940  0.46600  Biso   1.000  C
  C86      1.0000 0.62970  0.24060  0.53400  Biso   1.000  C
  H65      1.0000 0.45110  0.73680  0.47840  Biso   1.000  H
  H66      1.0000 0.54890  0.26320  0.52160  Biso   1.000  H
  C87      1.0000 0.34000  0.84760  0.41370  Biso   1.000  C
  C88      1.0000 0.66000  0.15240  0.58630  Biso   1.000  C
  H67      1.0000 0.40200  0.88840  0.38710  Biso   1.000  H
  H68      1.0000 0.59800  0.11160  0.61290  Biso   1.000  H
  C89      1.0000 0.21990  0.88450  0.39510  Biso   1.000  C
  C90      1.0000 0.78010  0.11550  0.60490  Biso   1.000  C
  H69      1.0000 0.20310  0.94900  0.35800  Biso   1.000  H
  H70      1.0000 0.79690  0.05100  0.64200  Biso   1.000  H
  Cu4      1.0000 0.50000  0.50000  0.50000  Biso   1.000  Cu
  N5       1.0000 0.44190  0.41250  0.60800  Biso   1.000  N
  N6       1.0000 0.55810  0.58750  0.39200  Biso   1.000  N
  H71      1.0000 0.41620  0.35780  0.60610  Biso   1.000  H
  H72      1.0000 0.58380  0.64220  0.39390  Biso   1.000  H
  S7       1.0000 0.43653  0.43075  0.70022  Biso   1.000  S
  S8       1.0000 0.56347  0.56925  0.29978  Biso   1.000  S
  C91      1.0000 0.41190  0.31530  0.77850  Biso   1.000  C
  C92      1.0000 0.58810  0.68470  0.22150  Biso   1.000  C
  C93      1.0000 0.40960  0.23320  0.75320  Biso   1.000  C
  C94      1.0000 0.59040  0.76680  0.24680  Biso   1.000  C
  H73      1.0000 0.41560  0.23730  0.69350  Biso   1.000  H
  H74      1.0000 0.58440  0.76270  0.30650  Biso   1.000  H
  C95      1.0000 0.39840  0.14380  0.81480  Biso   1.000  C
  C96      1.0000 0.60160  0.85620  0.18520  Biso   1.000  C
  H75      1.0000 0.39610  0.08620  0.79780  Biso   1.000  H
  H76      1.0000 0.60390  0.91380  0.20220  Biso   1.000  H
  C97      1.0000 0.39050  0.13920  0.90230  Biso   1.000  C
  C98      1.0000 0.60950  0.86080  0.09770  Biso   1.000  C
  H77      1.0000 0.38110  0.07820  0.94500  Biso   1.000  H
  H78      1.0000 0.61890  0.92180  0.05500  Biso   1.000  H
  C99      1.0000 0.39610  0.22150  0.92710  Biso   1.000  C
  C100     1.0000 0.60390  0.77850  0.07290  Biso   1.000  C
  H79      1.0000 0.39250  0.21730  0.98680  Biso   1.000  H
  H80      1.0000 0.60750  0.78270  0.01320  Biso   1.000  H
  C101     1.0000 0.40680  0.31060  0.86560  Biso   1.000  C
  C102     1.0000 0.59320  0.68940  0.13440  Biso   1.000  C
  H81      1.0000 0.41070  0.36810  0.88240  Biso   1.000  H
  H82      1.0000 0.58930  0.63190  0.11760  Biso   1.000  H
  C103     1.0000 0.29670  0.50130  0.71780  Biso   1.000  C
  C104     1.0000 0.70330  0.49870  0.28220  Biso   1.000  C
  C105     1.0000 0.19600  0.49370  0.68110  Biso   1.000  C
  C106     1.0000 0.80400  0.50630  0.31890  Biso   1.000  C
  H83      1.0000 0.19590  0.44600  0.65120  Biso   1.000  H
  H84      1.0000 0.80410  0.55400  0.34880  Biso   1.000  H
  C107     1.0000 0.09360  0.55810  0.68880  Biso   1.000  C
  C108     1.0000 0.90640  0.44190  0.31120  Biso   1.000  C
  H85      1.0000 0.02370  0.55560  0.66240  Biso   1.000  H
  H86      1.0000 0.97630  0.44440  0.33760  Biso   1.000  H
  C109     1.0000 0.09350  0.62470  0.73430  Biso   1.000  C
  C110     1.0000 0.90650  0.37530  0.26570  Biso   1.000  C
  H87      1.0000 0.02280  0.66680  0.74090  Biso   1.000  H
  H88      1.0000 0.97720  0.33320  0.25910  Biso   1.000  H
  C111     1.0000 0.19430  0.63050  0.76990  Biso   1.000  C
  C112     1.0000 0.80570  0.36950  0.23010  Biso   1.000  C
  H89      1.0000 0.19400  0.67770  0.80040  Biso   1.000  H
  H90      1.0000 0.80600  0.32230  0.19960  Biso   1.000  H
  C113     1.0000 0.29780  0.56860  0.76230  Biso   1.000  C
  C114     1.0000 0.70220  0.43140  0.23770  Biso   1.000  C
  H91      1.0000 0.36810  0.57290  0.78760  Biso   1.000  H
  H92      1.0000 0.63190  0.42710  0.21240  Biso   1.000  H
  O13      1.0000 0.64090  0.21240  0.11050  Biso   1.000  O
  O14      1.0000 0.35910  0.78760  0.88950  Biso   1.000  O
  C115     1.0000 0.66810  0.12410  0.10030  Biso   1.000  C
  C116     1.0000 0.33190  0.87590  0.89970  Biso   1.000  C
  H93      1.0000 0.72780  0.08700  0.14020  Biso   1.000  H
  H94      1.0000 0.27220  0.91300  0.85980  Biso   1.000  H
  H95      1.0000 0.70120  0.12990  0.04060  Biso   1.000  H
  H96      1.0000 0.29880  0.87010  0.95940  Biso   1.000  H
  H97      1.0000 0.59560  0.08960  0.11240  Biso   1.000  H
  H98      1.0000 0.40440  0.91040  0.88760  Biso   1.000  H
  O15      1.0000 0.23120  0.07420  0.14980  Biso   1.000  O
  O16      1.0000 0.76880  0.92580  0.85020  Biso   1.000  O
  C117     1.0000 0.33900  0.02940  0.18380  Biso   1.000  C
  C118     1.0000 0.66100  0.97060  0.81620  Biso   1.000  C
  O17      1.0000 0.44010  0.10980  0.13750  Biso   1.000  O
  O18      1.0000 0.55990  0.89020  0.86250  Biso   1.000  O
  C119     1.0000 0.34200  0.05570  0.15340  Biso   1.000  C
  C120     1.0000 0.65800  0.94430  0.84660  Biso   1.000  C
  O19      1.0000 0.20530  0.86210  0.51350  Biso   1.000  O
  O20      1.0000 0.79470  0.13790  0.48650  Biso   1.000  O
  C121     1.0000 0.26500  0.78100  0.48450  Biso   1.000  C
  C122     1.0000 0.73500  0.21900  0.51550  Biso   1.000  C
  H99      1.0000 0.28870  0.72670  0.53450  Biso   1.000  H
  H100     1.0000 0.71130  0.27330  0.46550  Biso   1.000  H
  H101     1.0000 0.33600  0.80180  0.44600  Biso   1.000  H
  H102     1.0000 0.66400  0.19820  0.55400  Biso   1.000  H
  H103     1.0000 0.20970  0.75920  0.45310  Biso   1.000  H
  H104     1.0000 0.79030  0.24080  0.54690  Biso   1.000  H
  O21      1.0000 0.97190  0.56730  0.49000  Biso   1.000  O
  O22      1.0000 0.02810  0.43270  0.51000  Biso   1.000  O
  C123     1.0000 0.06000  0.63200  0.47300  Biso   1.000  C
  C124     1.0000 0.94000  0.36800  0.52700  Biso   1.000  C
  H105     1.0000 0.11240  0.61160  0.52100  Biso   1.000  H
  H106     1.0000 0.88760  0.38840  0.47900  Biso   1.000  H
  H107     1.0000 0.02150  0.69830  0.46860  Biso   1.000  H
  H108     1.0000 0.97850  0.30170  0.53140  Biso   1.000  H
  H109     1.0000 0.10740  0.63060  0.41920  Biso   1.000  H
  H110     1.0000 0.89260  0.36940  0.58080  Biso   1.000  H
