data_image0
_cell_length_a       7.8961
_cell_length_b       8.6096
_cell_length_c       9.98
_cell_angle_alpha    111.26
_cell_angle_beta     97.9
_cell_angle_gamma    104.62

_symmetry_space_group_name_H-M    "P 1"
_symmetry_int_tables_number       1

loop_
  _symmetry_equiv_pos_as_xyz
  'x, y, z'

loop_
  _atom_site_label
  _atom_site_occupancy
  _atom_site_fract_x
  _atom_site_fract_y
  _atom_site_fract_z
  _atom_site_thermal_displace_type
  _atom_site_B_iso_or_equiv
  _atom_site_type_symbol
  Cu1      1.0000 0.50000  0.50000  0.50000  Biso   1.000  Cu
  N1       1.0000 0.35490  0.24246  0.40637  Biso   1.000  N
  N2       1.0000 0.64510  0.75754  0.59363  Biso   1.000  N
  O1       1.0000 0.41517  0.52150  0.72975  Biso   1.000  O
  O2       1.0000 0.58483  0.47850  0.27025  Biso   1.000  O
  O3       1.0000 0.10921  0.50657  0.63497  Biso   1.000  O
  O4       1.0000 0.89079  0.49343  0.36503  Biso   1.000  O
  O5       1.0000 0.19960  0.51744  0.88047  Biso   1.000  O
  O6       1.0000 0.80040  0.48256  0.11953  Biso   1.000  O
  S1       1.0000 0.25743  0.56787  0.76556  Biso   1.000  S
  S2       1.0000 0.74257  0.43213  0.23444  Biso   1.000  S
  C1       1.0000 0.34960  0.14550  0.48570  Biso   1.000  C
  C2       1.0000 0.65040  0.85450  0.51430  Biso   1.000  C
  H1       1.0000 0.41350  0.19970  0.58510  Biso   1.000  H
  H2       1.0000 0.58650  0.80030  0.41490  Biso   1.000  H
  C3       1.0000 0.25220  0.96780  0.42450  Biso   1.000  C
  C4       1.0000 0.74780  0.03220  0.57550  Biso   1.000  C
  H3       1.0000 0.25030  0.90370  0.48220  Biso   1.000  H
  H4       1.0000 0.74970  0.09630  0.51780  Biso   1.000  H
  C5       1.0000 0.15830  0.88670  0.27770  Biso   1.000  C
  C6       1.0000 0.84170  0.11330  0.72230  Biso   1.000  C
  H5       1.0000 0.09120  0.76730  0.23450  Biso   1.000  H
  H6       1.0000 0.90880  0.23270  0.76550  Biso   1.000  H
  C7       1.0000 0.16540  0.98550  0.19560  Biso   1.000  C
  C8       1.0000 0.83460  0.01450  0.80440  Biso   1.000  C
  H7       1.0000 0.10420  0.93320  0.09560  Biso   1.000  H
  H8       1.0000 0.89580  0.06680  0.90440  Biso   1.000  H
  C9       1.0000 0.26370  0.16210  0.26270  Biso   1.000  C
  C10      1.0000 0.73630  0.83790  0.73730  Biso   1.000  C
  H9       1.0000 0.26710  0.22820  0.20670  Biso   1.000  H
  H10      1.0000 0.73290  0.77180  0.79330  Biso   1.000  H
  C11      1.0000 0.32700  0.80320  0.84226  Biso   1.000  C
  C12      1.0000 0.67300  0.19680  0.15774  Biso   1.000  C
  C13      1.0000 0.24020  0.88170  0.77250  Biso   1.000  C
  C14      1.0000 0.75980  0.11830  0.22750  Biso   1.000  C
  H11      1.0000 0.14380  0.81240  0.68900  Biso   1.000  H
  H12      1.0000 0.85620  0.18760  0.31100  Biso   1.000  H
  C15      1.0000 0.29470  0.06550  0.82540  Biso   1.000  C
  C16      1.0000 0.70530  0.93450  0.17460  Biso   1.000  C
  H13      1.0000 0.23510  0.11730  0.77600  Biso   1.000  H
  H14      1.0000 0.76490  0.88270  0.22400  Biso   1.000  H
  C17      1.0000 0.43420  0.16930  0.94845  Biso   1.000  C
  C18      1.0000 0.56580  0.83070  0.05155  Biso   1.000  C
  H15      1.0000 0.46930  0.29140  0.98200  Biso   1.000  H
  H16      1.0000 0.53070  0.70860  0.01800  Biso   1.000  H
  C19      1.0000 0.52660  0.09300  0.02601  Biso   1.000  C
  C20      1.0000 0.47340  0.90700  0.97399  Biso   1.000  C
  O7       1.0000 0.71013  0.43911  0.57910  Biso   1.000  O
  O8       1.0000 0.28987  0.56089  0.42090  Biso   1.000  O
  H17      1.0000 0.79400  0.46400  0.54200  Biso   1.000  H
  H18      1.0000 0.20600  0.53600  0.45800  Biso   1.000  H
  H19      1.0000 0.73800  0.47000  0.67160  Biso   1.000  H
  H20      1.0000 0.26200  0.53000  0.32840  Biso   1.000  H
  O9       1.0000 0.85280  0.57070  0.87765  Biso   1.000  O
  O10      1.0000 0.14720  0.42930  0.12235  Biso   1.000  O
  H21      1.0000 0.96110  0.57400  0.89600  Biso   1.000  H
  H22      1.0000 0.03890  0.42600  0.10400  Biso   1.000  H
  H23      1.0000 0.79300  0.53500  0.93000  Biso   1.000  H
  H24      1.0000 0.20700  0.46500  0.07000  Biso   1.000  H
