data_image0
_cell_length_a       8.405
_cell_length_b       20.694
_cell_length_c       7.532
_cell_angle_alpha    90
_cell_angle_beta     90
_cell_angle_gamma    90

_symmetry_space_group_name_H-M    "P 1"
_symmetry_int_tables_number       1

loop_
  _symmetry_equiv_pos_as_xyz
  'x, y, z'

loop_
  _atom_site_label
  _atom_site_occupancy
  _atom_site_fract_x
  _atom_site_fract_y
  _atom_site_fract_z
  _atom_site_thermal_displace_type
  _atom_site_B_iso_or_equiv
  _atom_site_type_symbol
  I1       1.0000 0.95220  0.76360  0.66900  Biso   1.000  I
  I2       1.0000 0.45220  0.73640  0.33100  Biso   1.000  I
  I3       1.0000 0.04780  0.26360  0.83100  Biso   1.000  I
  I4       1.0000 0.54780  0.23640  0.16900  Biso   1.000  I
  I5       1.0000 0.59800  0.89100  0.75640  Biso   1.000  I
  I6       1.0000 0.09800  0.60900  0.24360  Biso   1.000  I
  I7       1.0000 0.40200  0.39100  0.74360  Biso   1.000  I
  I8       1.0000 0.90200  0.10900  0.25640  Biso   1.000  I
  Cu1      1.0000 0.55910  0.49690  0.47790  Biso   1.000  Cu
  Cu2      1.0000 0.05910  0.00310  0.52210  Biso   1.000  Cu
  Cu3      1.0000 0.44090  0.99690  0.02210  Biso   1.000  Cu
  Cu4      1.0000 0.94090  0.50310  0.97790  Biso   1.000  Cu
  Cl1      1.0000 0.37570  0.48980  0.26500  Biso   1.000  Cl
  Cl2      1.0000 0.87570  0.01020  0.73500  Biso   1.000  Cl
  Cl3      1.0000 0.62430  0.98980  0.23500  Biso   1.000  Cl
  Cl4      1.0000 0.12430  0.51020  0.76500  Biso   1.000  Cl
  O1       1.0000 0.20800  0.87350  0.69000  Biso   1.000  O
  O2       1.0000 0.70800  0.62650  0.31000  Biso   1.000  O
  O3       1.0000 0.79200  0.37350  0.81000  Biso   1.000  O
  O4       1.0000 0.29200  0.12650  0.19000  Biso   1.000  O
  O5       1.0000 0.70600  0.50100  0.68600  Biso   1.000  O
  O6       1.0000 0.20600  0.99900  0.31400  Biso   1.000  O
  O7       1.0000 0.29400  0.00100  0.81400  Biso   1.000  O
  O8       1.0000 0.79400  0.49900  0.18600  Biso   1.000  O
  O9       1.0000 0.79700  0.57200  0.89000  Biso   1.000  O
  O10      1.0000 0.29700  0.92800  0.11000  Biso   1.000  O
  O11      1.0000 0.20300  0.07200  0.61000  Biso   1.000  O
  O12      1.0000 0.70300  0.42800  0.39000  Biso   1.000  O
  N1       1.0000 0.46800  0.57500  0.58800  Biso   1.000  N
  N2       1.0000 0.96800  0.92500  0.41200  Biso   1.000  N
  N3       1.0000 0.53200  0.07500  0.91200  Biso   1.000  N
  N4       1.0000 0.03200  0.42500  0.08800  Biso   1.000  N
  C1       1.0000 0.41900  0.70000  0.83800  Biso   1.000  C
  C2       1.0000 0.91900  0.80000  0.16200  Biso   1.000  C
  C3       1.0000 0.58100  0.20000  0.66200  Biso   1.000  C
  C4       1.0000 0.08100  0.30000  0.33800  Biso   1.000  C
  C5       1.0000 0.25400  0.70400  0.78900  Biso   1.000  C
  C6       1.0000 0.75400  0.79600  0.21100  Biso   1.000  C
  C7       1.0000 0.74600  0.20400  0.71100  Biso   1.000  C
  C8       1.0000 0.24600  0.29600  0.28900  Biso   1.000  C
  C9       1.0000 0.19100  0.76000  0.74200  Biso   1.000  C
  C10      1.0000 0.69100  0.74000  0.25800  Biso   1.000  C
  C11      1.0000 0.80900  0.26000  0.75800  Biso   1.000  C
  C12      1.0000 0.30900  0.24000  0.24200  Biso   1.000  C
  C13      1.0000 0.28200  0.81800  0.74200  Biso   1.000  C
  C14      1.0000 0.78200  0.68200  0.25800  Biso   1.000  C
  C15      1.0000 0.71800  0.31800  0.75800  Biso   1.000  C
  C16      1.0000 0.21800  0.18200  0.24200  Biso   1.000  C
  C17      1.0000 0.44200  0.80700  0.78600  Biso   1.000  C
  C18      1.0000 0.94200  0.69300  0.21400  Biso   1.000  C
  C19      1.0000 0.55800  0.30700  0.71400  Biso   1.000  C
  C20      1.0000 0.05800  0.19300  0.28600  Biso   1.000  C
  C21      1.0000 0.51000  0.74800  0.83600  Biso   1.000  C
  C22      1.0000 0.01000  0.75200  0.16400  Biso   1.000  C
  C23      1.0000 0.49000  0.24800  0.66400  Biso   1.000  C
  C24      1.0000 0.99000  0.25200  0.33600  Biso   1.000  C
  C25      1.0000 0.49000  0.63400  0.88300  Biso   1.000  C
  C26      1.0000 0.99000  0.86600  0.11700  Biso   1.000  C
  C27      1.0000 0.51000  0.13400  0.61700  Biso   1.000  C
  C28      1.0000 0.01000  0.36600  0.38300  Biso   1.000  C
  C29      1.0000 0.57800  0.60300  0.71500  Biso   1.000  C
  C30      1.0000 0.07800  0.89700  0.28500  Biso   1.000  C
  C31      1.0000 0.42200  0.10300  0.78500  Biso   1.000  C
  C32      1.0000 0.92200  0.39700  0.21500  Biso   1.000  C
  C33      1.0000 0.70100  0.55700  0.76500  Biso   1.000  C
  C34      1.0000 0.20100  0.94300  0.23500  Biso   1.000  C
  C35      1.0000 0.29900  0.05700  0.73500  Biso   1.000  C
  C36      1.0000 0.79900  0.44300  0.26500  Biso   1.000  C
