data_image0
_cell_length_a       17.3586
_cell_length_b       9.8854
_cell_length_c       26.324
_cell_angle_alpha    90
_cell_angle_beta     90
_cell_angle_gamma    90

_symmetry_space_group_name_H-M    "P 1"
_symmetry_int_tables_number       1

loop_
  _symmetry_equiv_pos_as_xyz
  'x, y, z'

loop_
  _atom_site_label
  _atom_site_occupancy
  _atom_site_fract_x
  _atom_site_fract_y
  _atom_site_fract_z
  _atom_site_thermal_displace_type
  _atom_site_B_iso_or_equiv
  _atom_site_type_symbol
  Cu1      1.0000 0.82253  0.33928  0.86116  Biso   1.000  Cu
  Cu2      1.0000 0.67747  0.66072  0.36116  Biso   1.000  Cu
  Cu3      1.0000 0.17747  0.83928  0.63884  Biso   1.000  Cu
  Cu4      1.0000 0.32253  0.16072  0.13884  Biso   1.000  Cu
  Cu5      1.0000 0.17747  0.66072  0.13884  Biso   1.000  Cu
  Cu6      1.0000 0.32253  0.33928  0.63884  Biso   1.000  Cu
  Cu7      1.0000 0.82253  0.16072  0.36116  Biso   1.000  Cu
  Cu8      1.0000 0.67747  0.83928  0.86116  Biso   1.000  Cu
  S1       1.0000 0.00557  0.43566  0.86391  Biso   1.000  S
  S2       1.0000 0.49443  0.56434  0.36391  Biso   1.000  S
  S3       1.0000 0.99443  0.93566  0.63609  Biso   1.000  S
  S4       1.0000 0.50557  0.06434  0.13609  Biso   1.000  S
  S5       1.0000 0.99443  0.56434  0.13609  Biso   1.000  S
  S6       1.0000 0.50557  0.43566  0.63609  Biso   1.000  S
  S7       1.0000 0.00557  0.06434  0.36391  Biso   1.000  S
  S8       1.0000 0.49443  0.93566  0.86391  Biso   1.000  S
  O1       1.0000 0.82170  0.53730  0.85964  Biso   1.000  O
  O2       1.0000 0.67830  0.46270  0.35964  Biso   1.000  O
  O3       1.0000 0.17830  0.03730  0.64036  Biso   1.000  O
  O4       1.0000 0.32170  0.96270  0.14036  Biso   1.000  O
  O5       1.0000 0.17830  0.46270  0.14036  Biso   1.000  O
  O6       1.0000 0.32170  0.53730  0.64036  Biso   1.000  O
  O7       1.0000 0.82170  0.96270  0.35964  Biso   1.000  O
  O8       1.0000 0.67830  0.03730  0.85964  Biso   1.000  O
  O9       1.0000 0.85270  0.74850  0.84165  Biso   1.000  O
  O10      1.0000 0.64730  0.25150  0.34165  Biso   1.000  O
  O11      1.0000 0.14730  0.24850  0.65835  Biso   1.000  O
  O12      1.0000 0.35270  0.75150  0.15835  Biso   1.000  O
  O13      1.0000 0.14730  0.25150  0.15835  Biso   1.000  O
  O14      1.0000 0.35270  0.74850  0.65835  Biso   1.000  O
  O15      1.0000 0.85270  0.75150  0.34165  Biso   1.000  O
  O16      1.0000 0.64730  0.24850  0.84165  Biso   1.000  O
  O17      1.0000 0.95170  0.32400  0.87282  Biso   1.000  O
  O18      1.0000 0.54830  0.67600  0.37282  Biso   1.000  O
  O19      1.0000 0.04830  0.82400  0.62718  Biso   1.000  O
  O20      1.0000 0.45170  0.17600  0.12718  Biso   1.000  O
  O21      1.0000 0.04830  0.67600  0.12718  Biso   1.000  O
  O22      1.0000 0.45170  0.32400  0.62718  Biso   1.000  O
  O23      1.0000 0.95170  0.17600  0.37282  Biso   1.000  O
  O24      1.0000 0.54830  0.82400  0.87282  Biso   1.000  O
  O25      1.0000 0.99360  0.54850  0.89786  Biso   1.000  O
  O26      1.0000 0.50640  0.45150  0.39786  Biso   1.000  O
  O27      1.0000 0.00640  0.04850  0.60214  Biso   1.000  O
  O28      1.0000 0.49360  0.95150  0.10214  Biso   1.000  O
  O29      1.0000 0.00640  0.45150  0.10214  Biso   1.000  O
  O30      1.0000 0.49360  0.54850  0.60214  Biso   1.000  O
  O31      1.0000 0.99360  0.95150  0.39786  Biso   1.000  O
  O32      1.0000 0.50640  0.04850  0.89786  Biso   1.000  O
  O33      1.0000 0.08430  0.39090  0.86131  Biso   1.000  O
  O34      1.0000 0.41570  0.60910  0.36131  Biso   1.000  O
  O35      1.0000 0.91570  0.89090  0.63869  Biso   1.000  O
  O36      1.0000 0.58430  0.10910  0.13869  Biso   1.000  O
  O37      1.0000 0.91570  0.60910  0.13869  Biso   1.000  O
  O38      1.0000 0.58430  0.39090  0.63869  Biso   1.000  O
  O39      1.0000 0.08430  0.10910  0.36131  Biso   1.000  O
  O40      1.0000 0.41570  0.89090  0.86131  Biso   1.000  O
  O41      1.0000 0.82250  0.13770  0.86305  Biso   1.000  O
  O42      1.0000 0.67750  0.86230  0.36305  Biso   1.000  O
  O43      1.0000 0.17750  0.63770  0.63695  Biso   1.000  O
  O44      1.0000 0.32250  0.36230  0.13695  Biso   1.000  O
  O45      1.0000 0.17750  0.86230  0.13695  Biso   1.000  O
  O46      1.0000 0.32250  0.13770  0.63695  Biso   1.000  O
  O47      1.0000 0.82250  0.36230  0.36305  Biso   1.000  O
  O48      1.0000 0.67750  0.63770  0.86305  Biso   1.000  O
  H1       1.0000 0.84780  0.11170  0.88750  Biso   1.000  H
  H2       1.0000 0.65220  0.88830  0.38750  Biso   1.000  H
  H3       1.0000 0.15220  0.61170  0.61250  Biso   1.000  H
  H4       1.0000 0.34780  0.38830  0.11250  Biso   1.000  H
  H5       1.0000 0.15220  0.88830  0.11250  Biso   1.000  H
  H6       1.0000 0.34780  0.11170  0.61250  Biso   1.000  H
  H7       1.0000 0.84780  0.38830  0.38750  Biso   1.000  H
  H8       1.0000 0.65220  0.61170  0.88750  Biso   1.000  H
  H9       1.0000 0.77740  0.11380  0.86480  Biso   1.000  H
  H10      1.0000 0.72260  0.88620  0.36480  Biso   1.000  H
  H11      1.0000 0.22260  0.61380  0.63520  Biso   1.000  H
  H12      1.0000 0.27740  0.38620  0.13520  Biso   1.000  H
  H13      1.0000 0.22260  0.88620  0.13520  Biso   1.000  H
  H14      1.0000 0.27740  0.11380  0.63520  Biso   1.000  H
  H15      1.0000 0.77740  0.38620  0.36480  Biso   1.000  H
  H16      1.0000 0.72260  0.61380  0.86480  Biso   1.000  H
  O49      1.0000 0.87880  0.03250  0.94750  Biso   1.000  O
  O50      1.0000 0.62120  0.96750  0.44750  Biso   1.000  O
  O51      1.0000 0.12120  0.53250  0.55250  Biso   1.000  O
  O52      1.0000 0.37880  0.46750  0.05250  Biso   1.000  O
  O53      1.0000 0.12120  0.96750  0.05250  Biso   1.000  O
  O54      1.0000 0.37880  0.03250  0.55250  Biso   1.000  O
  O55      1.0000 0.87880  0.46750  0.44750  Biso   1.000  O
  O56      1.0000 0.62120  0.53250  0.94750  Biso   1.000  O
  N1       1.0000 0.80350  0.34680  0.93674  Biso   1.000  N
  N2       1.0000 0.69650  0.65320  0.43674  Biso   1.000  N
  N3       1.0000 0.19650  0.84680  0.56326  Biso   1.000  N
  N4       1.0000 0.30350  0.15320  0.06326  Biso   1.000  N
  N5       1.0000 0.19650  0.65320  0.06326  Biso   1.000  N
  N6       1.0000 0.30350  0.34680  0.56326  Biso   1.000  N
  N7       1.0000 0.80350  0.15320  0.43674  Biso   1.000  N
  N8       1.0000 0.69650  0.84680  0.93674  Biso   1.000  N
  N9       1.0000 0.80870  0.17340  0.28618  Biso   1.000  N
  N10      1.0000 0.69130  0.82660  0.78618  Biso   1.000  N
  N11      1.0000 0.19130  0.67340  0.21382  Biso   1.000  N
  N12      1.0000 0.30870  0.32660  0.71382  Biso   1.000  N
  N13      1.0000 0.19130  0.82660  0.71382  Biso   1.000  N
  N14      1.0000 0.30870  0.17340  0.21382  Biso   1.000  N
  N15      1.0000 0.80870  0.32660  0.78618  Biso   1.000  N
  N16      1.0000 0.69130  0.67340  0.28618  Biso   1.000  N
  N17      1.0000 0.92630  0.87530  0.00090  Biso   1.000  N
  N18      1.0000 0.57370  0.12470  0.50090  Biso   1.000  N
  N19      1.0000 0.07370  0.37530  0.49910  Biso   1.000  N
  N20      1.0000 0.42630  0.62470  0.99910  Biso   1.000  N
  N21      1.0000 0.07370  0.12470  0.99910  Biso   1.000  N
  N22      1.0000 0.42630  0.87530  0.49910  Biso   1.000  N
  N23      1.0000 0.92630  0.62470  0.50090  Biso   1.000  N
  N24      1.0000 0.57370  0.37530  0.00090  Biso   1.000  N
  C1       1.0000 0.85070  0.42100  0.96540  Biso   1.000  C
  C2       1.0000 0.64930  0.57900  0.46540  Biso   1.000  C
  C3       1.0000 0.14930  0.92100  0.53460  Biso   1.000  C
  C4       1.0000 0.35070  0.07900  0.03460  Biso   1.000  C
  C5       1.0000 0.14930  0.57900  0.03460  Biso   1.000  C
  C6       1.0000 0.35070  0.42100  0.53460  Biso   1.000  C
  C7       1.0000 0.85070  0.07900  0.46540  Biso   1.000  C
  C8       1.0000 0.64930  0.92100  0.96540  Biso   1.000  C
  H17      1.0000 0.88310  0.48300  0.94960  Biso   1.000  H
  H18      1.0000 0.61690  0.51700  0.44960  Biso   1.000  H
  H19      1.0000 0.11690  0.98300  0.55040  Biso   1.000  H
  H20      1.0000 0.38310  0.01700  0.05040  Biso   1.000  H
  H21      1.0000 0.11690  0.51700  0.05040  Biso   1.000  H
  H22      1.0000 0.38310  0.48300  0.55040  Biso   1.000  H
  H23      1.0000 0.88310  0.01700  0.44960  Biso   1.000  H
  H24      1.0000 0.61690  0.98300  0.94960  Biso   1.000  H
  C9       1.0000 0.85340  0.40950  0.01760  Biso   1.000  C
  C10      1.0000 0.64660  0.59050  0.51760  Biso   1.000  C
  C11      1.0000 0.14660  0.90950  0.48240  Biso   1.000  C
  C12      1.0000 0.35340  0.09050  0.98240  Biso   1.000  C
  C13      1.0000 0.14660  0.59050  0.98240  Biso   1.000  C
  C14      1.0000 0.35340  0.40950  0.48240  Biso   1.000  C
  C15      1.0000 0.85340  0.09050  0.51760  Biso   1.000  C
  C16      1.0000 0.64660  0.90950  0.01760  Biso   1.000  C
  H25      1.0000 0.88700  0.46320  0.03630  Biso   1.000  H
  H26      1.0000 0.61300  0.53680  0.53630  Biso   1.000  H
  H27      1.0000 0.11300  0.96320  0.46370  Biso   1.000  H
  H28      1.0000 0.38700  0.03680  0.96370  Biso   1.000  H
  H29      1.0000 0.11300  0.53680  0.96370  Biso   1.000  H
  H30      1.0000 0.38700  0.46320  0.46370  Biso   1.000  H
  H31      1.0000 0.88700  0.03680  0.53630  Biso   1.000  H
  H32      1.0000 0.61300  0.96320  0.03630  Biso   1.000  H
  C17      1.0000 0.80570  0.31730  0.04230  Biso   1.000  C
  C18      1.0000 0.69430  0.68270  0.54230  Biso   1.000  C
  C19      1.0000 0.19430  0.81730  0.45770  Biso   1.000  C
  C20      1.0000 0.30570  0.18270  0.95770  Biso   1.000  C
  C21      1.0000 0.19430  0.68270  0.95770  Biso   1.000  C
  C22      1.0000 0.30570  0.31730  0.45770  Biso   1.000  C
  C23      1.0000 0.80570  0.18270  0.54230  Biso   1.000  C
  C24      1.0000 0.69430  0.81730  0.04230  Biso   1.000  C
  C25      1.0000 0.75490  0.24480  0.01240  Biso   1.000  C
  C26      1.0000 0.74510  0.75520  0.51240  Biso   1.000  C
  C27      1.0000 0.24510  0.74480  0.48760  Biso   1.000  C
  C28      1.0000 0.25490  0.25520  0.98760  Biso   1.000  C
  C29      1.0000 0.24510  0.75520  0.98760  Biso   1.000  C
  C30      1.0000 0.25490  0.24480  0.48760  Biso   1.000  C
  C31      1.0000 0.75490  0.25520  0.51240  Biso   1.000  C
  C32      1.0000 0.74510  0.74480  0.01240  Biso   1.000  C
  H33      1.0000 0.72030  0.18490  0.02730  Biso   1.000  H
  H34      1.0000 0.77970  0.81510  0.52730  Biso   1.000  H
  H35      1.0000 0.27970  0.68490  0.47270  Biso   1.000  H
  H36      1.0000 0.22030  0.31510  0.97270  Biso   1.000  H
  H37      1.0000 0.27970  0.81510  0.97270  Biso   1.000  H
  H38      1.0000 0.22030  0.18490  0.47270  Biso   1.000  H
  H39      1.0000 0.72030  0.31510  0.52730  Biso   1.000  H
  H40      1.0000 0.77970  0.68490  0.02730  Biso   1.000  H
  C33      1.0000 0.75600  0.26160  0.96030  Biso   1.000  C
  C34      1.0000 0.74400  0.73840  0.46030  Biso   1.000  C
  C35      1.0000 0.24400  0.76160  0.53970  Biso   1.000  C
  C36      1.0000 0.25600  0.23840  0.03970  Biso   1.000  C
  C37      1.0000 0.24400  0.73840  0.03970  Biso   1.000  C
  C38      1.0000 0.25600  0.26160  0.53970  Biso   1.000  C
  C39      1.0000 0.75600  0.23840  0.46030  Biso   1.000  C
  C40      1.0000 0.74400  0.76160  0.96030  Biso   1.000  C
  H41      1.0000 0.72180  0.21110  0.94080  Biso   1.000  H
  H42      1.0000 0.77820  0.78890  0.44080  Biso   1.000  H
  H43      1.0000 0.27820  0.71110  0.55920  Biso   1.000  H
  H44      1.0000 0.22180  0.28890  0.05920  Biso   1.000  H
  H45      1.0000 0.27820  0.78890  0.05920  Biso   1.000  H
  H46      1.0000 0.22180  0.21110  0.55920  Biso   1.000  H
  H47      1.0000 0.72180  0.28890  0.44080  Biso   1.000  H
  H48      1.0000 0.77820  0.71110  0.94080  Biso   1.000  H
  C41      1.0000 0.81380  0.30050  0.09720  Biso   1.000  C
  C42      1.0000 0.68620  0.69950  0.59720  Biso   1.000  C
  C43      1.0000 0.18620  0.80050  0.40280  Biso   1.000  C
  C44      1.0000 0.31380  0.19950  0.90280  Biso   1.000  C
  C45      1.0000 0.18620  0.69950  0.90280  Biso   1.000  C
  C46      1.0000 0.31380  0.30050  0.40280  Biso   1.000  C
  C47      1.0000 0.81380  0.19950  0.59720  Biso   1.000  C
  C48      1.0000 0.68620  0.80050  0.09720  Biso   1.000  C
  H49      1.0000 0.85020  0.35520  0.11300  Biso   1.000  H
  H50      1.0000 0.64980  0.64480  0.61300  Biso   1.000  H
  H51      1.0000 0.14980  0.85520  0.38700  Biso   1.000  H
  H52      1.0000 0.35020  0.14480  0.88700  Biso   1.000  H
  H53      1.0000 0.14980  0.64480  0.88700  Biso   1.000  H
  H54      1.0000 0.35020  0.35520  0.38700  Biso   1.000  H
  H55      1.0000 0.85020  0.14480  0.61300  Biso   1.000  H
  H56      1.0000 0.64980  0.85520  0.11300  Biso   1.000  H
  C49      1.0000 0.77550  0.21690  0.12680  Biso   1.000  C
  C50      1.0000 0.72450  0.78310  0.62680  Biso   1.000  C
  C51      1.0000 0.22450  0.71690  0.37320  Biso   1.000  C
  C52      1.0000 0.27550  0.28310  0.87320  Biso   1.000  C
  C53      1.0000 0.22450  0.78310  0.87320  Biso   1.000  C
  C54      1.0000 0.27550  0.21690  0.37320  Biso   1.000  C
  C55      1.0000 0.77550  0.28310  0.62680  Biso   1.000  C
  C56      1.0000 0.72450  0.71690  0.12680  Biso   1.000  C
  H57      1.0000 0.73730  0.16430  0.11190  Biso   1.000  H
  H58      1.0000 0.76270  0.83570  0.61190  Biso   1.000  H
  H59      1.0000 0.26270  0.66430  0.38810  Biso   1.000  H
  H60      1.0000 0.23730  0.33570  0.88810  Biso   1.000  H
  H61      1.0000 0.26270  0.83570  0.88810  Biso   1.000  H
  H62      1.0000 0.23730  0.16430  0.38810  Biso   1.000  H
  H63      1.0000 0.73730  0.33570  0.61190  Biso   1.000  H
  H64      1.0000 0.76270  0.66430  0.11190  Biso   1.000  H
  C57      1.0000 0.78860  0.20060  0.18140  Biso   1.000  C
  C58      1.0000 0.71140  0.79940  0.68140  Biso   1.000  C
  C59      1.0000 0.21140  0.70060  0.31860  Biso   1.000  C
  C60      1.0000 0.28860  0.29940  0.81860  Biso   1.000  C
  C61      1.0000 0.21140  0.79940  0.81860  Biso   1.000  C
  C62      1.0000 0.28860  0.20060  0.31860  Biso   1.000  C
  C63      1.0000 0.78860  0.29940  0.68140  Biso   1.000  C
  C64      1.0000 0.71140  0.70060  0.18140  Biso   1.000  C
  C65      1.0000 0.74130  0.11780  0.20980  Biso   1.000  C
  C66      1.0000 0.75870  0.88220  0.70980  Biso   1.000  C
  C67      1.0000 0.25870  0.61780  0.29020  Biso   1.000  C
  C68      1.0000 0.24130  0.38220  0.79020  Biso   1.000  C
  C69      1.0000 0.25870  0.88220  0.79020  Biso   1.000  C
  C70      1.0000 0.24130  0.11780  0.29020  Biso   1.000  C
  C71      1.0000 0.74130  0.38220  0.70980  Biso   1.000  C
  C72      1.0000 0.75870  0.61780  0.20980  Biso   1.000  C
  H65      1.0000 0.70190  0.06950  0.19420  Biso   1.000  H
  H66      1.0000 0.79810  0.93050  0.69420  Biso   1.000  H
  H67      1.0000 0.29810  0.56950  0.30580  Biso   1.000  H
  H68      1.0000 0.20190  0.43050  0.80580  Biso   1.000  H
  H69      1.0000 0.29810  0.93050  0.80580  Biso   1.000  H
  H70      1.0000 0.20190  0.06950  0.30580  Biso   1.000  H
  H71      1.0000 0.70190  0.43050  0.69420  Biso   1.000  H
  H72      1.0000 0.79810  0.56950  0.19420  Biso   1.000  H
  C73      1.0000 0.75270  0.10680  0.26170  Biso   1.000  C
  C74      1.0000 0.74730  0.89320  0.76170  Biso   1.000  C
  C75      1.0000 0.24730  0.60680  0.23830  Biso   1.000  C
  C76      1.0000 0.25270  0.39320  0.73830  Biso   1.000  C
  C77      1.0000 0.24730  0.89320  0.73830  Biso   1.000  C
  C78      1.0000 0.25270  0.10680  0.23830  Biso   1.000  C
  C79      1.0000 0.75270  0.39320  0.76170  Biso   1.000  C
  C80      1.0000 0.74730  0.60680  0.26170  Biso   1.000  C
  H73      1.0000 0.72010  0.05100  0.28030  Biso   1.000  H
  H74      1.0000 0.77990  0.94900  0.78030  Biso   1.000  H
  H75      1.0000 0.27990  0.55100  0.21970  Biso   1.000  H
  H76      1.0000 0.22010  0.44900  0.71970  Biso   1.000  H
  H77      1.0000 0.27990  0.94900  0.71970  Biso   1.000  H
  H78      1.0000 0.22010  0.05100  0.21970  Biso   1.000  H
  H79      1.0000 0.72010  0.44900  0.78030  Biso   1.000  H
  H80      1.0000 0.77990  0.55100  0.28030  Biso   1.000  H
  C81      1.0000 0.85590  0.24950  0.25850  Biso   1.000  C
  C82      1.0000 0.64410  0.75050  0.75850  Biso   1.000  C
  C83      1.0000 0.14410  0.74950  0.24150  Biso   1.000  C
  C84      1.0000 0.35590  0.25050  0.74150  Biso   1.000  C
  C85      1.0000 0.14410  0.75050  0.74150  Biso   1.000  C
  C86      1.0000 0.35590  0.24950  0.24150  Biso   1.000  C
  C87      1.0000 0.85590  0.25050  0.75850  Biso   1.000  C
  C88      1.0000 0.64410  0.74950  0.25850  Biso   1.000  C
  H81      1.0000 0.89600  0.29420  0.27490  Biso   1.000  H
  H82      1.0000 0.60400  0.70580  0.77490  Biso   1.000  H
  H83      1.0000 0.10400  0.79420  0.22510  Biso   1.000  H
  H84      1.0000 0.39600  0.20580  0.72510  Biso   1.000  H
  H85      1.0000 0.10400  0.70580  0.72510  Biso   1.000  H
  H86      1.0000 0.39600  0.29420  0.22510  Biso   1.000  H
  H87      1.0000 0.89600  0.20580  0.77490  Biso   1.000  H
  H88      1.0000 0.60400  0.79420  0.27490  Biso   1.000  H
  C89      1.0000 0.84850  0.26540  0.20710  Biso   1.000  C
  C90      1.0000 0.65150  0.73460  0.70710  Biso   1.000  C
  C91      1.0000 0.15150  0.76540  0.29290  Biso   1.000  C
  C92      1.0000 0.34850  0.23460  0.79290  Biso   1.000  C
  C93      1.0000 0.15150  0.73460  0.79290  Biso   1.000  C
  C94      1.0000 0.34850  0.26540  0.29290  Biso   1.000  C
  C95      1.0000 0.84850  0.23460  0.70710  Biso   1.000  C
  C96      1.0000 0.65150  0.76540  0.20710  Biso   1.000  C
  H89      1.0000 0.88320  0.31920  0.18940  Biso   1.000  H
  H90      1.0000 0.61680  0.68080  0.68940  Biso   1.000  H
  H91      1.0000 0.11680  0.81920  0.31060  Biso   1.000  H
  H92      1.0000 0.38320  0.18080  0.81060  Biso   1.000  H
  H93      1.0000 0.11680  0.68080  0.81060  Biso   1.000  H
  H94      1.0000 0.38320  0.31920  0.31060  Biso   1.000  H
  H95      1.0000 0.88320  0.18080  0.68940  Biso   1.000  H
  H96      1.0000 0.61680  0.81920  0.18940  Biso   1.000  H
  C97      1.0000 0.86260  0.62810  0.83570  Biso   1.000  C
  C98      1.0000 0.63740  0.37190  0.33570  Biso   1.000  C
  C99      1.0000 0.13740  0.12810  0.66430  Biso   1.000  C
  C100     1.0000 0.36260  0.87190  0.16430  Biso   1.000  C
  C101     1.0000 0.13740  0.37190  0.16430  Biso   1.000  C
  C102     1.0000 0.36260  0.62810  0.66430  Biso   1.000  C
  C103     1.0000 0.86260  0.87190  0.33570  Biso   1.000  C
  C104     1.0000 0.63740  0.12810  0.83570  Biso   1.000  C
  C105     1.0000 0.91730  0.57800  0.79440  Biso   1.000  C
  C106     1.0000 0.58270  0.42200  0.29440  Biso   1.000  C
  C107     1.0000 0.08270  0.07800  0.70560  Biso   1.000  C
  C108     1.0000 0.41730  0.92200  0.20560  Biso   1.000  C
  C109     1.0000 0.08270  0.42200  0.20560  Biso   1.000  C
  C110     1.0000 0.41730  0.57800  0.70560  Biso   1.000  C
  C111     1.0000 0.91730  0.92200  0.29440  Biso   1.000  C
  C112     1.0000 0.58270  0.07800  0.79440  Biso   1.000  C
  C113     1.0000 0.98070  0.49510  0.80190  Biso   1.000  C
  C114     1.0000 0.51930  0.50490  0.30190  Biso   1.000  C
  C115     1.0000 0.01930  0.99510  0.69810  Biso   1.000  C
  C116     1.0000 0.48070  0.00490  0.19810  Biso   1.000  C
  C117     1.0000 0.01930  0.50490  0.19810  Biso   1.000  C
  C118     1.0000 0.48070  0.49510  0.69810  Biso   1.000  C
  C119     1.0000 0.98070  0.00490  0.30190  Biso   1.000  C
  C120     1.0000 0.51930  0.99510  0.80190  Biso   1.000  C
  C121     1.0000 0.02420  0.45250  0.76060  Biso   1.000  C
  C122     1.0000 0.47580  0.54750  0.26060  Biso   1.000  C
  C123     1.0000 0.97580  0.95250  0.73940  Biso   1.000  C
  C124     1.0000 0.52420  0.04750  0.23940  Biso   1.000  C
  C125     1.0000 0.97580  0.54750  0.23940  Biso   1.000  C
  C126     1.0000 0.52420  0.45250  0.73940  Biso   1.000  C
  C127     1.0000 0.02420  0.04750  0.26060  Biso   1.000  C
  C128     1.0000 0.47580  0.95250  0.76060  Biso   1.000  C
  H97      1.0000 0.06670  0.39700  0.76590  Biso   1.000  H
  H98      1.0000 0.43330  0.60300  0.26590  Biso   1.000  H
  H99      1.0000 0.93330  0.89700  0.73410  Biso   1.000  H
  H100     1.0000 0.56670  0.10300  0.23410  Biso   1.000  H
  H101     1.0000 0.93330  0.60300  0.23410  Biso   1.000  H
  H102     1.0000 0.56670  0.39700  0.73410  Biso   1.000  H
  H103     1.0000 0.06670  0.10300  0.26590  Biso   1.000  H
  H104     1.0000 0.43330  0.89700  0.76590  Biso   1.000  H
  C129     1.0000 0.00550  0.49070  0.71220  Biso   1.000  C
  C130     1.0000 0.49450  0.50930  0.21220  Biso   1.000  C
  C131     1.0000 0.99450  0.99070  0.78780  Biso   1.000  C
  C132     1.0000 0.50550  0.00930  0.28780  Biso   1.000  C
  C133     1.0000 0.99450  0.50930  0.28780  Biso   1.000  C
  C134     1.0000 0.50550  0.49070  0.78780  Biso   1.000  C
  C135     1.0000 0.00550  0.00930  0.21220  Biso   1.000  C
  C136     1.0000 0.49450  0.99070  0.71220  Biso   1.000  C
  H105     1.0000 0.03480  0.46010  0.68500  Biso   1.000  H
  H106     1.0000 0.46520  0.53990  0.18500  Biso   1.000  H
  H107     1.0000 0.96520  0.96010  0.81500  Biso   1.000  H
  H108     1.0000 0.53480  0.03990  0.31500  Biso   1.000  H
  H109     1.0000 0.96520  0.53990  0.31500  Biso   1.000  H
  H110     1.0000 0.53480  0.46010  0.81500  Biso   1.000  H
  H111     1.0000 0.03480  0.03990  0.18500  Biso   1.000  H
  H112     1.0000 0.46520  0.96010  0.68500  Biso   1.000  H
  C137     1.0000 0.94380  0.57390  0.70400  Biso   1.000  C
  C138     1.0000 0.55620  0.42610  0.20400  Biso   1.000  C
  C139     1.0000 0.05620  0.07390  0.79600  Biso   1.000  C
  C140     1.0000 0.44380  0.92610  0.29600  Biso   1.000  C
  C141     1.0000 0.05620  0.42610  0.29600  Biso   1.000  C
  C142     1.0000 0.44380  0.57390  0.79600  Biso   1.000  C
  C143     1.0000 0.94380  0.92610  0.20400  Biso   1.000  C
  C144     1.0000 0.55620  0.07390  0.70400  Biso   1.000  C
  H113     1.0000 0.93140  0.60190  0.67130  Biso   1.000  H
  H114     1.0000 0.56860  0.39810  0.17130  Biso   1.000  H
  H115     1.0000 0.06860  0.10190  0.82870  Biso   1.000  H
  H116     1.0000 0.43140  0.89810  0.32870  Biso   1.000  H
  H117     1.0000 0.06860  0.39810  0.32870  Biso   1.000  H
  H118     1.0000 0.43140  0.60190  0.82870  Biso   1.000  H
  H119     1.0000 0.93140  0.89810  0.17130  Biso   1.000  H
  H120     1.0000 0.56860  0.10190  0.67130  Biso   1.000  H
  C145     1.0000 0.90010  0.61600  0.74510  Biso   1.000  C
  C146     1.0000 0.59990  0.38400  0.24510  Biso   1.000  C
  C147     1.0000 0.09990  0.11600  0.75490  Biso   1.000  C
  C148     1.0000 0.40010  0.88400  0.25490  Biso   1.000  C
  C149     1.0000 0.09990  0.38400  0.25490  Biso   1.000  C
  C150     1.0000 0.40010  0.61600  0.75490  Biso   1.000  C
  C151     1.0000 0.90010  0.88400  0.24510  Biso   1.000  C
  C152     1.0000 0.59990  0.11600  0.74510  Biso   1.000  C
  H121     1.0000 0.85770  0.67160  0.73930  Biso   1.000  H
  H122     1.0000 0.64230  0.32840  0.23930  Biso   1.000  H
  H123     1.0000 0.14230  0.17160  0.76070  Biso   1.000  H
  H124     1.0000 0.35770  0.82840  0.26070  Biso   1.000  H
  H125     1.0000 0.14230  0.32840  0.26070  Biso   1.000  H
  H126     1.0000 0.35770  0.67160  0.76070  Biso   1.000  H
  H127     1.0000 0.85770  0.82840  0.23930  Biso   1.000  H
  H128     1.0000 0.64230  0.17160  0.73930  Biso   1.000  H
  C153     1.0000 0.90530  0.94700  0.04640  Biso   1.000  C
  C154     1.0000 0.59470  0.05300  0.54640  Biso   1.000  C
  C155     1.0000 0.09470  0.44700  0.45360  Biso   1.000  C
  C156     1.0000 0.40530  0.55300  0.95360  Biso   1.000  C
  C157     1.0000 0.09470  0.05300  0.95360  Biso   1.000  C
  C158     1.0000 0.40530  0.94700  0.45360  Biso   1.000  C
  C159     1.0000 0.90530  0.55300  0.54640  Biso   1.000  C
  C160     1.0000 0.59470  0.44700  0.04640  Biso   1.000  C
  H129     1.0000 0.88610  0.03500  0.03760  Biso   1.000  H
  H130     1.0000 0.61390  0.96500  0.53760  Biso   1.000  H
  H131     1.0000 0.11390  0.53500  0.46240  Biso   1.000  H
  H132     1.0000 0.38610  0.46500  0.96240  Biso   1.000  H
  H133     1.0000 0.11390  0.96500  0.96240  Biso   1.000  H
  H134     1.0000 0.38610  0.03500  0.46240  Biso   1.000  H
  H135     1.0000 0.88610  0.46500  0.53760  Biso   1.000  H
  H136     1.0000 0.61390  0.53500  0.03760  Biso   1.000  H
  H137     1.0000 0.94980  0.95640  0.06780  Biso   1.000  H
  H138     1.0000 0.55020  0.04360  0.56780  Biso   1.000  H
  H139     1.0000 0.05020  0.45640  0.43220  Biso   1.000  H
  H140     1.0000 0.44980  0.54360  0.93220  Biso   1.000  H
  H141     1.0000 0.05020  0.04360  0.93220  Biso   1.000  H
  H142     1.0000 0.44980  0.95640  0.43220  Biso   1.000  H
  H143     1.0000 0.94980  0.54360  0.56780  Biso   1.000  H
  H144     1.0000 0.55020  0.45640  0.06780  Biso   1.000  H
  H145     1.0000 0.86610  0.89740  0.06410  Biso   1.000  H
  H146     1.0000 0.63390  0.10260  0.56410  Biso   1.000  H
  H147     1.0000 0.13390  0.39740  0.43590  Biso   1.000  H
  H148     1.0000 0.36610  0.60260  0.93590  Biso   1.000  H
  H149     1.0000 0.13390  0.10260  0.93590  Biso   1.000  H
  H150     1.0000 0.36610  0.89740  0.43590  Biso   1.000  H
  H151     1.0000 0.86610  0.60260  0.56410  Biso   1.000  H
  H152     1.0000 0.63390  0.39740  0.06410  Biso   1.000  H
  C161     1.0000 0.96770  0.74900  0.00650  Biso   1.000  C
  C162     1.0000 0.53230  0.25100  0.50650  Biso   1.000  C
  C163     1.0000 0.03230  0.24900  0.49350  Biso   1.000  C
  C164     1.0000 0.46770  0.75100  0.99350  Biso   1.000  C
  C165     1.0000 0.03230  0.25100  0.99350  Biso   1.000  C
  C166     1.0000 0.46770  0.74900  0.49350  Biso   1.000  C
  C167     1.0000 0.96770  0.75100  0.50650  Biso   1.000  C
  C168     1.0000 0.53230  0.24900  0.00650  Biso   1.000  C
  H153     1.0000 0.01820  0.76660  0.01980  Biso   1.000  H
  H154     1.0000 0.48180  0.23340  0.51980  Biso   1.000  H
  H155     1.0000 0.98180  0.26660  0.48020  Biso   1.000  H
  H156     1.0000 0.51820  0.73340  0.98020  Biso   1.000  H
  H157     1.0000 0.98180  0.23340  0.98020  Biso   1.000  H
  H158     1.0000 0.51820  0.76660  0.48020  Biso   1.000  H
  H159     1.0000 0.01820  0.73340  0.51980  Biso   1.000  H
  H160     1.0000 0.48180  0.26660  0.01980  Biso   1.000  H
  H161     1.0000 0.97210  0.70550  0.97400  Biso   1.000  H
  H162     1.0000 0.52790  0.29450  0.47400  Biso   1.000  H
  H163     1.0000 0.02790  0.20550  0.52600  Biso   1.000  H
  H164     1.0000 0.47210  0.79450  0.02600  Biso   1.000  H
  H165     1.0000 0.02790  0.29450  0.02600  Biso   1.000  H
  H166     1.0000 0.47210  0.70550  0.52600  Biso   1.000  H
  H167     1.0000 0.97210  0.79450  0.47400  Biso   1.000  H
  H168     1.0000 0.52790  0.20550  0.97400  Biso   1.000  H
  H169     1.0000 0.94020  0.69100  0.02950  Biso   1.000  H
  H170     1.0000 0.55980  0.30900  0.52950  Biso   1.000  H
  H171     1.0000 0.05980  0.19100  0.47050  Biso   1.000  H
  H172     1.0000 0.44020  0.80900  0.97050  Biso   1.000  H
  H173     1.0000 0.05980  0.30900  0.97050  Biso   1.000  H
  H174     1.0000 0.44020  0.69100  0.47050  Biso   1.000  H
  H175     1.0000 0.94020  0.80900  0.52950  Biso   1.000  H
  H176     1.0000 0.55980  0.19100  0.02950  Biso   1.000  H
  C169     1.0000 0.90970  0.92460  0.95540  Biso   1.000  C
  C170     1.0000 0.59030  0.07540  0.45540  Biso   1.000  C
  C171     1.0000 0.09030  0.42460  0.54460  Biso   1.000  C
  C172     1.0000 0.40970  0.57540  0.04460  Biso   1.000  C
  C173     1.0000 0.09030  0.07540  0.04460  Biso   1.000  C
  C174     1.0000 0.40970  0.92460  0.54460  Biso   1.000  C
  C175     1.0000 0.90970  0.57540  0.45540  Biso   1.000  C
  C176     1.0000 0.59030  0.42460  0.95540  Biso   1.000  C
  H177     1.0000 0.92290  0.87240  0.92730  Biso   1.000  H
  H178     1.0000 0.57710  0.12760  0.42730  Biso   1.000  H
  H179     1.0000 0.07710  0.37240  0.57270  Biso   1.000  H
  H180     1.0000 0.42290  0.62760  0.07270  Biso   1.000  H
  H181     1.0000 0.07710  0.12760  0.07270  Biso   1.000  H
  H182     1.0000 0.42290  0.87240  0.57270  Biso   1.000  H
  H183     1.0000 0.92290  0.62760  0.42730  Biso   1.000  H
  H184     1.0000 0.57710  0.37240  0.92730  Biso   1.000  H
