data_image0
_cell_length_a       13.177
_cell_length_b       10.137
_cell_length_c       6.65
_cell_angle_alpha    90
_cell_angle_beta     103.78
_cell_angle_gamma    90

_symmetry_space_group_name_H-M    "P 1"
_symmetry_int_tables_number       1

loop_
  _symmetry_equiv_pos_as_xyz
  'x, y, z'

loop_
  _atom_site_label
  _atom_site_occupancy
  _atom_site_fract_x
  _atom_site_fract_y
  _atom_site_fract_z
  _atom_site_thermal_displace_type
  _atom_site_B_iso_or_equiv
  _atom_site_type_symbol
  Cu1      1.0000 0.00000  0.00000  0.00000  Biso   1.000  Cu
  Cu2      1.0000 0.50000  0.50000  0.00000  Biso   1.000  Cu
  O1       1.0000 0.11840  0.03460  0.24360  Biso   1.000  O
  O2       1.0000 0.38160  0.53460  0.75640  Biso   1.000  O
  O3       1.0000 0.88160  0.96540  0.75640  Biso   1.000  O
  O4       1.0000 0.61840  0.46540  0.24360  Biso   1.000  O
  C1       1.0000 0.19480  0.10880  0.25220  Biso   1.000  C
  C2       1.0000 0.30520  0.60880  0.74780  Biso   1.000  C
  C3       1.0000 0.80520  0.89120  0.74780  Biso   1.000  C
  C4       1.0000 0.69480  0.39120  0.25220  Biso   1.000  C
  C5       1.0000 0.20820  0.19610  0.09660  Biso   1.000  C
  C6       1.0000 0.29180  0.69610  0.90340  Biso   1.000  C
  C7       1.0000 0.79180  0.80390  0.90340  Biso   1.000  C
  C8       1.0000 0.70820  0.30390  0.09660  Biso   1.000  C
  C9       1.0000 0.12940  0.21490  0.91020  Biso   1.000  C
  C10      1.0000 0.37060  0.71490  0.08980  Biso   1.000  C
  C11      1.0000 0.87060  0.78510  0.08980  Biso   1.000  C
  C12      1.0000 0.62940  0.28510  0.91020  Biso   1.000  C
  N1       1.0000 0.04460  0.14680  0.85240  Biso   1.000  N
  N2       1.0000 0.45540  0.64680  0.14760  Biso   1.000  N
  N3       1.0000 0.95540  0.85320  0.14760  Biso   1.000  N
  N4       1.0000 0.54460  0.35320  0.85240  Biso   1.000  N
  C13      1.0000 0.98130  0.19570  0.65340  Biso   1.000  C
  C14      1.0000 0.51870  0.69570  0.34660  Biso   1.000  C
  C15      1.0000 0.01870  0.80430  0.34660  Biso   1.000  C
  C16      1.0000 0.48130  0.30430  0.65340  Biso   1.000  C
  C17      1.0000 0.04080  0.31000  0.59060  Biso   1.000  C
  C18      1.0000 0.45920  0.81000  0.40940  Biso   1.000  C
  C19      1.0000 0.95920  0.69000  0.40940  Biso   1.000  C
  C20      1.0000 0.54080  0.19000  0.59060  Biso   1.000  C
  C21      1.0000 0.13970  0.32290  0.76050  Biso   1.000  C
  C22      1.0000 0.36030  0.82290  0.23950  Biso   1.000  C
  C23      1.0000 0.86030  0.67710  0.23950  Biso   1.000  C
  C24      1.0000 0.63970  0.17710  0.76050  Biso   1.000  C
  C25      1.0000 0.30190  0.27110  0.12250  Biso   1.000  C
  C26      1.0000 0.19810  0.77110  0.87750  Biso   1.000  C
  C27      1.0000 0.69810  0.72890  0.87750  Biso   1.000  C
  C28      1.0000 0.80190  0.22890  0.12250  Biso   1.000  C
  N5       1.0000 0.37570  0.33370  0.13430  Biso   1.000  N
  N6       1.0000 0.12430  0.83370  0.86570  Biso   1.000  N
  N7       1.0000 0.62430  0.66630  0.86570  Biso   1.000  N
  N8       1.0000 0.87570  0.16630  0.13430  Biso   1.000  N
  O5       1.0000 0.27240  0.11090  0.42630  Biso   1.000  O
  O6       1.0000 0.22760  0.61090  0.57370  Biso   1.000  O
  O7       1.0000 0.72760  0.88910  0.57370  Biso   1.000  O
  O8       1.0000 0.77240  0.38910  0.42630  Biso   1.000  O
  C29      1.0000 0.26070  0.02530  0.59200  Biso   1.000  C
  C30      1.0000 0.23930  0.52530  0.40800  Biso   1.000  C
  C31      1.0000 0.73930  0.97470  0.40800  Biso   1.000  C
  C32      1.0000 0.76070  0.47470  0.59200  Biso   1.000  C
  H1       1.0000 0.97290  0.12690  0.55160  Biso   1.000  H
  H2       1.0000 0.52710  0.62690  0.44840  Biso   1.000  H
  H3       1.0000 0.02710  0.87310  0.44840  Biso   1.000  H
  H4       1.0000 0.47290  0.37310  0.55160  Biso   1.000  H
  H5       1.0000 0.91380  0.22370  0.66820  Biso   1.000  H
  H6       1.0000 0.58620  0.72370  0.33180  Biso   1.000  H
  H7       1.0000 0.08620  0.77630  0.33180  Biso   1.000  H
  H8       1.0000 0.41380  0.27630  0.66820  Biso   1.000  H
  H9       1.0000 0.05770  0.29260  0.46050  Biso   1.000  H
  H10      1.0000 0.44230  0.79260  0.53950  Biso   1.000  H
  H11      1.0000 0.94230  0.70740  0.53950  Biso   1.000  H
  H12      1.0000 0.55770  0.20740  0.46050  Biso   1.000  H
  H13      1.0000 0.99980  0.38920  0.57980  Biso   1.000  H
  H14      1.0000 0.50020  0.88920  0.42020  Biso   1.000  H
  H15      1.0000 0.00020  0.61080  0.42020  Biso   1.000  H
  H16      1.0000 0.49980  0.11080  0.57980  Biso   1.000  H
  H17      1.0000 0.14340  0.40780  0.82580  Biso   1.000  H
  H18      1.0000 0.35660  0.90780  0.17420  Biso   1.000  H
  H19      1.0000 0.85660  0.59220  0.17420  Biso   1.000  H
  H20      1.0000 0.64340  0.09220  0.82580  Biso   1.000  H
  H21      1.0000 0.20080  0.30970  0.70790  Biso   1.000  H
  H22      1.0000 0.29920  0.80970  0.29210  Biso   1.000  H
  H23      1.0000 0.79920  0.69030  0.29210  Biso   1.000  H
  H24      1.0000 0.70080  0.19030  0.70790  Biso   1.000  H
  H25      1.0000 0.32030  0.03470  0.70650  Biso   1.000  H
  H26      1.0000 0.17970  0.53470  0.29350  Biso   1.000  H
  H27      1.0000 0.67970  0.96530  0.29350  Biso   1.000  H
  H28      1.0000 0.82030  0.46530  0.70650  Biso   1.000  H
  H29      1.0000 0.25510  0.93520  0.54610  Biso   1.000  H
  H30      1.0000 0.24490  0.43520  0.45390  Biso   1.000  H
  H31      1.0000 0.74490  0.06480  0.45390  Biso   1.000  H
  H32      1.0000 0.75510  0.56480  0.54610  Biso   1.000  H
  H33      1.0000 0.19860  0.04960  0.63490  Biso   1.000  H
  H34      1.0000 0.30140  0.54960  0.36510  Biso   1.000  H
  H35      1.0000 0.80140  0.95040  0.36510  Biso   1.000  H
  H36      1.0000 0.69860  0.45040  0.63490  Biso   1.000  H
