data_image0
_cell_length_a       9.264
_cell_length_b       9.264
_cell_length_c       35.503
_cell_angle_alpha    90
_cell_angle_beta     90
_cell_angle_gamma    90

_symmetry_space_group_name_H-M    "P 1"
_symmetry_int_tables_number       1

loop_
  _symmetry_equiv_pos_as_xyz
  'x, y, z'

loop_
  _atom_site_label
  _atom_site_occupancy
  _atom_site_fract_x
  _atom_site_fract_y
  _atom_site_fract_z
  _atom_site_thermal_displace_type
  _atom_site_B_iso_or_equiv
  _atom_site_type_symbol
  Cu1      1.0000 0.95460  0.61480  0.98070  Biso   1.000  Cu
  Cu2      1.0000 0.38520  0.95460  0.73070  Biso   1.000  Cu
  Cu3      1.0000 0.04540  0.38520  0.48070  Biso   1.000  Cu
  Cu4      1.0000 0.61480  0.04540  0.23070  Biso   1.000  Cu
  S1       1.0000 0.39130  0.12340  0.93560  Biso   1.000  S
  S2       1.0000 0.87660  0.39130  0.68560  Biso   1.000  S
  S3       1.0000 0.60870  0.87660  0.43560  Biso   1.000  S
  S4       1.0000 0.12340  0.60870  0.18560  Biso   1.000  S
  O1       1.0000 0.71810  0.61140  0.97640  Biso   1.000  O
  O2       1.0000 0.38860  0.71810  0.72640  Biso   1.000  O
  O3       1.0000 0.28190  0.38860  0.47640  Biso   1.000  O
  O4       1.0000 0.61140  0.28190  0.22640  Biso   1.000  O
  O5       1.0000 0.65010  0.71740  0.92310  Biso   1.000  O
  O6       1.0000 0.28260  0.65010  0.67310  Biso   1.000  O
  O7       1.0000 0.34990  0.28260  0.42310  Biso   1.000  O
  O8       1.0000 0.71740  0.34990  0.17310  Biso   1.000  O
  O9       1.0000 0.20290  0.61580  0.97640  Biso   1.000  O
  O10      1.0000 0.38420  0.20290  0.72640  Biso   1.000  O
  O11      1.0000 0.79710  0.38420  0.47640  Biso   1.000  O
  O12      1.0000 0.61580  0.79710  0.22640  Biso   1.000  O
  O13      1.0000 0.90770  0.79740  0.90910  Biso   1.000  O
  O14      1.0000 0.20260  0.90770  0.65910  Biso   1.000  O
  O15      1.0000 0.09230  0.20260  0.40910  Biso   1.000  O
  O16      1.0000 0.79740  0.09230  0.15910  Biso   1.000  O
  N1       1.0000 0.37400  0.63180  0.93160  Biso   1.000  N
  N2       1.0000 0.36820  0.37400  0.68160  Biso   1.000  N
  N3       1.0000 0.62600  0.36820  0.43160  Biso   1.000  N
  N4       1.0000 0.63180  0.62600  0.18160  Biso   1.000  N
  N5       1.0000 0.00660  0.72320  0.93090  Biso   1.000  N
  N6       1.0000 0.27680  0.00660  0.68090  Biso   1.000  N
  N7       1.0000 0.99340  0.27680  0.43090  Biso   1.000  N
  N8       1.0000 0.72320  0.99340  0.18090  Biso   1.000  N
  C1       1.0000 0.51840  0.05990  0.96820  Biso   1.000  C
  C2       1.0000 0.94010  0.51840  0.71820  Biso   1.000  C
  C3       1.0000 0.48160  0.94010  0.46820  Biso   1.000  C
  C4       1.0000 0.05990  0.48160  0.21820  Biso   1.000  C
  C5       1.0000 0.37220  0.30900  0.94990  Biso   1.000  C
  C6       1.0000 0.69100  0.37220  0.69990  Biso   1.000  C
  C7       1.0000 0.62780  0.69100  0.44990  Biso   1.000  C
  C8       1.0000 0.30900  0.62780  0.19990  Biso   1.000  C
  C9       1.0000 0.50430  0.39960  0.94280  Biso   1.000  C
  C10      1.0000 0.60040  0.50430  0.69280  Biso   1.000  C
  C11      1.0000 0.49570  0.60040  0.44280  Biso   1.000  C
  C12      1.0000 0.39960  0.49570  0.19280  Biso   1.000  C
  C13      1.0000 0.48480  0.55830  0.95430  Biso   1.000  C
  C14      1.0000 0.44170  0.48480  0.70430  Biso   1.000  C
  C15      1.0000 0.51520  0.44170  0.45430  Biso   1.000  C
  C16      1.0000 0.55830  0.51520  0.20430  Biso   1.000  C
  C17      1.0000 0.62920  0.63840  0.95070  Biso   1.000  C
  C18      1.0000 0.36160  0.62920  0.70070  Biso   1.000  C
  C19      1.0000 0.37080  0.36160  0.45070  Biso   1.000  C
  C20      1.0000 0.63840  0.37080  0.20070  Biso   1.000  C
  C21      1.0000 0.24020  0.65640  0.94440  Biso   1.000  C
  C22      1.0000 0.34360  0.24020  0.69440  Biso   1.000  C
  C23      1.0000 0.75980  0.34360  0.44440  Biso   1.000  C
  C24      1.0000 0.65640  0.75980  0.19440  Biso   1.000  C
  C25      1.0000 0.13840  0.73360  0.91920  Biso   1.000  C
  C26      1.0000 0.26640  0.13840  0.66920  Biso   1.000  C
  C27      1.0000 0.86160  0.26640  0.41920  Biso   1.000  C
  C28      1.0000 0.73360  0.86160  0.16920  Biso   1.000  C
  C29      1.0000 0.18470  0.81500  0.88560  Biso   1.000  C
  C30      1.0000 0.18500  0.18470  0.63560  Biso   1.000  C
  C31      1.0000 0.81530  0.18500  0.38560  Biso   1.000  C
  C32      1.0000 0.81500  0.81530  0.13560  Biso   1.000  C
  N9       1.0000 0.95280  0.81080  0.00840  Biso   1.000  N
  N10      1.0000 0.18920  0.95280  0.75840  Biso   1.000  N
  N11      1.0000 0.04720  0.18920  0.50840  Biso   1.000  N
  N12      1.0000 0.81080  0.04720  0.25840  Biso   1.000  N
  C33      1.0000 0.07570  0.87070  0.02170  Biso   1.000  C
  C34      1.0000 0.12930  0.07570  0.77170  Biso   1.000  C
  C35      1.0000 0.92430  0.12930  0.52170  Biso   1.000  C
  C36      1.0000 0.87070  0.92430  0.27170  Biso   1.000  C
  C37      1.0000 0.07860  0.99700  0.04160  Biso   1.000  C
  C38      1.0000 0.00300  0.07860  0.79160  Biso   1.000  C
  C39      1.0000 0.92140  0.00300  0.54160  Biso   1.000  C
  C40      1.0000 0.99700  0.92140  0.29160  Biso   1.000  C
  C41      1.0000 0.94780  0.06570  0.05000  Biso   1.000  C
  C42      1.0000 0.93430  0.94780  0.80000  Biso   1.000  C
  C43      1.0000 0.05220  0.93430  0.55000  Biso   1.000  C
  C44      1.0000 0.06570  0.05220  0.30000  Biso   1.000  C
  C45      1.0000 0.82380  0.00690  0.03640  Biso   1.000  C
  C46      1.0000 0.99310  0.82380  0.78640  Biso   1.000  C
  C47      1.0000 0.17620  0.99310  0.53640  Biso   1.000  C
  C48      1.0000 0.00690  0.17620  0.28640  Biso   1.000  C
  C49      1.0000 0.82790  0.87920  0.01660  Biso   1.000  C
  C50      1.0000 0.12080  0.82790  0.76660  Biso   1.000  C
  C51      1.0000 0.17210  0.12080  0.51660  Biso   1.000  C
  C52      1.0000 0.87920  0.17210  0.26660  Biso   1.000  C
  N13      1.0000 0.95510  0.51640  0.03240  Biso   1.000  N
  N14      1.0000 0.48360  0.95510  0.78240  Biso   1.000  N
  N15      1.0000 0.04490  0.48360  0.53240  Biso   1.000  N
  N16      1.0000 0.51640  0.04490  0.28240  Biso   1.000  N
  C53      1.0000 0.07650  0.49950  0.05270  Biso   1.000  C
  C54      1.0000 0.50050  0.07650  0.80270  Biso   1.000  C
  C55      1.0000 0.92350  0.50050  0.55270  Biso   1.000  C
  C56      1.0000 0.49950  0.92350  0.30270  Biso   1.000  C
  C57      1.0000 0.08300  0.45380  0.08830  Biso   1.000  C
  C58      1.0000 0.54620  0.08300  0.83830  Biso   1.000  C
  C59      1.0000 0.91700  0.54620  0.58830  Biso   1.000  C
  C60      1.0000 0.45380  0.91700  0.33830  Biso   1.000  C
  C61      1.0000 0.95440  0.41620  0.10610  Biso   1.000  C
  C62      1.0000 0.58380  0.95440  0.85610  Biso   1.000  C
  C63      1.0000 0.04560  0.58380  0.60610  Biso   1.000  C
  C64      1.0000 0.41620  0.04560  0.35610  Biso   1.000  C
  C65      1.0000 0.82770  0.42700  0.08560  Biso   1.000  C
  C66      1.0000 0.57300  0.82770  0.83560  Biso   1.000  C
  C67      1.0000 0.17230  0.57300  0.58560  Biso   1.000  C
  C68      1.0000 0.42700  0.17230  0.33560  Biso   1.000  C
  C69      1.0000 0.83130  0.47590  0.04920  Biso   1.000  C
  C70      1.0000 0.52410  0.83130  0.79920  Biso   1.000  C
  C71      1.0000 0.16870  0.52410  0.54920  Biso   1.000  C
  C72      1.0000 0.47590  0.16870  0.29920  Biso   1.000  C
  N17      1.0000 0.95300  0.42170  0.95120  Biso   1.000  N
  N18      1.0000 0.57830  0.95300  0.70120  Biso   1.000  N
  N19      1.0000 0.04700  0.57830  0.45120  Biso   1.000  N
  N20      1.0000 0.42170  0.04700  0.20120  Biso   1.000  N
  C73      1.0000 0.00390  0.29670  0.96560  Biso   1.000  C
  C74      1.0000 0.70330  0.00390  0.71560  Biso   1.000  C
  C75      1.0000 0.99610  0.70330  0.46560  Biso   1.000  C
  C76      1.0000 0.29670  0.99610  0.21560  Biso   1.000  C
  C77      1.0000 0.99070  0.16970  0.94640  Biso   1.000  C
  C78      1.0000 0.83030  0.99070  0.69640  Biso   1.000  C
  C79      1.0000 0.00930  0.83030  0.44640  Biso   1.000  C
  C80      1.0000 0.16970  0.00930  0.19640  Biso   1.000  C
  C81      1.0000 0.93040  0.16240  0.91240  Biso   1.000  C
  C82      1.0000 0.83760  0.93040  0.66240  Biso   1.000  C
  C83      1.0000 0.06960  0.83760  0.41240  Biso   1.000  C
  C84      1.0000 0.16240  0.06960  0.16240  Biso   1.000  C
  C85      1.0000 0.87810  0.28590  0.89790  Biso   1.000  C
  C86      1.0000 0.71410  0.87810  0.64790  Biso   1.000  C
  C87      1.0000 0.12190  0.71410  0.39790  Biso   1.000  C
  C88      1.0000 0.28590  0.12190  0.14790  Biso   1.000  C
  C89      1.0000 0.89150  0.41340  0.91750  Biso   1.000  C
  C90      1.0000 0.58660  0.89150  0.66750  Biso   1.000  C
  C91      1.0000 0.10850  0.58660  0.41750  Biso   1.000  C
  C92      1.0000 0.41340  0.10850  0.16750  Biso   1.000  C
  N21      1.0000 0.70230  0.45150  0.81110  Biso   1.000  N
  N22      1.0000 0.54850  0.70230  0.56110  Biso   1.000  N
  N23      1.0000 0.29770  0.54850  0.31110  Biso   1.000  N
  N24      1.0000 0.45150  0.29770  0.06110  Biso   1.000  N
  O17      1.0000 0.80970  0.37100  0.80380  Biso   1.000  O
  O18      1.0000 0.62900  0.80970  0.55380  Biso   1.000  O
  O19      1.0000 0.19030  0.62900  0.30380  Biso   1.000  O
  O20      1.0000 0.37100  0.19030  0.05380  Biso   1.000  O
  O21      1.0000 0.64860  0.53090  0.78640  Biso   1.000  O
  O22      1.0000 0.46910  0.64860  0.53640  Biso   1.000  O
  O23      1.0000 0.35140  0.46910  0.28640  Biso   1.000  O
  O24      1.0000 0.53090  0.35140  0.03640  Biso   1.000  O
  O25      1.0000 0.65340  0.44910  0.84340  Biso   1.000  O
  O26      1.0000 0.55090  0.65340  0.59340  Biso   1.000  O
  O27      1.0000 0.34660  0.55090  0.34340  Biso   1.000  O
  O28      1.0000 0.44910  0.34660  0.09340  Biso   1.000  O
  O29      1.0000 0.37690  0.53650  0.85060  Biso   1.000  O
  O30      1.0000 0.46350  0.37690  0.60060  Biso   1.000  O
  O31      1.0000 0.62310  0.46350  0.35060  Biso   1.000  O
  O32      1.0000 0.53650  0.62310  0.10060  Biso   1.000  O
  C93      1.0000 0.27290  0.43810  0.84950  Biso   1.000  C
  C94      1.0000 0.56190  0.27290  0.59950  Biso   1.000  C
  C95      1.0000 0.72710  0.56190  0.34950  Biso   1.000  C
  C96      1.0000 0.43810  0.72710  0.09950  Biso   1.000  C
  C97      1.0000 0.20230  0.45720  0.81080  Biso   1.000  C
  C98      1.0000 0.54280  0.20230  0.56080  Biso   1.000  C
  C99      1.0000 0.79770  0.54280  0.31080  Biso   1.000  C
  C100     1.0000 0.45720  0.79770  0.06080  Biso   1.000  C
  N25      1.0000 0.70340  0.43100  0.80890  Biso   1.000  N
  N26      1.0000 0.56900  0.70340  0.55890  Biso   1.000  N
  N27      1.0000 0.29660  0.56900  0.30890  Biso   1.000  N
  N28      1.0000 0.43100  0.29660  0.05890  Biso   1.000  N
  O33      1.0000 0.77980  0.32380  0.79930  Biso   1.000  O
  O34      1.0000 0.67620  0.77980  0.54930  Biso   1.000  O
  O35      1.0000 0.22020  0.67620  0.29930  Biso   1.000  O
  O36      1.0000 0.32380  0.22020  0.04930  Biso   1.000  O
  O37      1.0000 0.57910  0.44680  0.79580  Biso   1.000  O
  O38      1.0000 0.55320  0.57910  0.54580  Biso   1.000  O
  O39      1.0000 0.42090  0.55320  0.29580  Biso   1.000  O
  O40      1.0000 0.44680  0.42090  0.04580  Biso   1.000  O
  O41      1.0000 0.75500  0.52380  0.83200  Biso   1.000  O
  O42      1.0000 0.47620  0.75500  0.58200  Biso   1.000  O
  O43      1.0000 0.24500  0.47620  0.33200  Biso   1.000  O
  O44      1.0000 0.52380  0.24500  0.08200  Biso   1.000  O
