data_image0
_cell_length_a       9.264
_cell_length_b       9.264
_cell_length_c       35.503
_cell_angle_alpha    90
_cell_angle_beta     90
_cell_angle_gamma    90

_symmetry_space_group_name_H-M    "P 1"
_symmetry_int_tables_number       1

loop_
  _symmetry_equiv_pos_as_xyz
  'x, y, z'

loop_
  _atom_site_label
  _atom_site_occupancy
  _atom_site_fract_x
  _atom_site_fract_y
  _atom_site_fract_z
  _atom_site_thermal_displace_type
  _atom_site_B_iso_or_equiv
  _atom_site_type_symbol
  Cu1      1.0000 0.95460  0.61480  0.98070  Biso   1.000  Cu
  Cu2      1.0000 0.38520  0.95460  0.73070  Biso   1.000  Cu
  Cu3      1.0000 0.04540  0.38520  0.48070  Biso   1.000  Cu
  Cu4      1.0000 0.61480  0.04540  0.23070  Biso   1.000  Cu
  S1       1.0000 0.39130  0.12340  0.93560  Biso   1.000  S
  S2       1.0000 0.87660  0.39130  0.68560  Biso   1.000  S
  S3       1.0000 0.60870  0.87660  0.43560  Biso   1.000  S
  S4       1.0000 0.12340  0.60870  0.18560  Biso   1.000  S
  O1       1.0000 0.71810  0.61140  0.97640  Biso   1.000  O
  O2       1.0000 0.38860  0.71810  0.72640  Biso   1.000  O
  O3       1.0000 0.28190  0.38860  0.47640  Biso   1.000  O
  O4       1.0000 0.61140  0.28190  0.22640  Biso   1.000  O
  O5       1.0000 0.65010  0.71740  0.92310  Biso   1.000  O
  O6       1.0000 0.28260  0.65010  0.67310  Biso   1.000  O
  O7       1.0000 0.34990  0.28260  0.42310  Biso   1.000  O
  O8       1.0000 0.71740  0.34990  0.17310  Biso   1.000  O
  O9       1.0000 0.20290  0.61580  0.97640  Biso   1.000  O
  O10      1.0000 0.38420  0.20290  0.72640  Biso   1.000  O
  O11      1.0000 0.79710  0.38420  0.47640  Biso   1.000  O
  O12      1.0000 0.61580  0.79710  0.22640  Biso   1.000  O
  O13      1.0000 0.90770  0.79740  0.90910  Biso   1.000  O
  O14      1.0000 0.20260  0.90770  0.65910  Biso   1.000  O
  O15      1.0000 0.09230  0.20260  0.40910  Biso   1.000  O
  O16      1.0000 0.79740  0.09230  0.15910  Biso   1.000  O
  N1       1.0000 0.37400  0.63180  0.93160  Biso   1.000  N
  N2       1.0000 0.36820  0.37400  0.68160  Biso   1.000  N
  N3       1.0000 0.62600  0.36820  0.43160  Biso   1.000  N
  N4       1.0000 0.63180  0.62600  0.18160  Biso   1.000  N
  N5       1.0000 0.00660  0.72320  0.93090  Biso   1.000  N
  N6       1.0000 0.27680  0.00660  0.68090  Biso   1.000  N
  N7       1.0000 0.99340  0.27680  0.43090  Biso   1.000  N
  N8       1.0000 0.72320  0.99340  0.18090  Biso   1.000  N
  C1       1.0000 0.51840  0.05990  0.96820  Biso   1.000  C
  C2       1.0000 0.94010  0.51840  0.71820  Biso   1.000  C
  C3       1.0000 0.48160  0.94010  0.46820  Biso   1.000  C
  C4       1.0000 0.05990  0.48160  0.21820  Biso   1.000  C
  C5       1.0000 0.37220  0.30900  0.94990  Biso   1.000  C
  C6       1.0000 0.69100  0.37220  0.69990  Biso   1.000  C
  C7       1.0000 0.62780  0.69100  0.44990  Biso   1.000  C
  C8       1.0000 0.30900  0.62780  0.19990  Biso   1.000  C
  C9       1.0000 0.50430  0.39960  0.94280  Biso   1.000  C
  C10      1.0000 0.60040  0.50430  0.69280  Biso   1.000  C
  C11      1.0000 0.49570  0.60040  0.44280  Biso   1.000  C
  C12      1.0000 0.39960  0.49570  0.19280  Biso   1.000  C
  C13      1.0000 0.48480  0.55830  0.95430  Biso   1.000  C
  C14      1.0000 0.44170  0.48480  0.70430  Biso   1.000  C
  C15      1.0000 0.51520  0.44170  0.45430  Biso   1.000  C
  C16      1.0000 0.55830  0.51520  0.20430  Biso   1.000  C
  C17      1.0000 0.62920  0.63840  0.95070  Biso   1.000  C
  C18      1.0000 0.36160  0.62920  0.70070  Biso   1.000  C
  C19      1.0000 0.37080  0.36160  0.45070  Biso   1.000  C
  C20      1.0000 0.63840  0.37080  0.20070  Biso   1.000  C
  C21      1.0000 0.24020  0.65640  0.94440  Biso   1.000  C
  C22      1.0000 0.34360  0.24020  0.69440  Biso   1.000  C
  C23      1.0000 0.75980  0.34360  0.44440  Biso   1.000  C
  C24      1.0000 0.65640  0.75980  0.19440  Biso   1.000  C
  C25      1.0000 0.13840  0.73360  0.91920  Biso   1.000  C
  C26      1.0000 0.26640  0.13840  0.66920  Biso   1.000  C
  C27      1.0000 0.86160  0.26640  0.41920  Biso   1.000  C
  C28      1.0000 0.73360  0.86160  0.16920  Biso   1.000  C
  C29      1.0000 0.18470  0.81500  0.88560  Biso   1.000  C
  C30      1.0000 0.18500  0.18470  0.63560  Biso   1.000  C
  C31      1.0000 0.81530  0.18500  0.38560  Biso   1.000  C
  C32      1.0000 0.81500  0.81530  0.13560  Biso   1.000  C
  N9       1.0000 0.95280  0.81080  0.00840  Biso   1.000  N
  N10      1.0000 0.18920  0.95280  0.75840  Biso   1.000  N
  N11      1.0000 0.04720  0.18920  0.50840  Biso   1.000  N
  N12      1.0000 0.81080  0.04720  0.25840  Biso   1.000  N
  C33      1.0000 0.07570  0.87070  0.02170  Biso   1.000  C
  C34      1.0000 0.12930  0.07570  0.77170  Biso   1.000  C
  C35      1.0000 0.92430  0.12930  0.52170  Biso   1.000  C
  C36      1.0000 0.87070  0.92430  0.27170  Biso   1.000  C
  C37      1.0000 0.07860  0.99700  0.04160  Biso   1.000  C
  C38      1.0000 0.00300  0.07860  0.79160  Biso   1.000  C
  C39      1.0000 0.92140  0.00300  0.54160  Biso   1.000  C
  C40      1.0000 0.99700  0.92140  0.29160  Biso   1.000  C
  C41      1.0000 0.94780  0.06570  0.05000  Biso   1.000  C
  C42      1.0000 0.93430  0.94780  0.80000  Biso   1.000  C
  C43      1.0000 0.05220  0.93430  0.55000  Biso   1.000  C
  C44      1.0000 0.06570  0.05220  0.30000  Biso   1.000  C
  C45      1.0000 0.82380  0.00690  0.03640  Biso   1.000  C
  C46      1.0000 0.99310  0.82380  0.78640  Biso   1.000  C
  C47      1.0000 0.17620  0.99310  0.53640  Biso   1.000  C
  C48      1.0000 0.00690  0.17620  0.28640  Biso   1.000  C
  C49      1.0000 0.82790  0.87920  0.01660  Biso   1.000  C
  C50      1.0000 0.12080  0.82790  0.76660  Biso   1.000  C
  C51      1.0000 0.17210  0.12080  0.51660  Biso   1.000  C
  C52      1.0000 0.87920  0.17210  0.26660  Biso   1.000  C
  N13      1.0000 0.95510  0.51640  0.03240  Biso   1.000  N
  N14      1.0000 0.48360  0.95510  0.78240  Biso   1.000  N
  N15      1.0000 0.04490  0.48360  0.53240  Biso   1.000  N
  N16      1.0000 0.51640  0.04490  0.28240  Biso   1.000  N
  C53      1.0000 0.07650  0.49950  0.05270  Biso   1.000  C
  C54      1.0000 0.50050  0.07650  0.80270  Biso   1.000  C
  C55      1.0000 0.92350  0.50050  0.55270  Biso   1.000  C
  C56      1.0000 0.49950  0.92350  0.30270  Biso   1.000  C
  C57      1.0000 0.08300  0.45380  0.08830  Biso   1.000  C
  C58      1.0000 0.54620  0.08300  0.83830  Biso   1.000  C
  C59      1.0000 0.91700  0.54620  0.58830  Biso   1.000  C
  C60      1.0000 0.45380  0.91700  0.33830  Biso   1.000  C
  C61      1.0000 0.95440  0.41620  0.10610  Biso   1.000  C
  C62      1.0000 0.58380  0.95440  0.85610  Biso   1.000  C
  C63      1.0000 0.04560  0.58380  0.60610  Biso   1.000  C
  C64      1.0000 0.41620  0.04560  0.35610  Biso   1.000  C
  C65      1.0000 0.82770  0.42700  0.08560  Biso   1.000  C
  C66      1.0000 0.57300  0.82770  0.83560  Biso   1.000  C
  C67      1.0000 0.17230  0.57300  0.58560  Biso   1.000  C
  C68      1.0000 0.42700  0.17230  0.33560  Biso   1.000  C
  C69      1.0000 0.83130  0.47590  0.04920  Biso   1.000  C
  C70      1.0000 0.52410  0.83130  0.79920  Biso   1.000  C
  C71      1.0000 0.16870  0.52410  0.54920  Biso   1.000  C
  C72      1.0000 0.47590  0.16870  0.29920  Biso   1.000  C
  N17      1.0000 0.95300  0.42170  0.95120  Biso   1.000  N
  N18      1.0000 0.57830  0.95300  0.70120  Biso   1.000  N
  N19      1.0000 0.04700  0.57830  0.45120  Biso   1.000  N
  N20      1.0000 0.42170  0.04700  0.20120  Biso   1.000  N
  C73      1.0000 0.00390  0.29670  0.96560  Biso   1.000  C
  C74      1.0000 0.70330  0.00390  0.71560  Biso   1.000  C
  C75      1.0000 0.99610  0.70330  0.46560  Biso   1.000  C
  C76      1.0000 0.29670  0.99610  0.21560  Biso   1.000  C
  C77      1.0000 0.99070  0.16970  0.94640  Biso   1.000  C
  C78      1.0000 0.83030  0.99070  0.69640  Biso   1.000  C
  C79      1.0000 0.00930  0.83030  0.44640  Biso   1.000  C
  C80      1.0000 0.16970  0.00930  0.19640  Biso   1.000  C
  C81      1.0000 0.93040  0.16240  0.91240  Biso   1.000  C
  C82      1.0000 0.83760  0.93040  0.66240  Biso   1.000  C
  C83      1.0000 0.06960  0.83760  0.41240  Biso   1.000  C
  C84      1.0000 0.16240  0.06960  0.16240  Biso   1.000  C
  C85      1.0000 0.87810  0.28590  0.89790  Biso   1.000  C
  C86      1.0000 0.71410  0.87810  0.64790  Biso   1.000  C
  C87      1.0000 0.12190  0.71410  0.39790  Biso   1.000  C
  C88      1.0000 0.28590  0.12190  0.14790  Biso   1.000  C
  C89      1.0000 0.89150  0.41340  0.91750  Biso   1.000  C
  C90      1.0000 0.58660  0.89150  0.66750  Biso   1.000  C
  C91      1.0000 0.10850  0.58660  0.41750  Biso   1.000  C
  C92      1.0000 0.41340  0.10850  0.16750  Biso   1.000  C
  H1       1.0000 0.82840  0.76750  0.91420  Biso   1.000  H
  H2       1.0000 0.23250  0.82840  0.66420  Biso   1.000  H
  H3       1.0000 0.17160  0.23250  0.41420  Biso   1.000  H
  H4       1.0000 0.76750  0.17160  0.16420  Biso   1.000  H
  H5       1.0000 0.40160  0.66710  0.90350  Biso   1.000  H
  H6       1.0000 0.33290  0.40160  0.65350  Biso   1.000  H
  H7       1.0000 0.59840  0.33290  0.40350  Biso   1.000  H
  H8       1.0000 0.66710  0.59840  0.15350  Biso   1.000  H
  H9       1.0000 0.54040  0.94740  0.96280  Biso   1.000  H
  H10      1.0000 0.05260  0.54040  0.71280  Biso   1.000  H
  H11      1.0000 0.45960  0.05260  0.46280  Biso   1.000  H
  H12      1.0000 0.94740  0.45960  0.21280  Biso   1.000  H
  H13      1.0000 0.47610  0.07200  0.99640  Biso   1.000  H
  H14      1.0000 0.92800  0.47610  0.74640  Biso   1.000  H
  H15      1.0000 0.52390  0.92800  0.49640  Biso   1.000  H
  H16      1.0000 0.07200  0.52390  0.24640  Biso   1.000  H
  H17      1.0000 0.61690  0.12140  0.96560  Biso   1.000  H
  H18      1.0000 0.87860  0.61690  0.71560  Biso   1.000  H
  H19      1.0000 0.38310  0.87860  0.46560  Biso   1.000  H
  H20      1.0000 0.12140  0.38310  0.21560  Biso   1.000  H
  H21      1.0000 0.34890  0.31140  0.97970  Biso   1.000  H
  H22      1.0000 0.68860  0.34890  0.72970  Biso   1.000  H
  H23      1.0000 0.65110  0.68860  0.47970  Biso   1.000  H
  H24      1.0000 0.31140  0.65110  0.22970  Biso   1.000  H
  H25      1.0000 0.28290  0.35560  0.93450  Biso   1.000  H
  H26      1.0000 0.64440  0.28290  0.68450  Biso   1.000  H
  H27      1.0000 0.71710  0.64440  0.43450  Biso   1.000  H
  H28      1.0000 0.35560  0.71710  0.18450  Biso   1.000  H
  H29      1.0000 0.59320  0.35480  0.95860  Biso   1.000  H
  H30      1.0000 0.64520  0.59320  0.70860  Biso   1.000  H
  H31      1.0000 0.40680  0.64520  0.45860  Biso   1.000  H
  H32      1.0000 0.35480  0.40680  0.20860  Biso   1.000  H
  H33      1.0000 0.52910  0.39570  0.91310  Biso   1.000  H
  H34      1.0000 0.60430  0.52910  0.66310  Biso   1.000  H
  H35      1.0000 0.47090  0.60430  0.41310  Biso   1.000  H
  H36      1.0000 0.39570  0.47090  0.16310  Biso   1.000  H
  H37      1.0000 0.44870  0.55960  0.98330  Biso   1.000  H
  H38      1.0000 0.44040  0.44870  0.73330  Biso   1.000  H
  H39      1.0000 0.55130  0.44040  0.48330  Biso   1.000  H
  H40      1.0000 0.55960  0.55130  0.23330  Biso   1.000  H
  H41      1.0000 0.30020  0.80560  0.88230  Biso   1.000  H
  H42      1.0000 0.19440  0.30020  0.63230  Biso   1.000  H
  H43      1.0000 0.69980  0.19440  0.38230  Biso   1.000  H
  H44      1.0000 0.80560  0.69980  0.13230  Biso   1.000  H
  H45      1.0000 0.15600  0.92730  0.88890  Biso   1.000  H
  H46      1.0000 0.07270  0.15600  0.63890  Biso   1.000  H
  H47      1.0000 0.84400  0.07270  0.38890  Biso   1.000  H
  H48      1.0000 0.92730  0.84400  0.13890  Biso   1.000  H
  H49      1.0000 0.13180  0.77180  0.86100  Biso   1.000  H
  H50      1.0000 0.22820  0.13180  0.61100  Biso   1.000  H
  H51      1.0000 0.86820  0.22820  0.36100  Biso   1.000  H
  H52      1.0000 0.77180  0.86820  0.11100  Biso   1.000  H
  H53      1.0000 0.17670  0.81620  0.01630  Biso   1.000  H
  H54      1.0000 0.18380  0.17670  0.76630  Biso   1.000  H
  H55      1.0000 0.82330  0.18380  0.51630  Biso   1.000  H
  H56      1.0000 0.81620  0.82330  0.26630  Biso   1.000  H
  H57      1.0000 0.17990  0.04290  0.05080  Biso   1.000  H
  H58      1.0000 0.95710  0.17990  0.80080  Biso   1.000  H
  H59      1.0000 0.82010  0.95710  0.55080  Biso   1.000  H
  H60      1.0000 0.04290  0.82010  0.30080  Biso   1.000  H
  H61      1.0000 0.94550  0.16290  0.06680  Biso   1.000  H
  H62      1.0000 0.83710  0.94550  0.81680  Biso   1.000  H
  H63      1.0000 0.05450  0.83710  0.56680  Biso   1.000  H
  H64      1.0000 0.16290  0.05450  0.31680  Biso   1.000  H
  H65      1.0000 0.72180  0.06050  0.04110  Biso   1.000  H
  H66      1.0000 0.93950  0.72180  0.79110  Biso   1.000  H
  H67      1.0000 0.27820  0.93950  0.54110  Biso   1.000  H
  H68      1.0000 0.06050  0.27820  0.29110  Biso   1.000  H
  H69      1.0000 0.72760  0.83200  0.00720  Biso   1.000  H
  H70      1.0000 0.16800  0.72760  0.75720  Biso   1.000  H
  H71      1.0000 0.27240  0.16800  0.50720  Biso   1.000  H
  H72      1.0000 0.83200  0.27240  0.25720  Biso   1.000  H
  H73      1.0000 0.17730  0.52500  0.03890  Biso   1.000  H
  H74      1.0000 0.47500  0.17730  0.78890  Biso   1.000  H
  H75      1.0000 0.82270  0.47500  0.53890  Biso   1.000  H
  H76      1.0000 0.52500  0.82270  0.28890  Biso   1.000  H
  H77      1.0000 0.18500  0.44630  0.10290  Biso   1.000  H
  H78      1.0000 0.55370  0.18500  0.85290  Biso   1.000  H
  H79      1.0000 0.81500  0.55370  0.60290  Biso   1.000  H
  H80      1.0000 0.44630  0.81500  0.35290  Biso   1.000  H
  H81      1.0000 0.95350  0.37970  0.13500  Biso   1.000  H
  H82      1.0000 0.62030  0.95350  0.88500  Biso   1.000  H
  H83      1.0000 0.04650  0.62030  0.63500  Biso   1.000  H
  H84      1.0000 0.37970  0.04650  0.38500  Biso   1.000  H
  H85      1.0000 0.72610  0.39690  0.09830  Biso   1.000  H
  H86      1.0000 0.60310  0.72610  0.84830  Biso   1.000  H
  H87      1.0000 0.27390  0.60310  0.59830  Biso   1.000  H
  H88      1.0000 0.39690  0.27390  0.34830  Biso   1.000  H
  H89      1.0000 0.73170  0.48210  0.03350  Biso   1.000  H
  H90      1.0000 0.51790  0.73170  0.78350  Biso   1.000  H
  H91      1.0000 0.26830  0.51790  0.53350  Biso   1.000  H
  H92      1.0000 0.48210  0.26830  0.28350  Biso   1.000  H
  H93      1.0000 0.05600  0.29720  0.99290  Biso   1.000  H
  H94      1.0000 0.70280  0.05600  0.74290  Biso   1.000  H
  H95      1.0000 0.94400  0.70280  0.49290  Biso   1.000  H
  H96      1.0000 0.29720  0.94400  0.24290  Biso   1.000  H
  H97      1.0000 0.03050  0.07170  0.95920  Biso   1.000  H
  H98      1.0000 0.92830  0.03050  0.70920  Biso   1.000  H
  H99      1.0000 0.96950  0.92830  0.45920  Biso   1.000  H
  H100     1.0000 0.07170  0.96950  0.20920  Biso   1.000  H
  H101     1.0000 0.92380  0.06170  0.89710  Biso   1.000  H
  H102     1.0000 0.93830  0.92380  0.64710  Biso   1.000  H
  H103     1.0000 0.07620  0.93830  0.39710  Biso   1.000  H
  H104     1.0000 0.06170  0.07620  0.14710  Biso   1.000  H
  H105     1.0000 0.82550  0.28510  0.87070  Biso   1.000  H
  H106     1.0000 0.71490  0.82550  0.62070  Biso   1.000  H
  H107     1.0000 0.17450  0.71490  0.37070  Biso   1.000  H
  H108     1.0000 0.28510  0.17450  0.12070  Biso   1.000  H
  H109     1.0000 0.85000  0.51110  0.90500  Biso   1.000  H
  H110     1.0000 0.48890  0.85000  0.65500  Biso   1.000  H
  H111     1.0000 0.15000  0.48890  0.40500  Biso   1.000  H
  H112     1.0000 0.51110  0.15000  0.15500  Biso   1.000  H
  N21      1.0000 0.70230  0.45150  0.81110  Biso   1.000  N
  N22      1.0000 0.54850  0.70230  0.56110  Biso   1.000  N
  N23      1.0000 0.29770  0.54850  0.31110  Biso   1.000  N
  N24      1.0000 0.45150  0.29770  0.06110  Biso   1.000  N
  O17      1.0000 0.80970  0.37100  0.80380  Biso   1.000  O
  O18      1.0000 0.62900  0.80970  0.55380  Biso   1.000  O
  O19      1.0000 0.19030  0.62900  0.30380  Biso   1.000  O
  O20      1.0000 0.37100  0.19030  0.05380  Biso   1.000  O
  O21      1.0000 0.64860  0.53090  0.78640  Biso   1.000  O
  O22      1.0000 0.46910  0.64860  0.53640  Biso   1.000  O
  O23      1.0000 0.35140  0.46910  0.28640  Biso   1.000  O
  O24      1.0000 0.53090  0.35140  0.03640  Biso   1.000  O
  O25      1.0000 0.65340  0.44910  0.84340  Biso   1.000  O
  O26      1.0000 0.55090  0.65340  0.59340  Biso   1.000  O
  O27      1.0000 0.34660  0.55090  0.34340  Biso   1.000  O
  O28      1.0000 0.44910  0.34660  0.09340  Biso   1.000  O
  O29      1.0000 0.37690  0.53650  0.85060  Biso   1.000  O
  O30      1.0000 0.46350  0.37690  0.60060  Biso   1.000  O
  O31      1.0000 0.62310  0.46350  0.35060  Biso   1.000  O
  O32      1.0000 0.53650  0.62310  0.10060  Biso   1.000  O
  C93      1.0000 0.27290  0.43810  0.84950  Biso   1.000  C
  C94      1.0000 0.56190  0.27290  0.59950  Biso   1.000  C
  C95      1.0000 0.72710  0.56190  0.34950  Biso   1.000  C
  C96      1.0000 0.43810  0.72710  0.09950  Biso   1.000  C
  C97      1.0000 0.20230  0.45720  0.81080  Biso   1.000  C
  C98      1.0000 0.54280  0.20230  0.56080  Biso   1.000  C
  C99      1.0000 0.79770  0.54280  0.31080  Biso   1.000  C
  C100     1.0000 0.45720  0.79770  0.06080  Biso   1.000  C
  N25      1.0000 0.70340  0.43100  0.80890  Biso   1.000  N
  N26      1.0000 0.56900  0.70340  0.55890  Biso   1.000  N
  N27      1.0000 0.29660  0.56900  0.30890  Biso   1.000  N
  N28      1.0000 0.43100  0.29660  0.05890  Biso   1.000  N
  O33      1.0000 0.77980  0.32380  0.79930  Biso   1.000  O
  O34      1.0000 0.67620  0.77980  0.54930  Biso   1.000  O
  O35      1.0000 0.22020  0.67620  0.29930  Biso   1.000  O
  O36      1.0000 0.32380  0.22020  0.04930  Biso   1.000  O
  O37      1.0000 0.57910  0.44680  0.79580  Biso   1.000  O
  O38      1.0000 0.55320  0.57910  0.54580  Biso   1.000  O
  O39      1.0000 0.42090  0.55320  0.29580  Biso   1.000  O
  O40      1.0000 0.44680  0.42090  0.04580  Biso   1.000  O
  O41      1.0000 0.75500  0.52380  0.83200  Biso   1.000  O
  O42      1.0000 0.47620  0.75500  0.58200  Biso   1.000  O
  O43      1.0000 0.24500  0.47620  0.33200  Biso   1.000  O
  O44      1.0000 0.52380  0.24500  0.08200  Biso   1.000  O
