data_image0
_cell_length_a       15.601
_cell_length_b       10.2052
_cell_length_c       16.145
_cell_angle_alpha    90
_cell_angle_beta     90
_cell_angle_gamma    90

_symmetry_space_group_name_H-M    "P 1"
_symmetry_int_tables_number       1

loop_
  _symmetry_equiv_pos_as_xyz
  'x, y, z'

loop_
  _atom_site_label
  _atom_site_occupancy
  _atom_site_fract_x
  _atom_site_fract_y
  _atom_site_fract_z
  _atom_site_thermal_displace_type
  _atom_site_B_iso_or_equiv
  _atom_site_type_symbol
  Cu1      1.0000 0.00000  0.50000  0.00000  Biso   1.000  Cu
  Cu2      1.0000 0.50000  0.50000  0.50000  Biso   1.000  Cu
  Cu3      1.0000 0.00000  0.00000  0.50000  Biso   1.000  Cu
  Cu4      1.0000 0.50000  0.00000  0.00000  Biso   1.000  Cu
  N1       1.0000 0.10947  0.52810  0.93660  Biso   1.000  N
  N2       1.0000 0.39053  0.47190  0.43660  Biso   1.000  N
  N3       1.0000 0.89053  0.02810  0.56340  Biso   1.000  N
  N4       1.0000 0.60947  0.97190  0.06340  Biso   1.000  N
  N5       1.0000 0.89053  0.47190  0.06340  Biso   1.000  N
  N6       1.0000 0.60947  0.52810  0.56340  Biso   1.000  N
  N7       1.0000 0.10947  0.97190  0.43660  Biso   1.000  N
  N8       1.0000 0.39053  0.02810  0.93660  Biso   1.000  N
  N9       1.0000 0.15306  0.29750  0.94083  Biso   1.000  N
  N10      1.0000 0.34694  0.70250  0.44083  Biso   1.000  N
  N11      1.0000 0.84694  0.79750  0.55917  Biso   1.000  N
  N12      1.0000 0.65306  0.20250  0.05917  Biso   1.000  N
  N13      1.0000 0.84694  0.70250  0.05917  Biso   1.000  N
  N14      1.0000 0.65306  0.29750  0.55917  Biso   1.000  N
  N15      1.0000 0.15306  0.20250  0.44083  Biso   1.000  N
  N16      1.0000 0.34694  0.79750  0.94083  Biso   1.000  N
  N17      1.0000 0.99481  0.69640  0.00742  Biso   1.000  N
  N18      1.0000 0.50519  0.30360  0.50742  Biso   1.000  N
  N19      1.0000 0.00519  0.19640  0.49258  Biso   1.000  N
  N20      1.0000 0.49481  0.80360  0.99258  Biso   1.000  N
  N21      1.0000 0.00519  0.30360  0.99258  Biso   1.000  N
  N22      1.0000 0.49481  0.69640  0.49258  Biso   1.000  N
  N23      1.0000 0.99481  0.80360  0.50742  Biso   1.000  N
  N24      1.0000 0.50519  0.19640  0.00742  Biso   1.000  N
  C1       1.0000 0.13515  0.27260  0.85284  Biso   1.000  C
  C2       1.0000 0.36485  0.72740  0.35284  Biso   1.000  C
  C3       1.0000 0.86485  0.77260  0.64716  Biso   1.000  C
  C4       1.0000 0.63515  0.22740  0.14716  Biso   1.000  C
  C5       1.0000 0.86485  0.72740  0.14716  Biso   1.000  C
  C6       1.0000 0.63515  0.27260  0.64716  Biso   1.000  C
  C7       1.0000 0.13515  0.22740  0.35284  Biso   1.000  C
  C8       1.0000 0.36485  0.77260  0.85284  Biso   1.000  C
  H1       1.0000 0.17710  0.31910  0.81960  Biso   1.000  H
  H2       1.0000 0.32290  0.68090  0.31960  Biso   1.000  H
  H3       1.0000 0.82290  0.81910  0.68040  Biso   1.000  H
  H4       1.0000 0.67710  0.18090  0.18040  Biso   1.000  H
  H5       1.0000 0.82290  0.68090  0.18040  Biso   1.000  H
  H6       1.0000 0.67710  0.31910  0.68040  Biso   1.000  H
  H7       1.0000 0.17710  0.18090  0.31960  Biso   1.000  H
  H8       1.0000 0.32290  0.81910  0.81960  Biso   1.000  H
  H9       1.0000 0.07910  0.30810  0.83950  Biso   1.000  H
  H10      1.0000 0.42090  0.69190  0.33950  Biso   1.000  H
  H11      1.0000 0.92090  0.80810  0.66050  Biso   1.000  H
  H12      1.0000 0.57910  0.19190  0.16050  Biso   1.000  H
  H13      1.0000 0.92090  0.69190  0.16050  Biso   1.000  H
  H14      1.0000 0.57910  0.30810  0.66050  Biso   1.000  H
  H15      1.0000 0.07910  0.19190  0.33950  Biso   1.000  H
  H16      1.0000 0.42090  0.80810  0.83950  Biso   1.000  H
  C9       1.0000 0.10800  0.98230  0.70396  Biso   1.000  C
  C10      1.0000 0.39200  0.01770  0.20396  Biso   1.000  C
  C11      1.0000 0.89200  0.48230  0.79604  Biso   1.000  C
  C12      1.0000 0.60800  0.51770  0.29604  Biso   1.000  C
  C13      1.0000 0.89200  0.01770  0.29604  Biso   1.000  C
  C14      1.0000 0.60800  0.98230  0.79604  Biso   1.000  C
  C15      1.0000 0.10800  0.51770  0.20396  Biso   1.000  C
  C16      1.0000 0.39200  0.48230  0.70396  Biso   1.000  C
  C17      1.0000 0.05662  0.75020  0.94677  Biso   1.000  C
  C18      1.0000 0.44338  0.24980  0.44677  Biso   1.000  C
  C19      1.0000 0.94338  0.25020  0.55323  Biso   1.000  C
  C20      1.0000 0.55662  0.74980  0.05323  Biso   1.000  C
  C21      1.0000 0.94338  0.24980  0.05323  Biso   1.000  C
  C22      1.0000 0.55662  0.75020  0.55323  Biso   1.000  C
  C23      1.0000 0.05662  0.74980  0.44677  Biso   1.000  C
  C24      1.0000 0.44338  0.25020  0.94677  Biso   1.000  C
  H17      1.0000 0.03250  0.74780  0.89140  Biso   1.000  H
  H18      1.0000 0.46750  0.25220  0.39140  Biso   1.000  H
  H19      1.0000 0.96750  0.24780  0.60860  Biso   1.000  H
  H20      1.0000 0.53250  0.75220  0.10860  Biso   1.000  H
  H21      1.0000 0.96750  0.25220  0.10860  Biso   1.000  H
  H22      1.0000 0.53250  0.74780  0.60860  Biso   1.000  H
  H23      1.0000 0.03250  0.75220  0.39140  Biso   1.000  H
  H24      1.0000 0.46750  0.24780  0.89140  Biso   1.000  H
  H25      1.0000 0.07030  0.84040  0.96030  Biso   1.000  H
  H26      1.0000 0.42970  0.15960  0.46030  Biso   1.000  H
  H27      1.0000 0.92970  0.34040  0.53970  Biso   1.000  H
  H28      1.0000 0.57030  0.65960  0.03970  Biso   1.000  H
  H29      1.0000 0.92970  0.15960  0.03970  Biso   1.000  H
  H30      1.0000 0.57030  0.84040  0.53970  Biso   1.000  H
  H31      1.0000 0.07030  0.65960  0.46030  Biso   1.000  H
  H32      1.0000 0.42970  0.34040  0.96030  Biso   1.000  H
  C25      1.0000 0.13690  0.12990  0.82928  Biso   1.000  C
  C26      1.0000 0.36310  0.87010  0.32928  Biso   1.000  C
  C27      1.0000 0.86310  0.62990  0.67072  Biso   1.000  C
  C28      1.0000 0.63690  0.37010  0.17072  Biso   1.000  C
  C29      1.0000 0.86310  0.87010  0.17072  Biso   1.000  C
  C30      1.0000 0.63690  0.12990  0.67072  Biso   1.000  C
  C31      1.0000 0.13690  0.37010  0.32928  Biso   1.000  C
  C32      1.0000 0.36310  0.62990  0.82928  Biso   1.000  C
  H33      1.0000 0.09480  0.08210  0.86150  Biso   1.000  H
  H34      1.0000 0.40520  0.91790  0.36150  Biso   1.000  H
  H35      1.0000 0.90520  0.58210  0.63850  Biso   1.000  H
  H36      1.0000 0.59480  0.41790  0.13850  Biso   1.000  H
  H37      1.0000 0.90520  0.91790  0.13850  Biso   1.000  H
  H38      1.0000 0.59480  0.08210  0.63850  Biso   1.000  H
  H39      1.0000 0.09480  0.41790  0.36150  Biso   1.000  H
  H40      1.0000 0.40520  0.58210  0.86150  Biso   1.000  H
  H41      1.0000 0.19300  0.09340  0.84100  Biso   1.000  H
  H42      1.0000 0.30700  0.90660  0.34100  Biso   1.000  H
  H43      1.0000 0.80700  0.59340  0.65900  Biso   1.000  H
  H44      1.0000 0.69300  0.40660  0.15900  Biso   1.000  H
  H45      1.0000 0.80700  0.90660  0.15900  Biso   1.000  H
  H46      1.0000 0.69300  0.09340  0.65900  Biso   1.000  H
  H47      1.0000 0.19300  0.40660  0.34100  Biso   1.000  H
  H48      1.0000 0.30700  0.59340  0.84100  Biso   1.000  H
  C33      1.0000 0.17839  0.43030  0.95673  Biso   1.000  C
  C34      1.0000 0.32161  0.56970  0.45673  Biso   1.000  C
  C35      1.0000 0.82161  0.93030  0.54327  Biso   1.000  C
  C36      1.0000 0.67839  0.06970  0.04327  Biso   1.000  C
  C37      1.0000 0.82161  0.56970  0.04327  Biso   1.000  C
  C38      1.0000 0.67839  0.43030  0.54327  Biso   1.000  C
  C39      1.0000 0.17839  0.06970  0.45673  Biso   1.000  C
  C40      1.0000 0.32161  0.93030  0.95673  Biso   1.000  C
  H49      1.0000 0.22900  0.45020  0.92410  Biso   1.000  H
  H50      1.0000 0.27100  0.54980  0.42410  Biso   1.000  H
  H51      1.0000 0.77100  0.95020  0.57590  Biso   1.000  H
  H52      1.0000 0.72900  0.04980  0.07590  Biso   1.000  H
  H53      1.0000 0.77100  0.54980  0.07590  Biso   1.000  H
  H54      1.0000 0.72900  0.45020  0.57590  Biso   1.000  H
  H55      1.0000 0.22900  0.04980  0.42410  Biso   1.000  H
  H56      1.0000 0.27100  0.95020  0.92410  Biso   1.000  H
  H57      1.0000 0.19370  0.43880  0.01470  Biso   1.000  H
  H58      1.0000 0.30630  0.56120  0.51470  Biso   1.000  H
  H59      1.0000 0.80630  0.93880  0.48530  Biso   1.000  H
  H60      1.0000 0.69370  0.06120  0.98530  Biso   1.000  H
  H61      1.0000 0.80630  0.56120  0.98530  Biso   1.000  H
  H62      1.0000 0.69370  0.43880  0.48530  Biso   1.000  H
  H63      1.0000 0.19370  0.06120  0.51470  Biso   1.000  H
  H64      1.0000 0.30630  0.93880  0.01470  Biso   1.000  H
  C41      1.0000 0.13601  0.66660  0.95099  Biso   1.000  C
  C42      1.0000 0.36399  0.33340  0.45099  Biso   1.000  C
  C43      1.0000 0.86399  0.16660  0.54901  Biso   1.000  C
  C44      1.0000 0.63601  0.83340  0.04901  Biso   1.000  C
  C45      1.0000 0.86399  0.33340  0.04901  Biso   1.000  C
  C46      1.0000 0.63601  0.66660  0.54901  Biso   1.000  C
  C47      1.0000 0.13601  0.83340  0.45099  Biso   1.000  C
  C48      1.0000 0.36399  0.16660  0.95099  Biso   1.000  C
  H65      1.0000 0.17680  0.69380  0.90900  Biso   1.000  H
  H66      1.0000 0.32320  0.30620  0.40900  Biso   1.000  H
  H67      1.0000 0.82320  0.19380  0.59100  Biso   1.000  H
  H68      1.0000 0.67680  0.80620  0.09100  Biso   1.000  H
  H69      1.0000 0.82320  0.30620  0.09100  Biso   1.000  H
  H70      1.0000 0.67680  0.69380  0.59100  Biso   1.000  H
  H71      1.0000 0.17680  0.80620  0.40900  Biso   1.000  H
  H72      1.0000 0.32320  0.19380  0.90900  Biso   1.000  H
  H73      1.0000 0.16290  0.67510  0.00490  Biso   1.000  H
  H74      1.0000 0.33710  0.32490  0.50490  Biso   1.000  H
  H75      1.0000 0.83710  0.17510  0.49510  Biso   1.000  H
  H76      1.0000 0.66290  0.82490  0.99510  Biso   1.000  H
  H77      1.0000 0.83710  0.32490  0.99510  Biso   1.000  H
  H78      1.0000 0.66290  0.67510  0.49510  Biso   1.000  H
  H79      1.0000 0.16290  0.82490  0.50490  Biso   1.000  H
  H80      1.0000 0.33710  0.17510  0.00490  Biso   1.000  H
  O1       1.0000 0.07735  0.96050  0.63705  Biso   1.000  O
  O2       1.0000 0.42265  0.03950  0.13705  Biso   1.000  O
  O3       1.0000 0.92265  0.46050  0.86295  Biso   1.000  O
  O4       1.0000 0.57735  0.53950  0.36295  Biso   1.000  O
  O5       1.0000 0.92265  0.03950  0.36295  Biso   1.000  O
  O6       1.0000 0.57735  0.96050  0.86295  Biso   1.000  O
  O7       1.0000 0.07735  0.53950  0.13705  Biso   1.000  O
  O8       1.0000 0.42265  0.46050  0.63705  Biso   1.000  O
  C49      1.0000 0.09277  0.24370  0.99888  Biso   1.000  C
  C50      1.0000 0.40723  0.75630  0.49888  Biso   1.000  C
  C51      1.0000 0.90723  0.74370  0.50112  Biso   1.000  C
  C52      1.0000 0.59277  0.25630  0.00112  Biso   1.000  C
  C53      1.0000 0.90723  0.75630  0.00112  Biso   1.000  C
  C54      1.0000 0.59277  0.24370  0.50112  Biso   1.000  C
  C55      1.0000 0.09277  0.25630  0.49888  Biso   1.000  C
  C56      1.0000 0.40723  0.74370  0.99888  Biso   1.000  C
  H81      1.0000 0.11440  0.25680  0.05460  Biso   1.000  H
  H82      1.0000 0.38560  0.74320  0.55460  Biso   1.000  H
  H83      1.0000 0.88560  0.75680  0.44540  Biso   1.000  H
  H84      1.0000 0.61440  0.24320  0.94540  Biso   1.000  H
  H85      1.0000 0.88560  0.74320  0.94540  Biso   1.000  H
  H86      1.0000 0.61440  0.25680  0.44540  Biso   1.000  H
  H87      1.0000 0.11440  0.24320  0.55460  Biso   1.000  H
  H88      1.0000 0.38560  0.75680  0.05460  Biso   1.000  H
  H89      1.0000 0.08820  0.15010  0.98960  Biso   1.000  H
  H90      1.0000 0.41180  0.84990  0.48960  Biso   1.000  H
  H91      1.0000 0.91180  0.65010  0.51040  Biso   1.000  H
  H92      1.0000 0.58820  0.34990  0.01040  Biso   1.000  H
  H93      1.0000 0.91180  0.84990  0.01040  Biso   1.000  H
  H94      1.0000 0.58820  0.15010  0.51040  Biso   1.000  H
  H95      1.0000 0.08820  0.34990  0.48960  Biso   1.000  H
  H96      1.0000 0.41180  0.65010  0.98960  Biso   1.000  H
  O9       1.0000 0.13737  0.88800  0.75280  Biso   1.000  O
  O10      1.0000 0.36263  0.11200  0.25280  Biso   1.000  O
  O11      1.0000 0.86263  0.38800  0.74720  Biso   1.000  O
  O12      1.0000 0.63737  0.61200  0.24720  Biso   1.000  O
  O13      1.0000 0.86263  0.11200  0.24720  Biso   1.000  O
  O14      1.0000 0.63737  0.88800  0.74720  Biso   1.000  O
  O15      1.0000 0.13737  0.61200  0.25280  Biso   1.000  O
  O16      1.0000 0.36263  0.38800  0.75280  Biso   1.000  O
  C57      1.0000 0.11710  0.11610  0.73777  Biso   1.000  C
  C58      1.0000 0.38290  0.88390  0.23777  Biso   1.000  C
  C59      1.0000 0.88290  0.61610  0.76223  Biso   1.000  C
  C60      1.0000 0.61710  0.38390  0.26223  Biso   1.000  C
  C61      1.0000 0.88290  0.88390  0.26223  Biso   1.000  C
  C62      1.0000 0.61710  0.11610  0.76223  Biso   1.000  C
  C63      1.0000 0.11710  0.38390  0.23777  Biso   1.000  C
  C64      1.0000 0.38290  0.61610  0.73777  Biso   1.000  C
  H97      1.0000 0.06430  0.16310  0.72670  Biso   1.000  H
  H98      1.0000 0.43570  0.83690  0.22670  Biso   1.000  H
  H99      1.0000 0.93570  0.66310  0.77330  Biso   1.000  H
  H100     1.0000 0.56430  0.33690  0.27330  Biso   1.000  H
  H101     1.0000 0.93570  0.83690  0.27330  Biso   1.000  H
  H102     1.0000 0.56430  0.16310  0.77330  Biso   1.000  H
  H103     1.0000 0.06430  0.33690  0.22670  Biso   1.000  H
  H104     1.0000 0.43570  0.66310  0.72670  Biso   1.000  H
  H105     1.0000 0.16230  0.15990  0.70710  Biso   1.000  H
  H106     1.0000 0.33770  0.84010  0.20710  Biso   1.000  H
  H107     1.0000 0.83770  0.65990  0.79290  Biso   1.000  H
  H108     1.0000 0.66230  0.34010  0.29290  Biso   1.000  H
  H109     1.0000 0.83770  0.84010  0.29290  Biso   1.000  H
  H110     1.0000 0.66230  0.15990  0.79290  Biso   1.000  H
  H111     1.0000 0.16230  0.34010  0.20710  Biso   1.000  H
  H112     1.0000 0.33770  0.65990  0.70710  Biso   1.000  H
  Cl1      1.0000 0.12772  0.55013  0.67052  Biso   1.000  Cl
  Cl2      1.0000 0.37228  0.44987  0.17052  Biso   1.000  Cl
  Cl3      1.0000 0.87228  0.05013  0.82948  Biso   1.000  Cl
  Cl4      1.0000 0.62772  0.94987  0.32948  Biso   1.000  Cl
  Cl5      1.0000 0.87228  0.44987  0.32948  Biso   1.000  Cl
  Cl6      1.0000 0.62772  0.55013  0.82948  Biso   1.000  Cl
  Cl7      1.0000 0.12772  0.94987  0.17052  Biso   1.000  Cl
  Cl8      1.0000 0.37228  0.05013  0.67052  Biso   1.000  Cl
  O17      1.0000 0.18610  0.45000  0.66010  Biso   1.000  O
  O18      1.0000 0.31390  0.55000  0.16010  Biso   1.000  O
  O19      1.0000 0.81390  0.95000  0.83990  Biso   1.000  O
  O20      1.0000 0.68610  0.05000  0.33990  Biso   1.000  O
  O21      1.0000 0.81390  0.55000  0.33990  Biso   1.000  O
  O22      1.0000 0.68610  0.45000  0.83990  Biso   1.000  O
  O23      1.0000 0.18610  0.05000  0.16010  Biso   1.000  O
  O24      1.0000 0.31390  0.95000  0.66010  Biso   1.000  O
  O25      1.0000 0.11270  0.59450  0.74180  Biso   1.000  O
  O26      1.0000 0.38730  0.40550  0.24180  Biso   1.000  O
  O27      1.0000 0.88730  0.09450  0.75820  Biso   1.000  O
  O28      1.0000 0.61270  0.90550  0.25820  Biso   1.000  O
  O29      1.0000 0.88730  0.40550  0.25820  Biso   1.000  O
  O30      1.0000 0.61270  0.59450  0.75820  Biso   1.000  O
  O31      1.0000 0.11270  0.90550  0.24180  Biso   1.000  O
  O32      1.0000 0.38730  0.09450  0.74180  Biso   1.000  O
  O33      1.0000 0.06300  0.55230  0.61160  Biso   1.000  O
  O34      1.0000 0.43700  0.44770  0.11160  Biso   1.000  O
  O35      1.0000 0.93700  0.05230  0.88840  Biso   1.000  O
  O36      1.0000 0.56300  0.94770  0.38840  Biso   1.000  O
  O37      1.0000 0.93700  0.44770  0.38840  Biso   1.000  O
  O38      1.0000 0.56300  0.55230  0.88840  Biso   1.000  O
  O39      1.0000 0.06300  0.94770  0.11160  Biso   1.000  O
  O40      1.0000 0.43700  0.05230  0.61160  Biso   1.000  O
  O41      1.0000 0.17930  0.66270  0.63600  Biso   1.000  O
  O42      1.0000 0.32070  0.33730  0.13600  Biso   1.000  O
  O43      1.0000 0.82070  0.16270  0.86400  Biso   1.000  O
  O44      1.0000 0.67930  0.83730  0.36400  Biso   1.000  O
  O45      1.0000 0.82070  0.33730  0.36400  Biso   1.000  O
  O46      1.0000 0.67930  0.66270  0.86400  Biso   1.000  O
  O47      1.0000 0.17930  0.83730  0.13600  Biso   1.000  O
  O48      1.0000 0.32070  0.16270  0.63600  Biso   1.000  O
  O49      1.0000 0.19450  0.50730  0.62680  Biso   1.000  O
  O50      1.0000 0.30550  0.49270  0.12680  Biso   1.000  O
  O51      1.0000 0.80550  0.00730  0.87320  Biso   1.000  O
  O52      1.0000 0.69450  0.99270  0.37320  Biso   1.000  O
  O53      1.0000 0.80550  0.49270  0.37320  Biso   1.000  O
  O54      1.0000 0.69450  0.50730  0.87320  Biso   1.000  O
  O55      1.0000 0.19450  0.99270  0.12680  Biso   1.000  O
  O56      1.0000 0.30550  0.00730  0.62680  Biso   1.000  O
  O57      1.0000 0.06050  0.45050  0.67730  Biso   1.000  O
  O58      1.0000 0.43950  0.54950  0.17730  Biso   1.000  O
  O59      1.0000 0.93950  0.95050  0.82270  Biso   1.000  O
  O60      1.0000 0.56050  0.04950  0.32270  Biso   1.000  O
  O61      1.0000 0.93950  0.54950  0.32270  Biso   1.000  O
  O62      1.0000 0.56050  0.45050  0.82270  Biso   1.000  O
  O63      1.0000 0.06050  0.04950  0.17730  Biso   1.000  O
  O64      1.0000 0.43950  0.95050  0.67730  Biso   1.000  O
  O65      1.0000 0.09380  0.65940  0.63850  Biso   1.000  O
  O66      1.0000 0.40620  0.34060  0.13850  Biso   1.000  O
  O67      1.0000 0.90620  0.15940  0.86150  Biso   1.000  O
  O68      1.0000 0.59380  0.84060  0.36150  Biso   1.000  O
  O69      1.0000 0.90620  0.34060  0.36150  Biso   1.000  O
  O70      1.0000 0.59380  0.65940  0.86150  Biso   1.000  O
  O71      1.0000 0.09380  0.84060  0.13850  Biso   1.000  O
  O72      1.0000 0.40620  0.15940  0.63850  Biso   1.000  O
  O73      1.0000 0.14840  0.58070  0.75790  Biso   1.000  O
  O74      1.0000 0.35160  0.41930  0.25790  Biso   1.000  O
  O75      1.0000 0.85160  0.08070  0.74210  Biso   1.000  O
  O76      1.0000 0.64840  0.91930  0.24210  Biso   1.000  O
  O77      1.0000 0.85160  0.41930  0.24210  Biso   1.000  O
  O78      1.0000 0.64840  0.58070  0.74210  Biso   1.000  O
  O79      1.0000 0.14840  0.91930  0.25790  Biso   1.000  O
  O80      1.0000 0.35160  0.08070  0.75790  Biso   1.000  O
