data_image0
_cell_length_a       7.8199
_cell_length_b       10.4971
_cell_length_c       19.081
_cell_angle_alpha    90
_cell_angle_beta     90
_cell_angle_gamma    90

_symmetry_space_group_name_H-M    "P 1"
_symmetry_int_tables_number       1

loop_
  _symmetry_equiv_pos_as_xyz
  'x, y, z'

loop_
  _atom_site_label
  _atom_site_occupancy
  _atom_site_fract_x
  _atom_site_fract_y
  _atom_site_fract_z
  _atom_site_thermal_displace_type
  _atom_site_B_iso_or_equiv
  _atom_site_type_symbol
  Cu1      1.0000 0.75054  0.58946  0.87760  Biso   1.000  Cu
  Cu2      1.0000 0.74946  0.41054  0.37760  Biso   1.000  Cu
  Cu3      1.0000 0.24946  0.08946  0.62240  Biso   1.000  Cu
  Cu4      1.0000 0.25054  0.91054  0.12240  Biso   1.000  Cu
  C1       1.0000 0.74850  0.39300  0.52331  Biso   1.000  C
  C2       1.0000 0.75150  0.60700  0.02331  Biso   1.000  C
  C3       1.0000 0.25150  0.89300  0.97669  Biso   1.000  C
  C4       1.0000 0.24850  0.10700  0.47669  Biso   1.000  C
  O1       1.0000 0.77840  0.51050  0.78598  Biso   1.000  O
  O2       1.0000 0.72160  0.48950  0.28598  Biso   1.000  O
  O3       1.0000 0.22160  0.01050  0.71402  Biso   1.000  O
  O4       1.0000 0.27840  0.98950  0.21402  Biso   1.000  O
  O5       1.0000 0.78600  0.32970  0.46823  Biso   1.000  O
  O6       1.0000 0.71400  0.67030  0.96823  Biso   1.000  O
  O7       1.0000 0.21400  0.82970  0.03177  Biso   1.000  O
  O8       1.0000 0.28600  0.17030  0.53177  Biso   1.000  O
  N1       1.0000 0.55410  0.47380  0.90263  Biso   1.000  N
  N2       1.0000 0.94590  0.52620  0.40263  Biso   1.000  N
  N3       1.0000 0.44590  0.97380  0.59737  Biso   1.000  N
  N4       1.0000 0.05410  0.02620  0.09737  Biso   1.000  N
  C5       1.0000 0.87190  0.40980  0.78414  Biso   1.000  C
  C6       1.0000 0.62810  0.59020  0.28414  Biso   1.000  C
  C7       1.0000 0.12810  0.90980  0.71586  Biso   1.000  C
  C8       1.0000 0.37190  0.09020  0.21586  Biso   1.000  C
  C9       1.0000 0.83510  0.34630  0.58900  Biso   1.000  C
  C10      1.0000 0.66490  0.65370  0.08900  Biso   1.000  C
  C11      1.0000 0.16490  0.84630  0.91100  Biso   1.000  C
  C12      1.0000 0.33510  0.15370  0.41100  Biso   1.000  C
  O9       1.0000 0.57420  0.74550  0.82817  Biso   1.000  O
  O10      1.0000 0.92580  0.25450  0.32817  Biso   1.000  O
  O11      1.0000 0.42580  0.24550  0.67183  Biso   1.000  O
  O12      1.0000 0.07420  0.75450  0.17183  Biso   1.000  O
  C13      1.0000 0.25660  0.44970  0.92730  Biso   1.000  C
  C14      1.0000 0.24340  0.55030  0.42730  Biso   1.000  C
  C15      1.0000 0.74340  0.94970  0.57270  Biso   1.000  C
  C16      1.0000 0.75660  0.05030  0.07270  Biso   1.000  C
  H1       1.0000 0.14730  0.48790  0.93290  Biso   1.000  H
  H2       1.0000 0.35270  0.51210  0.43290  Biso   1.000  H
  H3       1.0000 0.85270  0.98790  0.56710  Biso   1.000  H
  H4       1.0000 0.64730  0.01210  0.06710  Biso   1.000  H
  C17      1.0000 0.80820  0.40050  0.65381  Biso   1.000  C
  C18      1.0000 0.69180  0.59950  0.15381  Biso   1.000  C
  C19      1.0000 0.19180  0.90050  0.84619  Biso   1.000  C
  C20      1.0000 0.30820  0.09950  0.34619  Biso   1.000  C
  H5       1.0000 0.72940  0.46880  0.65870  Biso   1.000  H
  H6       1.0000 0.77060  0.53120  0.15870  Biso   1.000  H
  H7       1.0000 0.27060  0.96880  0.84130  Biso   1.000  H
  H8       1.0000 0.22940  0.03120  0.34130  Biso   1.000  H
  C21      1.0000 0.89580  0.35560  0.71180  Biso   1.000  C
  C22      1.0000 0.60420  0.64440  0.21180  Biso   1.000  C
  C23      1.0000 0.10420  0.85560  0.78820  Biso   1.000  C
  C24      1.0000 0.39580  0.14440  0.28820  Biso   1.000  C
  O13      1.0000 0.94000  0.35940  0.83501  Biso   1.000  O
  O14      1.0000 0.56000  0.64060  0.33501  Biso   1.000  O
  O15      1.0000 0.06000  0.85940  0.66499  Biso   1.000  O
  O16      1.0000 0.44000  0.14060  0.16499  Biso   1.000  O
  O17      1.0000 0.65220  0.48510  0.52620  Biso   1.000  O
  O18      1.0000 0.84780  0.51490  0.02620  Biso   1.000  O
  O19      1.0000 0.34780  0.98510  0.97380  Biso   1.000  O
  O20      1.0000 0.15220  0.01490  0.47380  Biso   1.000  O
  C25      1.0000 0.95200  0.24670  0.58376  Biso   1.000  C
  C26      1.0000 0.54800  0.75330  0.08376  Biso   1.000  C
  C27      1.0000 0.04800  0.74670  0.91624  Biso   1.000  C
  C28      1.0000 0.45200  0.25330  0.41624  Biso   1.000  C
  H9       1.0000 0.96900  0.20780  0.53930  Biso   1.000  H
  H10      1.0000 0.53100  0.79220  0.03930  Biso   1.000  H
  H11      1.0000 0.03100  0.70780  0.96070  Biso   1.000  H
  H12      1.0000 0.46900  0.29220  0.46070  Biso   1.000  H
  C29      1.0000 0.39630  0.52310  0.91130  Biso   1.000  C
  C30      1.0000 0.10370  0.47690  0.41130  Biso   1.000  C
  C31      1.0000 0.60370  0.02310  0.58870  Biso   1.000  C
  C32      1.0000 0.89630  0.97690  0.08870  Biso   1.000  C
  H13      1.0000 0.38130  0.61240  0.90610  Biso   1.000  H
  H14      1.0000 0.11870  0.38760  0.40610  Biso   1.000  H
  H15      1.0000 0.61870  0.11240  0.59390  Biso   1.000  H
  H16      1.0000 0.88130  0.88760  0.09390  Biso   1.000  H
  C33      1.0000 0.57310  0.34850  0.91190  Biso   1.000  C
  C34      1.0000 0.92690  0.65150  0.41190  Biso   1.000  C
  C35      1.0000 0.42690  0.84850  0.58810  Biso   1.000  C
  C36      1.0000 0.07310  0.15150  0.08810  Biso   1.000  C
  H17      1.0000 0.68350  0.31200  0.90650  Biso   1.000  H
  H18      1.0000 0.81650  0.68800  0.40650  Biso   1.000  H
  H19      1.0000 0.31650  0.81200  0.59350  Biso   1.000  H
  H20      1.0000 0.18350  0.18800  0.09350  Biso   1.000  H
  N5       1.0000 0.04220  0.20290  0.63904  Biso   1.000  N
  N6       1.0000 0.45780  0.79710  0.13904  Biso   1.000  N
  N7       1.0000 0.95780  0.70290  0.86096  Biso   1.000  N
  N8       1.0000 0.54220  0.29710  0.36096  Biso   1.000  N
  C37      1.0000 0.01220  0.25580  0.70172  Biso   1.000  C
  C38      1.0000 0.48780  0.74420  0.20172  Biso   1.000  C
  C39      1.0000 0.98780  0.75580  0.79828  Biso   1.000  C
  C40      1.0000 0.51220  0.24420  0.29828  Biso   1.000  C
  H21      1.0000 0.07280  0.22410  0.74120  Biso   1.000  H
  H22      1.0000 0.42720  0.77590  0.24120  Biso   1.000  H
  H23      1.0000 0.92720  0.72410  0.75880  Biso   1.000  H
  H24      1.0000 0.57280  0.27590  0.25880  Biso   1.000  H
  C41      1.0000 0.27610  0.32140  0.93500  Biso   1.000  C
  C42      1.0000 0.22390  0.67860  0.43500  Biso   1.000  C
  C43      1.0000 0.72390  0.82140  0.56500  Biso   1.000  C
  C44      1.0000 0.77610  0.17860  0.06500  Biso   1.000  C
  H25      1.0000 0.18030  0.26840  0.94420  Biso   1.000  H
  H26      1.0000 0.31970  0.73160  0.44420  Biso   1.000  H
  H27      1.0000 0.81970  0.76840  0.55580  Biso   1.000  H
  H28      1.0000 0.68030  0.23160  0.05580  Biso   1.000  H
  N9       1.0000 0.65270  0.95430  0.82075  Biso   1.000  N
  N10      1.0000 0.84730  0.04570  0.32075  Biso   1.000  N
  N11      1.0000 0.34730  0.45430  0.67925  Biso   1.000  N
  N12      1.0000 0.15270  0.54570  0.17925  Biso   1.000  N
  C45      1.0000 0.43770  0.27030  0.92910  Biso   1.000  C
  C46      1.0000 0.06230  0.72970  0.42910  Biso   1.000  C
  C47      1.0000 0.56230  0.77030  0.57090  Biso   1.000  C
  C48      1.0000 0.93770  0.22970  0.07090  Biso   1.000  C
  H29      1.0000 0.45580  0.18190  0.93680  Biso   1.000  H
  H30      1.0000 0.04420  0.81810  0.43680  Biso   1.000  H
  H31      1.0000 0.54420  0.68190  0.56320  Biso   1.000  H
  H32      1.0000 0.95580  0.31810  0.06320  Biso   1.000  H
  C49      1.0000 0.58290  0.84640  0.79420  Biso   1.000  C
  C50      1.0000 0.91710  0.15360  0.29420  Biso   1.000  C
  C51      1.0000 0.41710  0.34640  0.70580  Biso   1.000  C
  C52      1.0000 0.08290  0.65360  0.20580  Biso   1.000  C
  C53      1.0000 0.71130  0.96070  0.89300  Biso   1.000  C
  C54      1.0000 0.78870  0.03930  0.39300  Biso   1.000  C
  C55      1.0000 0.28870  0.46070  0.60700  Biso   1.000  C
  C56      1.0000 0.21130  0.53930  0.10700  Biso   1.000  C
  C57      1.0000 0.65380  0.06940  0.77790  Biso   1.000  C
  C58      1.0000 0.84620  0.93060  0.27790  Biso   1.000  C
  C59      1.0000 0.34620  0.56940  0.72210  Biso   1.000  C
  C60      1.0000 0.15380  0.43060  0.22210  Biso   1.000  C
  C61      1.0000 0.63700  0.85750  0.85990  Biso   1.000  C
  C62      1.0000 0.86300  0.14250  0.35990  Biso   1.000  C
  C63      1.0000 0.36300  0.35750  0.64010  Biso   1.000  C
  C64      1.0000 0.13700  0.64250  0.14010  Biso   1.000  C
  C65      1.0000 0.74600  0.07100  0.84910  Biso   1.000  C
  C66      1.0000 0.75400  0.92900  0.34910  Biso   1.000  C
  C67      1.0000 0.25400  0.57100  0.65090  Biso   1.000  C
  C68      1.0000 0.24600  0.42900  0.15090  Biso   1.000  C
  C69      1.0000 0.64400  0.96200  0.74270  Biso   1.000  C
  C70      1.0000 0.85600  0.03800  0.24270  Biso   1.000  C
  C71      1.0000 0.35600  0.46200  0.75730  Biso   1.000  C
  C72      1.0000 0.14400  0.53800  0.25730  Biso   1.000  C
