data_image0
_cell_length_a       10.0877
_cell_length_b       11.596
_cell_length_c       14.6823
_cell_angle_alpha    90
_cell_angle_beta     93.69
_cell_angle_gamma    90

_symmetry_space_group_name_H-M    "P 1"
_symmetry_int_tables_number       1

loop_
  _symmetry_equiv_pos_as_xyz
  'x, y, z'

loop_
  _atom_site_label
  _atom_site_occupancy
  _atom_site_fract_x
  _atom_site_fract_y
  _atom_site_fract_z
  _atom_site_thermal_displace_type
  _atom_site_B_iso_or_equiv
  _atom_site_type_symbol
  Cu1      1.0000 0.01700  0.82837  0.22667  Biso   1.000  Cu
  Cu2      1.0000 0.48300  0.32837  0.27333  Biso   1.000  Cu
  Cu3      1.0000 0.98300  0.17163  0.77333  Biso   1.000  Cu
  Cu4      1.0000 0.51700  0.67163  0.72667  Biso   1.000  Cu
  O1       1.0000 0.81990  0.83754  0.24170  Biso   1.000  O
  O2       1.0000 0.68010  0.33754  0.25830  Biso   1.000  O
  O3       1.0000 0.18010  0.16246  0.75830  Biso   1.000  O
  O4       1.0000 0.31990  0.66246  0.74170  Biso   1.000  O
  O5       1.0000 0.18850  0.90451  0.21827  Biso   1.000  O
  O6       1.0000 0.31150  0.40451  0.28173  Biso   1.000  O
  O7       1.0000 0.81150  0.09549  0.78173  Biso   1.000  O
  O8       1.0000 0.68850  0.59549  0.71827  Biso   1.000  O
  O9       1.0000 0.87950  0.02128  0.25913  Biso   1.000  O
  O10      1.0000 0.62050  0.52128  0.24087  Biso   1.000  O
  O11      1.0000 0.12050  0.97872  0.74087  Biso   1.000  O
  O12      1.0000 0.37950  0.47872  0.75913  Biso   1.000  O
  O13      1.0000 0.32480  0.75352  0.20490  Biso   1.000  O
  O14      1.0000 0.17520  0.25352  0.29510  Biso   1.000  O
  O15      1.0000 0.67520  0.24648  0.79510  Biso   1.000  O
  O16      1.0000 0.82480  0.74648  0.70490  Biso   1.000  O
  N1       1.0000 0.04650  0.82770  0.36585  Biso   1.000  N
  N2       1.0000 0.45350  0.32770  0.13415  Biso   1.000  N
  N3       1.0000 0.95350  0.17230  0.63415  Biso   1.000  N
  N4       1.0000 0.54650  0.67230  0.86585  Biso   1.000  N
  N5       1.0000 0.98710  0.83160  0.08856  Biso   1.000  N
  N6       1.0000 0.51290  0.33160  0.41144  Biso   1.000  N
  N7       1.0000 0.01290  0.16840  0.91144  Biso   1.000  N
  N8       1.0000 0.48710  0.66840  0.58856  Biso   1.000  N
  N9       1.0000 0.49410  0.13000  0.27607  Biso   1.000  N
  N10      1.0000 0.00590  0.63000  0.22393  Biso   1.000  N
  N11      1.0000 0.50590  0.87000  0.72393  Biso   1.000  N
  N12      1.0000 0.99410  0.37000  0.77607  Biso   1.000  N
  C1       1.0000 0.30190  0.85580  0.21880  Biso   1.000  C
  C2       1.0000 0.19810  0.35580  0.28120  Biso   1.000  C
  C3       1.0000 0.69810  0.14420  0.78120  Biso   1.000  C
  C4       1.0000 0.80190  0.64420  0.71880  Biso   1.000  C
  C5       1.0000 0.12670  0.90320  0.41060  Biso   1.000  C
  C6       1.0000 0.37330  0.40320  0.08940  Biso   1.000  C
  C7       1.0000 0.87330  0.09680  0.58940  Biso   1.000  C
  C8       1.0000 0.62670  0.59680  0.91060  Biso   1.000  C
  H1       1.0000 0.17730  0.95470  0.37640  Biso   1.000  H
  H2       1.0000 0.32270  0.45470  0.12360  Biso   1.000  H
  H3       1.0000 0.82270  0.04530  0.62360  Biso   1.000  H
  H4       1.0000 0.67730  0.54530  0.87640  Biso   1.000  H
  C9       1.0000 0.13900  0.90920  0.50510  Biso   1.000  C
  C10      1.0000 0.36100  0.40920  0.99490  Biso   1.000  C
  C11      1.0000 0.86100  0.09080  0.49490  Biso   1.000  C
  C12      1.0000 0.63900  0.59080  0.00510  Biso   1.000  C
  H5       1.0000 0.19870  0.96270  0.53470  Biso   1.000  H
  H6       1.0000 0.30130  0.46270  0.96530  Biso   1.000  H
  H7       1.0000 0.80130  0.03730  0.46530  Biso   1.000  H
  H8       1.0000 0.69870  0.53730  0.03470  Biso   1.000  H
  C13      1.0000 0.06460  0.83740  0.55550  Biso   1.000  C
  C14      1.0000 0.43540  0.33740  0.94450  Biso   1.000  C
  C15      1.0000 0.93540  0.16260  0.44450  Biso   1.000  C
  C16      1.0000 0.56460  0.66260  0.05550  Biso   1.000  C
  H9       1.0000 0.07020  0.84160  0.62020  Biso   1.000  H
  H10      1.0000 0.42980  0.34160  0.87980  Biso   1.000  H
  H11      1.0000 0.92980  0.15840  0.37980  Biso   1.000  H
  H12      1.0000 0.57020  0.65840  0.12020  Biso   1.000  H
  C17      1.0000 0.98220  0.75960  0.51050  Biso   1.000  C
  C18      1.0000 0.51780  0.25960  0.98950  Biso   1.000  C
  C19      1.0000 0.01780  0.24040  0.48950  Biso   1.000  C
  C20      1.0000 0.48220  0.74040  0.01050  Biso   1.000  C
  H13      1.0000 0.92980  0.70810  0.54350  Biso   1.000  H
  H14      1.0000 0.57020  0.20810  0.95650  Biso   1.000  H
  H15      1.0000 0.07020  0.29190  0.45650  Biso   1.000  H
  H16      1.0000 0.42980  0.79190  0.04350  Biso   1.000  H
  C21      1.0000 0.97650  0.75750  0.41650  Biso   1.000  C
  C22      1.0000 0.52350  0.25750  0.08350  Biso   1.000  C
  C23      1.0000 0.02350  0.24250  0.58350  Biso   1.000  C
  C24      1.0000 0.47650  0.74250  0.91650  Biso   1.000  C
  H17      1.0000 0.91930  0.70280  0.38590  Biso   1.000  H
  H18      1.0000 0.58070  0.20280  0.11410  Biso   1.000  H
  H19      1.0000 0.08070  0.29720  0.61410  Biso   1.000  H
  H20      1.0000 0.41930  0.79720  0.88590  Biso   1.000  H
  C25      1.0000 0.79470  0.94500  0.25410  Biso   1.000  C
  C26      1.0000 0.70530  0.44500  0.24590  Biso   1.000  C
  C27      1.0000 0.20530  0.05500  0.74590  Biso   1.000  C
  C28      1.0000 0.29470  0.55500  0.75410  Biso   1.000  C
  C29      1.0000 0.61870  0.08990  0.27760  Biso   1.000  C
  C30      1.0000 0.88130  0.58990  0.22240  Biso   1.000  C
  C31      1.0000 0.38130  0.91010  0.72240  Biso   1.000  C
  C32      1.0000 0.11870  0.41010  0.77760  Biso   1.000  C
  H21      1.0000 0.68920  0.14240  0.29200  Biso   1.000  H
  H22      1.0000 0.81080  0.64240  0.20800  Biso   1.000  H
  H23      1.0000 0.31080  0.85760  0.70800  Biso   1.000  H
  H24      1.0000 0.18920  0.35760  0.79200  Biso   1.000  H
  C33      1.0000 0.65100  0.97640  0.25950  Biso   1.000  C
  C34      1.0000 0.84900  0.47640  0.24050  Biso   1.000  C
  C35      1.0000 0.34900  0.02360  0.74050  Biso   1.000  C
  C36      1.0000 0.15100  0.52360  0.75950  Biso   1.000  C
  C37      1.0000 0.54770  0.89860  0.24070  Biso   1.000  C
  C38      1.0000 0.95230  0.39860  0.25930  Biso   1.000  C
  C39      1.0000 0.45230  0.10140  0.75930  Biso   1.000  C
  C40      1.0000 0.04770  0.60140  0.74070  Biso   1.000  C
  H25      1.0000 0.56600  0.81980  0.22890  Biso   1.000  H
  H26      1.0000 0.93400  0.31980  0.27110  Biso   1.000  H
  H27      1.0000 0.43400  0.18020  0.77110  Biso   1.000  H
  H28      1.0000 0.06600  0.68020  0.72890  Biso   1.000  H
  C41      1.0000 0.41770  0.93780  0.23920  Biso   1.000  C
  C42      1.0000 0.08230  0.43780  0.26080  Biso   1.000  C
  C43      1.0000 0.58230  0.06220  0.76080  Biso   1.000  C
  C44      1.0000 0.91770  0.56220  0.73920  Biso   1.000  C
  C45      1.0000 0.39620  0.05450  0.25710  Biso   1.000  C
  C46      1.0000 0.10380  0.55450  0.24290  Biso   1.000  C
  C47      1.0000 0.60380  0.94550  0.74290  Biso   1.000  C
  C48      1.0000 0.89620  0.44550  0.75710  Biso   1.000  C
  H29      1.0000 0.30720  0.08160  0.25560  Biso   1.000  H
  H30      1.0000 0.19280  0.58160  0.24440  Biso   1.000  H
  H31      1.0000 0.69280  0.91840  0.74440  Biso   1.000  H
  H32      1.0000 0.80720  0.41840  0.75560  Biso   1.000  H
  C49      1.0000 0.88310  0.88180  0.04340  Biso   1.000  C
  C50      1.0000 0.61690  0.38180  0.45660  Biso   1.000  C
  C51      1.0000 0.11690  0.11820  0.95660  Biso   1.000  C
  C52      1.0000 0.38310  0.61820  0.54340  Biso   1.000  C
  H33      1.0000 0.81480  0.91380  0.07720  Biso   1.000  H
  H34      1.0000 0.68520  0.41380  0.42280  Biso   1.000  H
  H35      1.0000 0.18520  0.08620  0.92280  Biso   1.000  H
  H36      1.0000 0.31480  0.58620  0.57720  Biso   1.000  H
  C53      1.0000 0.87170  0.88860  0.94920  Biso   1.000  C
  C54      1.0000 0.62830  0.38860  0.55080  Biso   1.000  C
  C55      1.0000 0.12830  0.11140  0.05080  Biso   1.000  C
  C56      1.0000 0.37170  0.61140  0.44920  Biso   1.000  C
  H37      1.0000 0.79670  0.92540  0.91950  Biso   1.000  H
  H38      1.0000 0.70330  0.42540  0.58050  Biso   1.000  H
  H39      1.0000 0.20330  0.07460  0.08050  Biso   1.000  H
  H40      1.0000 0.29670  0.57460  0.41950  Biso   1.000  H
  C57      1.0000 0.96740  0.84290  0.89880  Biso   1.000  C
  C58      1.0000 0.53260  0.34290  0.60120  Biso   1.000  C
  C59      1.0000 0.03260  0.15710  0.10120  Biso   1.000  C
  C60      1.0000 0.46740  0.65710  0.39880  Biso   1.000  C
  H41      1.0000 0.96060  0.84780  0.83400  Biso   1.000  H
  H42      1.0000 0.53940  0.34780  0.66600  Biso   1.000  H
  H43      1.0000 0.03940  0.15220  0.16600  Biso   1.000  H
  H44      1.0000 0.46060  0.65220  0.33400  Biso   1.000  H
  C61      1.0000 0.07450  0.78910  0.94410  Biso   1.000  C
  C62      1.0000 0.42550  0.28910  0.55590  Biso   1.000  C
  C63      1.0000 0.92550  0.21090  0.05590  Biso   1.000  C
  C64      1.0000 0.57450  0.71090  0.44410  Biso   1.000  C
  H45      1.0000 0.14290  0.75560  0.91130  Biso   1.000  H
  H46      1.0000 0.35710  0.25560  0.58870  Biso   1.000  H
  H47      1.0000 0.85710  0.24440  0.08870  Biso   1.000  H
  H48      1.0000 0.64290  0.74440  0.41130  Biso   1.000  H
  C65      1.0000 0.07970  0.78540  0.03840  Biso   1.000  C
  C66      1.0000 0.42030  0.28540  0.46160  Biso   1.000  C
  C67      1.0000 0.92030  0.21460  0.96160  Biso   1.000  C
  C68      1.0000 0.57970  0.71460  0.53840  Biso   1.000  C
  H49      1.0000 0.15320  0.74780  0.06940  Biso   1.000  H
  H50      1.0000 0.34680  0.24780  0.43060  Biso   1.000  H
  H51      1.0000 0.84680  0.25220  0.93060  Biso   1.000  H
  H52      1.0000 0.65320  0.75220  0.56940  Biso   1.000  H
