data_image0
_cell_length_a       9.156
_cell_length_b       9.156
_cell_length_c       44.51
_cell_angle_alpha    90
_cell_angle_beta     90
_cell_angle_gamma    120

_symmetry_space_group_name_H-M    "P 1"
_symmetry_int_tables_number       1

loop_
  _symmetry_equiv_pos_as_xyz
  'x, y, z'

loop_
  _atom_site_label
  _atom_site_occupancy
  _atom_site_fract_x
  _atom_site_fract_y
  _atom_site_fract_z
  _atom_site_thermal_displace_type
  _atom_site_B_iso_or_equiv
  _atom_site_type_symbol
  Cu1      1.0000 0.50000  0.00000  0.00000  Biso   1.000  Cu
  Cu2      1.0000 0.00000  0.50000  0.00000  Biso   1.000  Cu
  Cu3      1.0000 0.50000  0.50000  0.00000  Biso   1.000  Cu
  Cu4      1.0000 0.16667  0.33333  0.33333  Biso   1.000  Cu
  Cu5      1.0000 0.66667  0.83333  0.33333  Biso   1.000  Cu
  Cu6      1.0000 0.16667  0.83333  0.33333  Biso   1.000  Cu
  Cu7      1.0000 0.83333  0.66667  0.66667  Biso   1.000  Cu
  Cu8      1.0000 0.33333  0.16667  0.66667  Biso   1.000  Cu
  Cu9      1.0000 0.83333  0.16667  0.66667  Biso   1.000  Cu
  O1       1.0000 0.29210  0.78210  0.99987  Biso   1.000  O
  O2       1.0000 0.21790  0.51000  0.99987  Biso   1.000  O
  O3       1.0000 0.49000  0.70790  0.99987  Biso   1.000  O
  O4       1.0000 0.95877  0.11543  0.33320  Biso   1.000  O
  O5       1.0000 0.88457  0.84333  0.33320  Biso   1.000  O
  O6       1.0000 0.15667  0.04123  0.33320  Biso   1.000  O
  O7       1.0000 0.62543  0.44877  0.66654  Biso   1.000  O
  O8       1.0000 0.55123  0.17667  0.66654  Biso   1.000  O
  O9       1.0000 0.82333  0.37457  0.66654  Biso   1.000  O
  O10      1.0000 0.70790  0.21790  0.00013  Biso   1.000  O
  O11      1.0000 0.78210  0.49000  0.00013  Biso   1.000  O
  O12      1.0000 0.51000  0.29210  0.00013  Biso   1.000  O
  O13      1.0000 0.37457  0.55123  0.33346  Biso   1.000  O
  O14      1.0000 0.44877  0.82333  0.33346  Biso   1.000  O
  O15      1.0000 0.17667  0.62543  0.33346  Biso   1.000  O
  O16      1.0000 0.04123  0.88457  0.66680  Biso   1.000  O
  O17      1.0000 0.11543  0.15667  0.66680  Biso   1.000  O
  O18      1.0000 0.84333  0.95877  0.66680  Biso   1.000  O
  Cl1      1.0000 0.00000  0.00000  0.13393  Biso   1.000  Cl
  Cl2      1.0000 0.66667  0.33333  0.46726  Biso   1.000  Cl
  Cl3      1.0000 0.33333  0.66667  0.80060  Biso   1.000  Cl
  Cl4      1.0000 0.00000  0.00000  0.86607  Biso   1.000  Cl
  Cl5      1.0000 0.66667  0.33333  0.19940  Biso   1.000  Cl
  Cl6      1.0000 0.33333  0.66667  0.53274  Biso   1.000  Cl
  N1       1.0000 0.50110  0.99830  0.04490  Biso   1.000  N
  N2       1.0000 0.00170  0.50280  0.04490  Biso   1.000  N
  N3       1.0000 0.49720  0.49890  0.04490  Biso   1.000  N
  N4       1.0000 0.16777  0.33163  0.37823  Biso   1.000  N
  N5       1.0000 0.66837  0.83613  0.37823  Biso   1.000  N
  N6       1.0000 0.16387  0.83223  0.37823  Biso   1.000  N
  N7       1.0000 0.83443  0.66497  0.71157  Biso   1.000  N
  N8       1.0000 0.33503  0.16947  0.71157  Biso   1.000  N
  N9       1.0000 0.83053  0.16557  0.71157  Biso   1.000  N
  N10      1.0000 0.49890  0.00170  0.95510  Biso   1.000  N
  N11      1.0000 0.99830  0.49720  0.95510  Biso   1.000  N
  N12      1.0000 0.50280  0.50110  0.95510  Biso   1.000  N
  N13      1.0000 0.16557  0.33503  0.28843  Biso   1.000  N
  N14      1.0000 0.66497  0.83053  0.28843  Biso   1.000  N
  N15      1.0000 0.16947  0.83443  0.28843  Biso   1.000  N
  N16      1.0000 0.83223  0.66837  0.62177  Biso   1.000  N
  N17      1.0000 0.33163  0.16387  0.62177  Biso   1.000  N
  N18      1.0000 0.83613  0.16777  0.62177  Biso   1.000  N
  C1       1.0000 0.36020  0.92170  0.06090  Biso   1.000  C
  C2       1.0000 0.07830  0.43850  0.06090  Biso   1.000  C
  C3       1.0000 0.56150  0.63980  0.06090  Biso   1.000  C
  C4       1.0000 0.02687  0.25503  0.39423  Biso   1.000  C
  C5       1.0000 0.74497  0.77183  0.39423  Biso   1.000  C
  C6       1.0000 0.22817  0.97313  0.39423  Biso   1.000  C
  C7       1.0000 0.69353  0.58837  0.72757  Biso   1.000  C
  C8       1.0000 0.41163  0.10517  0.72757  Biso   1.000  C
  C9       1.0000 0.89483  0.30647  0.72757  Biso   1.000  C
  C10      1.0000 0.63980  0.07830  0.93910  Biso   1.000  C
  C11      1.0000 0.92170  0.56150  0.93910  Biso   1.000  C
  C12      1.0000 0.43850  0.36020  0.93910  Biso   1.000  C
  C13      1.0000 0.30647  0.41163  0.27243  Biso   1.000  C
  C14      1.0000 0.58837  0.89483  0.27243  Biso   1.000  C
  C15      1.0000 0.10517  0.69353  0.27243  Biso   1.000  C
  C16      1.0000 0.97313  0.74497  0.60577  Biso   1.000  C
  C17      1.0000 0.25503  0.22817  0.60577  Biso   1.000  C
  C18      1.0000 0.77183  0.02687  0.60577  Biso   1.000  C
  H1       1.0000 0.25650  0.86240  0.05030  Biso   1.000  H
  H2       1.0000 0.13760  0.39410  0.05030  Biso   1.000  H
  H3       1.0000 0.60590  0.74350  0.05030  Biso   1.000  H
  H4       1.0000 0.92317  0.19573  0.38363  Biso   1.000  H
  H5       1.0000 0.80427  0.72743  0.38363  Biso   1.000  H
  H6       1.0000 0.27257  0.07683  0.38363  Biso   1.000  H
  H7       1.0000 0.58983  0.52907  0.71697  Biso   1.000  H
  H8       1.0000 0.47093  0.06077  0.71697  Biso   1.000  H
  H9       1.0000 0.93923  0.41017  0.71697  Biso   1.000  H
  H10      1.0000 0.74350  0.13760  0.94970  Biso   1.000  H
  H11      1.0000 0.86240  0.60590  0.94970  Biso   1.000  H
  H12      1.0000 0.39410  0.25650  0.94970  Biso   1.000  H
  H13      1.0000 0.41017  0.47093  0.28303  Biso   1.000  H
  H14      1.0000 0.52907  0.93923  0.28303  Biso   1.000  H
  H15      1.0000 0.06077  0.58983  0.28303  Biso   1.000  H
  H16      1.0000 0.07683  0.80427  0.61637  Biso   1.000  H
  H17      1.0000 0.19573  0.27257  0.61637  Biso   1.000  H
  H18      1.0000 0.72743  0.92317  0.61637  Biso   1.000  H
  C19      1.0000 0.35410  0.92240  0.09150  Biso   1.000  C
  C20      1.0000 0.07760  0.43170  0.09150  Biso   1.000  C
  C21      1.0000 0.56830  0.64590  0.09150  Biso   1.000  C
  C22      1.0000 0.02077  0.25573  0.42483  Biso   1.000  C
  C23      1.0000 0.74427  0.76503  0.42483  Biso   1.000  C
  C24      1.0000 0.23497  0.97923  0.42483  Biso   1.000  C
  C25      1.0000 0.68743  0.58907  0.75817  Biso   1.000  C
  C26      1.0000 0.41093  0.09837  0.75817  Biso   1.000  C
  C27      1.0000 0.90163  0.31257  0.75817  Biso   1.000  C
  C28      1.0000 0.64590  0.07760  0.90850  Biso   1.000  C
  C29      1.0000 0.92240  0.56830  0.90850  Biso   1.000  C
  C30      1.0000 0.43170  0.35410  0.90850  Biso   1.000  C
  C31      1.0000 0.31257  0.41093  0.24183  Biso   1.000  C
  C32      1.0000 0.58907  0.90163  0.24183  Biso   1.000  C
  C33      1.0000 0.09837  0.68743  0.24183  Biso   1.000  C
  C34      1.0000 0.97923  0.74427  0.57517  Biso   1.000  C
  C35      1.0000 0.25573  0.23497  0.57517  Biso   1.000  C
  C36      1.0000 0.76503  0.02077  0.57517  Biso   1.000  C
  H19      1.0000 0.24820  0.86830  0.10140  Biso   1.000  H
  H20      1.0000 0.13170  0.37990  0.10140  Biso   1.000  H
  H21      1.0000 0.62010  0.75180  0.10140  Biso   1.000  H
  H22      1.0000 0.91487  0.20163  0.43473  Biso   1.000  H
  H23      1.0000 0.79837  0.71323  0.43473  Biso   1.000  H
  H24      1.0000 0.28677  0.08513  0.43473  Biso   1.000  H
  H25      1.0000 0.58153  0.53497  0.76807  Biso   1.000  H
  H26      1.0000 0.46503  0.04657  0.76807  Biso   1.000  H
  H27      1.0000 0.95343  0.41847  0.76807  Biso   1.000  H
  H28      1.0000 0.75180  0.13170  0.89860  Biso   1.000  H
  H29      1.0000 0.86830  0.62010  0.89860  Biso   1.000  H
  H30      1.0000 0.37990  0.24820  0.89860  Biso   1.000  H
  H31      1.0000 0.41847  0.46503  0.23193  Biso   1.000  H
  H32      1.0000 0.53497  0.95343  0.23193  Biso   1.000  H
  H33      1.0000 0.04657  0.58153  0.23193  Biso   1.000  H
  H34      1.0000 0.08513  0.79837  0.56527  Biso   1.000  H
  H35      1.0000 0.20163  0.28677  0.56527  Biso   1.000  H
  H36      1.0000 0.71323  0.91487  0.56527  Biso   1.000  H
  C37      1.0000 0.50470  0.00340  0.10830  Biso   1.000  C
  C38      1.0000 0.99660  0.50130  0.10830  Biso   1.000  C
  C39      1.0000 0.49870  0.49530  0.10830  Biso   1.000  C
  C40      1.0000 0.17137  0.33673  0.44163  Biso   1.000  C
  C41      1.0000 0.66327  0.83463  0.44163  Biso   1.000  C
  C42      1.0000 0.16537  0.82863  0.44163  Biso   1.000  C
  C43      1.0000 0.83803  0.67007  0.77497  Biso   1.000  C
  C44      1.0000 0.32993  0.16797  0.77497  Biso   1.000  C
  C45      1.0000 0.83203  0.16197  0.77497  Biso   1.000  C
  C46      1.0000 0.49530  0.99660  0.89170  Biso   1.000  C
  C47      1.0000 0.00340  0.49870  0.89170  Biso   1.000  C
  C48      1.0000 0.50130  0.50470  0.89170  Biso   1.000  C
  C49      1.0000 0.16197  0.32993  0.22503  Biso   1.000  C
  C50      1.0000 0.67007  0.83203  0.22503  Biso   1.000  C
  C51      1.0000 0.16797  0.83803  0.22503  Biso   1.000  C
  C52      1.0000 0.82863  0.66327  0.55837  Biso   1.000  C
  C53      1.0000 0.33673  0.16537  0.55837  Biso   1.000  C
  C54      1.0000 0.83463  0.17137  0.55837  Biso   1.000  C
  N19      1.0000 0.50760  0.01090  0.13840  Biso   1.000  N
  N20      1.0000 0.98910  0.49670  0.13840  Biso   1.000  N
  N21      1.0000 0.50330  0.49240  0.13840  Biso   1.000  N
  N22      1.0000 0.17427  0.34423  0.47173  Biso   1.000  N
  N23      1.0000 0.65577  0.83003  0.47173  Biso   1.000  N
  N24      1.0000 0.16997  0.82573  0.47173  Biso   1.000  N
  N25      1.0000 0.84093  0.67757  0.80507  Biso   1.000  N
  N26      1.0000 0.32243  0.16337  0.80507  Biso   1.000  N
  N27      1.0000 0.83663  0.15907  0.80507  Biso   1.000  N
  N28      1.0000 0.49240  0.98910  0.86160  Biso   1.000  N
  N29      1.0000 0.01090  0.50330  0.86160  Biso   1.000  N
  N30      1.0000 0.49670  0.50760  0.86160  Biso   1.000  N
  N31      1.0000 0.15907  0.32243  0.19493  Biso   1.000  N
  N32      1.0000 0.67757  0.83663  0.19493  Biso   1.000  N
  N33      1.0000 0.16337  0.84093  0.19493  Biso   1.000  N
  N34      1.0000 0.82573  0.65577  0.52827  Biso   1.000  N
  N35      1.0000 0.34423  0.16997  0.52827  Biso   1.000  N
  N36      1.0000 0.83003  0.17427  0.52827  Biso   1.000  N
  H37      1.0000 0.60460  0.06330  0.14790  Biso   1.000  H
  H38      1.0000 0.93670  0.54130  0.14790  Biso   1.000  H
  H39      1.0000 0.45870  0.39540  0.14790  Biso   1.000  H
  H40      1.0000 0.27127  0.39663  0.48123  Biso   1.000  H
  H41      1.0000 0.60337  0.87463  0.48123  Biso   1.000  H
  H42      1.0000 0.12537  0.72873  0.48123  Biso   1.000  H
  H43      1.0000 0.93793  0.72997  0.81457  Biso   1.000  H
  H44      1.0000 0.27003  0.20797  0.81457  Biso   1.000  H
  H45      1.0000 0.79203  0.06207  0.81457  Biso   1.000  H
  H46      1.0000 0.39540  0.93670  0.85210  Biso   1.000  H
  H47      1.0000 0.06330  0.45870  0.85210  Biso   1.000  H
  H48      1.0000 0.54130  0.60460  0.85210  Biso   1.000  H
  H49      1.0000 0.06207  0.27003  0.18543  Biso   1.000  H
  H50      1.0000 0.72997  0.79203  0.18543  Biso   1.000  H
  H51      1.0000 0.20797  0.93793  0.18543  Biso   1.000  H
  H52      1.0000 0.72873  0.60337  0.51877  Biso   1.000  H
  H53      1.0000 0.39663  0.12537  0.51877  Biso   1.000  H
  H54      1.0000 0.87463  0.27127  0.51877  Biso   1.000  H
  H55      1.0000 0.41250  0.96350  0.14850  Biso   1.000  H
  H56      1.0000 0.03650  0.44900  0.14850  Biso   1.000  H
  H57      1.0000 0.55100  0.58750  0.14850  Biso   1.000  H
  H58      1.0000 0.07917  0.29683  0.48183  Biso   1.000  H
  H59      1.0000 0.70317  0.78233  0.48183  Biso   1.000  H
  H60      1.0000 0.21767  0.92083  0.48183  Biso   1.000  H
  H61      1.0000 0.74583  0.63017  0.81517  Biso   1.000  H
  H62      1.0000 0.36983  0.11567  0.81517  Biso   1.000  H
  H63      1.0000 0.88433  0.25417  0.81517  Biso   1.000  H
  H64      1.0000 0.58750  0.03650  0.85150  Biso   1.000  H
  H65      1.0000 0.96350  0.55100  0.85150  Biso   1.000  H
  H66      1.0000 0.44900  0.41250  0.85150  Biso   1.000  H
  H67      1.0000 0.25417  0.36983  0.18483  Biso   1.000  H
  H68      1.0000 0.63017  0.88433  0.18483  Biso   1.000  H
  H69      1.0000 0.11567  0.74583  0.18483  Biso   1.000  H
  H70      1.0000 0.92083  0.70317  0.51817  Biso   1.000  H
  H71      1.0000 0.29683  0.21767  0.51817  Biso   1.000  H
  H72      1.0000 0.78233  0.07917  0.51817  Biso   1.000  H
  C55      1.0000 0.65220  0.07670  0.09160  Biso   1.000  C
  C56      1.0000 0.92330  0.57550  0.09160  Biso   1.000  C
  C57      1.0000 0.42450  0.34780  0.09160  Biso   1.000  C
  C58      1.0000 0.31887  0.41003  0.42493  Biso   1.000  C
  C59      1.0000 0.58997  0.90883  0.42493  Biso   1.000  C
  C60      1.0000 0.09117  0.68113  0.42493  Biso   1.000  C
  C61      1.0000 0.98553  0.74337  0.75827  Biso   1.000  C
  C62      1.0000 0.25663  0.24217  0.75827  Biso   1.000  C
  C63      1.0000 0.75783  0.01447  0.75827  Biso   1.000  C
  C64      1.0000 0.34780  0.92330  0.90840  Biso   1.000  C
  C65      1.0000 0.07670  0.42450  0.90840  Biso   1.000  C
  C66      1.0000 0.57550  0.65220  0.90840  Biso   1.000  C
  C67      1.0000 0.01447  0.25663  0.24173  Biso   1.000  C
  C68      1.0000 0.74337  0.75783  0.24173  Biso   1.000  C
  C69      1.0000 0.24217  0.98553  0.24173  Biso   1.000  C
  C70      1.0000 0.68113  0.58997  0.57507  Biso   1.000  C
  C71      1.0000 0.41003  0.09117  0.57507  Biso   1.000  C
  C72      1.0000 0.90883  0.31887  0.57507  Biso   1.000  C
  H73      1.0000 0.75820  0.12830  0.10150  Biso   1.000  H
  H74      1.0000 0.87170  0.62990  0.10150  Biso   1.000  H
  H75      1.0000 0.37010  0.24180  0.10150  Biso   1.000  H
  H76      1.0000 0.42487  0.46163  0.43483  Biso   1.000  H
  H77      1.0000 0.53837  0.96323  0.43483  Biso   1.000  H
  H78      1.0000 0.03677  0.57513  0.43483  Biso   1.000  H
  H79      1.0000 0.09153  0.79497  0.76817  Biso   1.000  H
  H80      1.0000 0.20503  0.29657  0.76817  Biso   1.000  H
  H81      1.0000 0.70343  0.90847  0.76817  Biso   1.000  H
  H82      1.0000 0.24180  0.87170  0.89850  Biso   1.000  H
  H83      1.0000 0.12830  0.37010  0.89850  Biso   1.000  H
  H84      1.0000 0.62990  0.75820  0.89850  Biso   1.000  H
  H85      1.0000 0.90847  0.20503  0.23183  Biso   1.000  H
  H86      1.0000 0.79497  0.70343  0.23183  Biso   1.000  H
  H87      1.0000 0.29657  0.09153  0.23183  Biso   1.000  H
  H88      1.0000 0.57513  0.53837  0.56517  Biso   1.000  H
  H89      1.0000 0.46163  0.03677  0.56517  Biso   1.000  H
  H90      1.0000 0.96323  0.42487  0.56517  Biso   1.000  H
  C73      1.0000 0.64600  0.07530  0.06050  Biso   1.000  C
  C74      1.0000 0.92470  0.57070  0.06050  Biso   1.000  C
  C75      1.0000 0.42930  0.35400  0.06050  Biso   1.000  C
  C76      1.0000 0.31267  0.40863  0.39383  Biso   1.000  C
  C77      1.0000 0.59137  0.90403  0.39383  Biso   1.000  C
  C78      1.0000 0.09597  0.68733  0.39383  Biso   1.000  C
  C79      1.0000 0.97933  0.74197  0.72717  Biso   1.000  C
  C80      1.0000 0.25803  0.23737  0.72717  Biso   1.000  C
  C81      1.0000 0.76263  0.02067  0.72717  Biso   1.000  C
  C82      1.0000 0.35400  0.92470  0.93950  Biso   1.000  C
  C83      1.0000 0.07530  0.42930  0.93950  Biso   1.000  C
  C84      1.0000 0.57070  0.64600  0.93950  Biso   1.000  C
  C85      1.0000 0.02067  0.25803  0.27283  Biso   1.000  C
  C86      1.0000 0.74197  0.76263  0.27283  Biso   1.000  C
  C87      1.0000 0.23737  0.97933  0.27283  Biso   1.000  C
  C88      1.0000 0.68733  0.59137  0.60617  Biso   1.000  C
  C89      1.0000 0.40863  0.09597  0.60617  Biso   1.000  C
  C90      1.0000 0.90403  0.31267  0.60617  Biso   1.000  C
  H91      1.0000 0.74920  0.13160  0.04970  Biso   1.000  H
  H92      1.0000 0.86840  0.61760  0.04970  Biso   1.000  H
  H93      1.0000 0.38240  0.25080  0.04970  Biso   1.000  H
  H94      1.0000 0.41587  0.46493  0.38303  Biso   1.000  H
  H95      1.0000 0.53507  0.95093  0.38303  Biso   1.000  H
  H96      1.0000 0.04907  0.58413  0.38303  Biso   1.000  H
  H97      1.0000 0.08253  0.79827  0.71637  Biso   1.000  H
  H98      1.0000 0.20173  0.28427  0.71637  Biso   1.000  H
  H99      1.0000 0.71573  0.91747  0.71637  Biso   1.000  H
  H100     1.0000 0.25080  0.86840  0.95030  Biso   1.000  H
  H101     1.0000 0.13160  0.38240  0.95030  Biso   1.000  H
  H102     1.0000 0.61760  0.74920  0.95030  Biso   1.000  H
  H103     1.0000 0.91747  0.20173  0.28363  Biso   1.000  H
  H104     1.0000 0.79827  0.71573  0.28363  Biso   1.000  H
  H105     1.0000 0.28427  0.08253  0.28363  Biso   1.000  H
  H106     1.0000 0.58413  0.53507  0.61697  Biso   1.000  H
  H107     1.0000 0.46493  0.04907  0.61697  Biso   1.000  H
  H108     1.0000 0.95093  0.41587  0.61697  Biso   1.000  H
  C91      1.0000 0.33330  0.66670  0.00040  Biso   1.000  C
  C92      1.0000 0.99997  0.00003  0.33373  Biso   1.000  C
  C93      1.0000 0.66663  0.33337  0.66707  Biso   1.000  C
  C94      1.0000 0.66670  0.33330  0.99960  Biso   1.000  C
  C95      1.0000 0.33337  0.66663  0.33293  Biso   1.000  C
  C96      1.0000 0.00003  0.99997  0.66627  Biso   1.000  C
  O19      1.0000 0.93220  0.10220  0.14493  Biso   1.000  O
  O20      1.0000 0.89780  0.83000  0.14493  Biso   1.000  O
  O21      1.0000 0.17000  0.06780  0.14493  Biso   1.000  O
  O22      1.0000 0.59887  0.43553  0.47826  Biso   1.000  O
  O23      1.0000 0.56447  0.16333  0.47826  Biso   1.000  O
  O24      1.0000 0.83667  0.40113  0.47826  Biso   1.000  O
  O25      1.0000 0.26553  0.76887  0.81160  Biso   1.000  O
  O26      1.0000 0.23113  0.49667  0.81160  Biso   1.000  O
  O27      1.0000 0.50333  0.73447  0.81160  Biso   1.000  O
  O28      1.0000 0.06780  0.89780  0.85507  Biso   1.000  O
  O29      1.0000 0.10220  0.17000  0.85507  Biso   1.000  O
  O30      1.0000 0.83000  0.93220  0.85507  Biso   1.000  O
  O31      1.0000 0.73447  0.23113  0.18840  Biso   1.000  O
  O32      1.0000 0.76887  0.50333  0.18840  Biso   1.000  O
  O33      1.0000 0.49667  0.26553  0.18840  Biso   1.000  O
  O34      1.0000 0.40113  0.56447  0.52174  Biso   1.000  O
  O35      1.0000 0.43553  0.83667  0.52174  Biso   1.000  O
  O36      1.0000 0.16333  0.59887  0.52174  Biso   1.000  O
  O37      1.0000 0.00000  0.00000  0.10220  Biso   1.000  O
  O38      1.0000 0.66667  0.33333  0.43553  Biso   1.000  O
  O39      1.0000 0.33333  0.66667  0.76887  Biso   1.000  O
  O40      1.0000 0.00000  0.00000  0.89780  Biso   1.000  O
  O41      1.0000 0.66667  0.33333  0.23113  Biso   1.000  O
  O42      1.0000 0.33333  0.66667  0.56447  Biso   1.000  O
  C97      1.0000 0.00000  0.00000  0.02100  Biso   1.000  C
  C98      1.0000 0.66667  0.33333  0.35433  Biso   1.000  C
  C99      1.0000 0.33333  0.66667  0.68767  Biso   1.000  C
  C100     1.0000 0.00000  0.00000  0.97900  Biso   1.000  C
  C101     1.0000 0.66667  0.33333  0.31233  Biso   1.000  C
  C102     1.0000 0.33333  0.66667  0.64567  Biso   1.000  C
