data_image0
_cell_length_a       10.214
_cell_length_b       7.125
_cell_length_c       14.425
_cell_angle_alpha    90
_cell_angle_beta     99.98
_cell_angle_gamma    90

_symmetry_space_group_name_H-M    "P 1"
_symmetry_int_tables_number       1

loop_
  _symmetry_equiv_pos_as_xyz
  'x, y, z'

loop_
  _atom_site_label
  _atom_site_occupancy
  _atom_site_fract_x
  _atom_site_fract_y
  _atom_site_fract_z
  _atom_site_thermal_displace_type
  _atom_site_B_iso_or_equiv
  _atom_site_type_symbol
  Cu1      1.0000 0.00000  0.50000  0.00000  Biso   1.000  Cu
  Cu2      1.0000 0.50000  0.00000  0.50000  Biso   1.000  Cu
  O1       1.0000 0.12790  0.70610  0.93880  Biso   1.000  O
  O2       1.0000 0.37210  0.20610  0.56120  Biso   1.000  O
  O3       1.0000 0.87210  0.29390  0.06120  Biso   1.000  O
  O4       1.0000 0.62790  0.79390  0.43880  Biso   1.000  O
  H1       1.0000 0.14780  0.71660  0.88420  Biso   1.000  H
  H2       1.0000 0.35220  0.21660  0.61580  Biso   1.000  H
  H3       1.0000 0.85220  0.28340  0.11580  Biso   1.000  H
  H4       1.0000 0.64780  0.78340  0.38420  Biso   1.000  H
  H5       1.0000 0.14260  0.82390  0.96600  Biso   1.000  H
  H6       1.0000 0.35740  0.32390  0.53400  Biso   1.000  H
  H7       1.0000 0.85740  0.17610  0.03400  Biso   1.000  H
  H8       1.0000 0.64260  0.67610  0.46600  Biso   1.000  H
  O5       1.0000 0.92730  0.72550  0.05937  Biso   1.000  O
  O6       1.0000 0.57270  0.22550  0.44063  Biso   1.000  O
  O7       1.0000 0.07270  0.27450  0.94063  Biso   1.000  O
  O8       1.0000 0.42730  0.77450  0.55937  Biso   1.000  O
  H9       1.0000 0.85850  0.70310  0.08330  Biso   1.000  H
  H10      1.0000 0.64150  0.20310  0.41670  Biso   1.000  H
  H11      1.0000 0.14150  0.29690  0.91670  Biso   1.000  H
  H12      1.0000 0.35850  0.79690  0.58330  Biso   1.000  H
  H13      1.0000 0.91440  0.83120  0.03200  Biso   1.000  H
  H14      1.0000 0.58560  0.33120  0.46800  Biso   1.000  H
  H15      1.0000 0.08560  0.16880  0.96800  Biso   1.000  H
  H16      1.0000 0.41440  0.66880  0.53200  Biso   1.000  H
  N1       1.0000 0.85430  0.51950  0.88501  Biso   1.000  N
  N2       1.0000 0.64570  0.01950  0.61499  Biso   1.000  N
  N3       1.0000 0.14570  0.48050  0.11499  Biso   1.000  N
  N4       1.0000 0.35430  0.98050  0.38501  Biso   1.000  N
  N5       1.0000 0.92830  0.58260  0.60375  Biso   1.000  N
  N6       1.0000 0.57170  0.08260  0.89625  Biso   1.000  N
  N7       1.0000 0.07170  0.41740  0.39625  Biso   1.000  N
  N8       1.0000 0.42830  0.91740  0.10375  Biso   1.000  N
  H17      1.0000 0.98770  0.61370  0.65110  Biso   1.000  H
  H18      1.0000 0.51230  0.11370  0.84890  Biso   1.000  H
  H19      1.0000 0.01230  0.38630  0.34890  Biso   1.000  H
  H20      1.0000 0.48770  0.88630  0.15110  Biso   1.000  H
  O9       1.0000 0.71760  0.48810  0.55451  Biso   1.000  O
  O10      1.0000 0.78240  0.98810  0.94549  Biso   1.000  O
  O11      1.0000 0.28240  0.51190  0.44549  Biso   1.000  O
  O12      1.0000 0.21760  0.01190  0.05451  Biso   1.000  O
  C1       1.0000 0.78220  0.53430  0.71840  Biso   1.000  C
  C2       1.0000 0.71780  0.03430  0.78160  Biso   1.000  C
  C3       1.0000 0.21780  0.46570  0.28160  Biso   1.000  C
  C4       1.0000 0.28220  0.96570  0.21840  Biso   1.000  C
  C5       1.0000 0.88040  0.51840  0.79670  Biso   1.000  C
  C6       1.0000 0.61960  0.01840  0.70330  Biso   1.000  C
  C7       1.0000 0.11960  0.48160  0.20330  Biso   1.000  C
  C8       1.0000 0.38040  0.98160  0.29670  Biso   1.000  C
  H21      1.0000 0.96820  0.50660  0.78810  Biso   1.000  H
  H22      1.0000 0.53180  0.00660  0.71190  Biso   1.000  H
  H23      1.0000 0.03180  0.49340  0.21190  Biso   1.000  H
  H24      1.0000 0.46820  0.99340  0.28810  Biso   1.000  H
  C9       1.0000 0.72790  0.53540  0.89730  Biso   1.000  C
  C10      1.0000 0.77210  0.03540  0.60270  Biso   1.000  C
  C11      1.0000 0.27210  0.46460  0.10270  Biso   1.000  C
  C12      1.0000 0.22790  0.96460  0.39730  Biso   1.000  C
  H25      1.0000 0.70930  0.53690  0.95810  Biso   1.000  H
  H26      1.0000 0.79070  0.03690  0.54190  Biso   1.000  H
  H27      1.0000 0.29070  0.46310  0.04190  Biso   1.000  H
  H28      1.0000 0.20930  0.96310  0.45810  Biso   1.000  H
  C13      1.0000 0.62410  0.54980  0.82210  Biso   1.000  C
  C14      1.0000 0.87590  0.04980  0.67790  Biso   1.000  C
  C15      1.0000 0.37590  0.45020  0.17790  Biso   1.000  C
  C16      1.0000 0.12410  0.95020  0.32210  Biso   1.000  C
  H29      1.0000 0.53700  0.56090  0.83240  Biso   1.000  H
  H30      1.0000 0.96300  0.06090  0.66760  Biso   1.000  H
  H31      1.0000 0.46300  0.43910  0.16760  Biso   1.000  H
  H32      1.0000 0.03700  0.93910  0.33240  Biso   1.000  H
  C17      1.0000 0.65140  0.54770  0.73140  Biso   1.000  C
  C18      1.0000 0.84860  0.04770  0.76860  Biso   1.000  C
  C19      1.0000 0.34860  0.45230  0.26860  Biso   1.000  C
  C20      1.0000 0.15140  0.95230  0.23140  Biso   1.000  C
  H33      1.0000 0.58280  0.55510  0.67990  Biso   1.000  H
  H34      1.0000 0.91720  0.05510  0.82010  Biso   1.000  H
  H35      1.0000 0.41720  0.44490  0.32010  Biso   1.000  H
  H36      1.0000 0.08280  0.94490  0.17990  Biso   1.000  H
  C21      1.0000 0.80860  0.53210  0.61900  Biso   1.000  C
  C22      1.0000 0.69140  0.03210  0.88100  Biso   1.000  C
  C23      1.0000 0.19140  0.46790  0.38100  Biso   1.000  C
  C24      1.0000 0.30860  0.96790  0.11900  Biso   1.000  C
  C25      1.0000 0.96280  0.58730  0.50940  Biso   1.000  C
  C26      1.0000 0.53720  0.08730  0.99060  Biso   1.000  C
  C27      1.0000 0.03720  0.41270  0.49060  Biso   1.000  C
  C28      1.0000 0.46280  0.91270  0.00940  Biso   1.000  C
  H37      1.0000 0.01730  0.69670  0.50370  Biso   1.000  H
  H38      1.0000 0.48270  0.19670  0.99630  Biso   1.000  H
  H39      1.0000 0.98270  0.30330  0.49630  Biso   1.000  H
  H40      1.0000 0.51730  0.80330  0.00370  Biso   1.000  H
  H41      1.0000 0.88220  0.59780  0.46300  Biso   1.000  H
  H42      1.0000 0.61780  0.09780  0.03700  Biso   1.000  H
  H43      1.0000 0.11780  0.40220  0.53700  Biso   1.000  H
  H44      1.0000 0.38220  0.90220  0.96300  Biso   1.000  H
  N9       1.0000 0.27850  0.30610  0.78080  Biso   1.000  N
  N10      1.0000 0.22150  0.80610  0.71920  Biso   1.000  N
  N11      1.0000 0.72150  0.69390  0.21920  Biso   1.000  N
  N12      1.0000 0.77850  0.19390  0.28080  Biso   1.000  N
  O13      1.0000 0.29230  0.32400  0.86780  Biso   1.000  O
  O14      1.0000 0.20770  0.82400  0.63220  Biso   1.000  O
  O15      1.0000 0.70770  0.67600  0.13220  Biso   1.000  O
  O16      1.0000 0.79230  0.17600  0.36780  Biso   1.000  O
  O17      1.0000 0.16900  0.32240  0.73140  Biso   1.000  O
  O18      1.0000 0.33100  0.82240  0.76860  Biso   1.000  O
  O19      1.0000 0.83100  0.67760  0.26860  Biso   1.000  O
  O20      1.0000 0.66900  0.17760  0.23140  Biso   1.000  O
  O21      1.0000 0.37940  0.27410  0.74633  Biso   1.000  O
  O22      1.0000 0.12060  0.77410  0.75367  Biso   1.000  O
  O23      1.0000 0.62060  0.72590  0.25367  Biso   1.000  O
  O24      1.0000 0.87940  0.22590  0.24633  Biso   1.000  O
