data_image0
_cell_length_a       9.279
_cell_length_b       11.73
_cell_length_c       14.71
_cell_angle_alpha    90
_cell_angle_beta     106.96
_cell_angle_gamma    90

_symmetry_space_group_name_H-M    "P 1"
_symmetry_int_tables_number       1

loop_
  _symmetry_equiv_pos_as_xyz
  'x, y, z'

loop_
  _atom_site_label
  _atom_site_occupancy
  _atom_site_fract_x
  _atom_site_fract_y
  _atom_site_fract_z
  _atom_site_thermal_displace_type
  _atom_site_B_iso_or_equiv
  _atom_site_type_symbol
  N1       1.0000 0.28120  0.83471  0.54499  Biso   1.000  N
  N2       1.0000 0.21880  0.33471  0.95501  Biso   1.000  N
  N3       1.0000 0.71880  0.16529  0.45501  Biso   1.000  N
  N4       1.0000 0.78120  0.66529  0.04499  Biso   1.000  N
  S1       1.0000 0.45394  0.70255  0.74154  Biso   1.000  S
  S2       1.0000 0.04606  0.20255  0.75846  Biso   1.000  S
  S3       1.0000 0.54606  0.29745  0.25846  Biso   1.000  S
  S4       1.0000 0.95394  0.79745  0.24154  Biso   1.000  S
  Cu1      1.0000 0.07280  0.88404  0.51707  Biso   1.000  Cu
  Cu2      1.0000 0.42720  0.38404  0.98293  Biso   1.000  Cu
  Cu3      1.0000 0.92720  0.11596  0.48293  Biso   1.000  Cu
  Cu4      1.0000 0.57280  0.61596  0.01707  Biso   1.000  Cu
  Cu5      1.0000 0.00000  0.50000  0.50000  Biso   1.000  Cu
  Cu6      1.0000 0.50000  0.00000  0.00000  Biso   1.000  Cu
  C1       1.0000 0.31410  0.65300  0.63763  Biso   1.000  C
  C2       1.0000 0.18590  0.15300  0.86237  Biso   1.000  C
  C3       1.0000 0.68590  0.34700  0.36237  Biso   1.000  C
  C4       1.0000 0.81410  0.84700  0.13763  Biso   1.000  C
  C5       1.0000 0.32010  0.71275  0.54649  Biso   1.000  C
  C6       1.0000 0.17990  0.21275  0.95351  Biso   1.000  C
  C7       1.0000 0.67990  0.28725  0.45351  Biso   1.000  C
  C8       1.0000 0.82010  0.78725  0.04649  Biso   1.000  C
  H1       1.0000 0.41600  0.70500  0.54340  Biso   1.000  H
  H2       1.0000 0.08400  0.20500  0.95660  Biso   1.000  H
  H3       1.0000 0.58400  0.29500  0.45660  Biso   1.000  H
  H4       1.0000 0.91600  0.79500  0.04340  Biso   1.000  H
  H5       1.0000 0.25100  0.67500  0.49310  Biso   1.000  H
  H6       1.0000 0.24900  0.17500  0.00690  Biso   1.000  H
  H7       1.0000 0.74900  0.32500  0.50690  Biso   1.000  H
  H8       1.0000 0.75100  0.82500  0.99310  Biso   1.000  H
  C9       1.0000 0.39240  0.90469  0.57031  Biso   1.000  C
  C10      1.0000 0.10760  0.40469  0.92969  Biso   1.000  C
  C11      1.0000 0.60760  0.09531  0.42969  Biso   1.000  C
  C12      1.0000 0.89240  0.59531  0.07031  Biso   1.000  C
  H9       1.0000 0.48500  0.87700  0.58460  Biso   1.000  H
  H10      1.0000 0.01500  0.37700  0.91540  Biso   1.000  H
  H11      1.0000 0.51500  0.12300  0.41540  Biso   1.000  H
  H12      1.0000 0.98500  0.62300  0.08460  Biso   1.000  H
  C13      1.0000 0.38870  0.02753  0.58042  Biso   1.000  C
  C14      1.0000 0.11130  0.52753  0.91958  Biso   1.000  C
  C15      1.0000 0.61130  0.97247  0.41958  Biso   1.000  C
  C16      1.0000 0.88870  0.47247  0.08042  Biso   1.000  C
  C17      1.0000 0.52930  0.07905  0.62034  Biso   1.000  C
  C18      1.0000 0.97070  0.57905  0.87966  Biso   1.000  C
  C19      1.0000 0.47070  0.92095  0.37966  Biso   1.000  C
  C20      1.0000 0.02930  0.42095  0.12034  Biso   1.000  C
  H13      1.0000 0.60800  0.03600  0.63600  Biso   1.000  H
  H14      1.0000 0.89200  0.53600  0.86400  Biso   1.000  H
  H15      1.0000 0.39200  0.96400  0.36400  Biso   1.000  H
  H16      1.0000 0.10800  0.46400  0.13600  Biso   1.000  H
  C21      1.0000 0.54360  0.19563  0.63216  Biso   1.000  C
  C22      1.0000 0.95640  0.69563  0.86784  Biso   1.000  C
  C23      1.0000 0.45640  0.80437  0.36784  Biso   1.000  C
  C24      1.0000 0.04360  0.30437  0.13216  Biso   1.000  C
  H17      1.0000 0.64200  0.22400  0.66000  Biso   1.000  H
  H18      1.0000 0.85800  0.72400  0.84000  Biso   1.000  H
  H19      1.0000 0.35800  0.77600  0.34000  Biso   1.000  H
  H20      1.0000 0.14200  0.27600  0.16000  Biso   1.000  H
  C25      1.0000 0.41550  0.26258  0.60270  Biso   1.000  C
  C26      1.0000 0.08450  0.76258  0.89730  Biso   1.000  C
  C27      1.0000 0.58450  0.73742  0.39730  Biso   1.000  C
  C28      1.0000 0.91550  0.23742  0.10270  Biso   1.000  C
  H21      1.0000 0.42000  0.34000  0.60900  Biso   1.000  H
  H22      1.0000 0.08000  0.84000  0.89100  Biso   1.000  H
  H23      1.0000 0.58000  0.66000  0.39100  Biso   1.000  H
  H24      1.0000 0.92000  0.16000  0.10900  Biso   1.000  H
  C29      1.0000 0.27250  0.21571  0.56222  Biso   1.000  C
  C30      1.0000 0.22750  0.71571  0.93778  Biso   1.000  C
  C31      1.0000 0.72750  0.78429  0.43778  Biso   1.000  C
  C32      1.0000 0.77250  0.28429  0.06222  Biso   1.000  C
  C33      1.0000 0.25630  0.09591  0.55107  Biso   1.000  C
  C34      1.0000 0.24370  0.59591  0.94893  Biso   1.000  C
  C35      1.0000 0.74370  0.90409  0.44893  Biso   1.000  C
  C36      1.0000 0.75630  0.40409  0.05107  Biso   1.000  C
  C37      1.0000 0.14470  0.29729  0.53225  Biso   1.000  C
  C38      1.0000 0.35530  0.79729  0.96775  Biso   1.000  C
  C39      1.0000 0.85530  0.70271  0.46775  Biso   1.000  C
  C40      1.0000 0.64470  0.20271  0.03225  Biso   1.000  C
  O1       1.0000 0.96341  0.48858  0.62272  Biso   1.000  O
  O2       1.0000 0.53659  0.98858  0.87728  Biso   1.000  O
  O3       1.0000 0.03659  0.51142  0.37728  Biso   1.000  O
  O4       1.0000 0.46341  0.01142  0.12272  Biso   1.000  O
  O5       1.0000 0.17611  0.40316  0.54423  Biso   1.000  O
  O6       1.0000 0.32389  0.90316  0.95577  Biso   1.000  O
  O7       1.0000 0.82389  0.59684  0.45577  Biso   1.000  O
  O8       1.0000 0.67611  0.09684  0.04423  Biso   1.000  O
  O9       1.0000 0.99076  0.73255  0.50496  Biso   1.000  O
  O10      1.0000 0.50924  0.23255  0.99504  Biso   1.000  O
  O11      1.0000 0.00924  0.26745  0.49504  Biso   1.000  O
  O12      1.0000 0.49076  0.76745  0.00496  Biso   1.000  O
  O13      1.0000 0.09661  0.89196  0.68447  Biso   1.000  O
  O14      1.0000 0.40339  0.39196  0.81553  Biso   1.000  O
  O15      1.0000 0.90339  0.10804  0.31553  Biso   1.000  O
  O16      1.0000 0.59661  0.60804  0.18447  Biso   1.000  O
  H25      1.0000 0.17600  0.87400  0.71400  Biso   1.000  H
  H26      1.0000 0.32400  0.37400  0.78600  Biso   1.000  H
  H27      1.0000 0.82400  0.12600  0.28600  Biso   1.000  H
  H28      1.0000 0.67600  0.62600  0.21400  Biso   1.000  H
  O17      1.0000 0.12418  0.04560  0.51374  Biso   1.000  O
  O18      1.0000 0.37582  0.54560  0.98626  Biso   1.000  O
  O19      1.0000 0.87582  0.95440  0.48626  Biso   1.000  O
  O20      1.0000 0.62418  0.45440  0.01374  Biso   1.000  O
  O21      1.0000 0.46040  0.61958  0.81617  Biso   1.000  O
  O22      1.0000 0.03960  0.11958  0.68383  Biso   1.000  O
  O23      1.0000 0.53960  0.38042  0.18383  Biso   1.000  O
  O24      1.0000 0.96040  0.88042  0.31617  Biso   1.000  O
  O25      1.0000 0.59447  0.70925  0.71583  Biso   1.000  O
  O26      1.0000 0.90553  0.20925  0.78417  Biso   1.000  O
  O27      1.0000 0.40553  0.29075  0.28417  Biso   1.000  O
  O28      1.0000 0.09447  0.79075  0.21583  Biso   1.000  O
  O29      1.0000 0.40308  0.81475  0.76345  Biso   1.000  O
  O30      1.0000 0.09692  0.31475  0.73655  Biso   1.000  O
  O31      1.0000 0.59692  0.18525  0.23655  Biso   1.000  O
  O32      1.0000 0.90308  0.68525  0.26345  Biso   1.000  O
  O33      1.0000 0.79430  0.87654  0.68752  Biso   1.000  O
  O34      1.0000 0.70570  0.37654  0.81248  Biso   1.000  O
  O35      1.0000 0.20570  0.12346  0.31248  Biso   1.000  O
  O36      1.0000 0.29430  0.62346  0.18752  Biso   1.000  O
  H29      1.0000 0.76100  0.81500  0.69100  Biso   1.000  H
  H30      1.0000 0.73900  0.31500  0.80900  Biso   1.000  H
  H31      1.0000 0.23900  0.18500  0.30900  Biso   1.000  H
  H32      1.0000 0.26100  0.68500  0.19100  Biso   1.000  H
  O37      1.0000 0.80360  0.00377  0.84825  Biso   1.000  O
  O38      1.0000 0.69640  0.50377  0.65175  Biso   1.000  O
  O39      1.0000 0.19640  0.99623  0.15175  Biso   1.000  O
  O40      1.0000 0.30360  0.49623  0.34825  Biso   1.000  O
  H33      1.0000 0.82400  0.06400  0.83600  Biso   1.000  H
  H34      1.0000 0.67600  0.56400  0.66400  Biso   1.000  H
  H35      1.0000 0.17600  0.93600  0.16400  Biso   1.000  H
  H36      1.0000 0.32400  0.43600  0.33600  Biso   1.000  H
  H37      1.0000 0.80400  0.96700  0.80600  Biso   1.000  H
  H38      1.0000 0.69600  0.46700  0.69400  Biso   1.000  H
  H39      1.0000 0.19600  0.03300  0.19400  Biso   1.000  H
  H40      1.0000 0.30400  0.53300  0.30600  Biso   1.000  H
  H41      1.0000 0.22200  0.66100  0.64920  Biso   1.000  H
  H42      1.0000 0.27800  0.16100  0.85080  Biso   1.000  H
  H43      1.0000 0.77800  0.33900  0.35080  Biso   1.000  H
  H44      1.0000 0.72200  0.83900  0.14920  Biso   1.000  H
  H45      1.0000 0.33300  0.57100  0.63140  Biso   1.000  H
  H46      1.0000 0.16700  0.07100  0.86860  Biso   1.000  H
  H47      1.0000 0.66700  0.42900  0.36860  Biso   1.000  H
  H48      1.0000 0.83300  0.92900  0.13140  Biso   1.000  H
  H49      1.0000 0.88000  0.86000  0.69200  Biso   1.000  H
  H50      1.0000 0.62000  0.36000  0.80800  Biso   1.000  H
  H51      1.0000 0.12000  0.14000  0.30800  Biso   1.000  H
  H52      1.0000 0.38000  0.64000  0.19200  Biso   1.000  H
  H53      1.0000 0.09400  0.96200  0.69100  Biso   1.000  H
  H54      1.0000 0.40600  0.46200  0.80900  Biso   1.000  H
  H55      1.0000 0.90600  0.03800  0.30900  Biso   1.000  H
  H56      1.0000 0.59400  0.53800  0.19100  Biso   1.000  H
