data_image0
_cell_length_a       6.311
_cell_length_b       23.119
_cell_length_c       14.064
_cell_angle_alpha    90
_cell_angle_beta     93.42
_cell_angle_gamma    90

_symmetry_space_group_name_H-M    "P 1"
_symmetry_int_tables_number       1

loop_
  _symmetry_equiv_pos_as_xyz
  'x, y, z'

loop_
  _atom_site_label
  _atom_site_occupancy
  _atom_site_fract_x
  _atom_site_fract_y
  _atom_site_fract_z
  _atom_site_thermal_displace_type
  _atom_site_B_iso_or_equiv
  _atom_site_type_symbol
  Cu1      1.0000 0.43170  0.95850  0.87140  Biso   1.000  Cu
  Cu2      1.0000 0.56830  0.45850  0.12860  Biso   1.000  Cu
  Cu3      1.0000 0.92950  0.97170  0.87050  Biso   1.000  Cu
  Cu4      1.0000 0.07050  0.47170  0.12950  Biso   1.000  Cu
  O1       1.0000 0.50360  0.03980  0.87460  Biso   1.000  O
  O2       1.0000 0.49640  0.53980  0.12540  Biso   1.000  O
  O3       1.0000 0.84620  0.05190  0.85680  Biso   1.000  O
  O4       1.0000 0.15380  0.55190  0.14320  Biso   1.000  O
  C1       1.0000 0.66230  0.06980  0.86660  Biso   1.000  C
  C2       1.0000 0.33770  0.56980  0.13340  Biso   1.000  C
  C3       1.0000 0.62340  0.13490  0.85550  Biso   1.000  C
  C4       1.0000 0.37660  0.63490  0.14450  Biso   1.000  C
  C5       1.0000 0.75190  0.16910  0.93150  Biso   1.000  C
  C6       1.0000 0.24810  0.66910  0.06850  Biso   1.000  C
  N1       1.0000 0.39320  0.14790  0.86120  Biso   1.000  N
  N2       1.0000 0.60680  0.64790  0.13880  Biso   1.000  N
  O5       1.0000 0.34930  0.87800  0.87340  Biso   1.000  O
  O6       1.0000 0.65070  0.37800  0.12660  Biso   1.000  O
  O7       1.0000 0.99320  0.89030  0.88530  Biso   1.000  O
  O8       1.0000 0.00680  0.39030  0.11470  Biso   1.000  O
  C7       1.0000 0.16290  0.86030  0.88020  Biso   1.000  C
  C8       1.0000 0.83710  0.36030  0.11980  Biso   1.000  C
  C9       1.0000 0.12560  0.79540  0.89260  Biso   1.000  C
  C10      1.0000 0.87440  0.29540  0.10740  Biso   1.000  C
  C11      1.0000 0.23150  0.76050  0.81670  Biso   1.000  C
  C12      1.0000 0.76850  0.26050  0.18330  Biso   1.000  C
  N3       1.0000 0.89370  0.78280  0.88800  Biso   1.000  N
  N4       1.0000 0.10630  0.28280  0.11200  Biso   1.000  N
  O9       1.0000 0.72010  0.94810  0.76730  Biso   1.000  O
  O10      1.0000 0.27990  0.44810  0.23270  Biso   1.000  O
  O11      1.0000 0.22390  0.97710  0.76410  Biso   1.000  O
  O12      1.0000 0.77610  0.47710  0.23590  Biso   1.000  O
  O13      1.0000 0.65010  0.94610  0.97520  Biso   1.000  O
  O14      1.0000 0.34990  0.44610  0.02480  Biso   1.000  O
  O15      1.0000 0.13770  0.98800  0.97690  Biso   1.000  O
  O16      1.0000 0.86230  0.48800  0.02310  Biso   1.000  O
  Cu5      1.0000 0.90160  0.96450  0.37570  Biso   1.000  Cu
  Cu6      1.0000 0.09840  0.46450  0.62430  Biso   1.000  Cu
  Cu7      1.0000 0.40300  0.96050  0.37680  Biso   1.000  Cu
  Cu8      1.0000 0.59700  0.46050  0.62320  Biso   1.000  Cu
  O17      1.0000 0.48380  0.04140  0.37870  Biso   1.000  O
  O18      1.0000 0.51620  0.54140  0.62130  Biso   1.000  O
  O19      1.0000 0.83040  0.04670  0.36130  Biso   1.000  O
  O20      1.0000 0.16960  0.54670  0.63870  Biso   1.000  O
  C13      1.0000 0.63710  0.06780  0.37440  Biso   1.000  C
  C14      1.0000 0.36290  0.56780  0.62560  Biso   1.000  C
  C15      1.0000 0.62850  0.13280  0.35390  Biso   1.000  C
  C16      1.0000 0.37150  0.63280  0.64610  Biso   1.000  C
  C17      1.0000 0.76880  0.16640  0.42630  Biso   1.000  C
  C18      1.0000 0.23120  0.66640  0.57370  Biso   1.000  C
  N5       1.0000 0.40560  0.15390  0.35490  Biso   1.000  N
  N6       1.0000 0.59440  0.65390  0.64510  Biso   1.000  N
  O21      1.0000 0.96520  0.88250  0.38860  Biso   1.000  O
  O22      1.0000 0.03480  0.38250  0.61140  Biso   1.000  O
  O23      1.0000 0.31870  0.88050  0.37940  Biso   1.000  O
  O24      1.0000 0.68130  0.38050  0.62060  Biso   1.000  O
  C19      1.0000 0.15650  0.85730  0.37520  Biso   1.000  C
  C20      1.0000 0.84350  0.35730  0.62480  Biso   1.000  C
  C21      1.0000 0.14100  0.79130  0.38140  Biso   1.000  C
  C22      1.0000 0.85900  0.29130  0.61860  Biso   1.000  C
  C23      1.0000 0.25290  0.76230  0.30100  Biso   1.000  C
  C24      1.0000 0.74710  0.26230  0.69900  Biso   1.000  C
  N7       1.0000 0.91410  0.77320  0.37770  Biso   1.000  N
  N8       1.0000 0.08590  0.27320  0.62230  Biso   1.000  N
  O25      1.0000 0.61710  0.94410  0.48090  Biso   1.000  O
  O26      1.0000 0.38290  0.44410  0.51910  Biso   1.000  O
  O27      1.0000 0.68890  0.94360  0.27290  Biso   1.000  O
  O28      1.0000 0.31110  0.44360  0.72710  Biso   1.000  O
  O29      1.0000 0.18680  0.97740  0.27070  Biso   1.000  O
  O30      1.0000 0.81320  0.47740  0.72930  Biso   1.000  O
  O31      1.0000 0.11490  0.98150  0.48210  Biso   1.000  O
  O32      1.0000 0.88510  0.48150  0.51790  Biso   1.000  O
  S1       1.0000 0.70540  0.81380  0.62570  Biso   1.000  S
  S2       1.0000 0.29460  0.31380  0.37430  Biso   1.000  S
  O33      1.0000 0.55030  0.84850  0.57400  Biso   1.000  O
  O34      1.0000 0.44970  0.34850  0.42600  Biso   1.000  O
  O35      1.0000 0.81680  0.84760  0.69920  Biso   1.000  O
  O36      1.0000 0.18320  0.34760  0.30080  Biso   1.000  O
  O37      1.0000 0.85490  0.78980  0.55980  Biso   1.000  O
  O38      1.0000 0.14510  0.28980  0.44020  Biso   1.000  O
  O39      1.0000 0.61730  0.76890  0.66960  Biso   1.000  O
  O40      1.0000 0.38270  0.26890  0.33040  Biso   1.000  O
  S3       1.0000 0.81330  0.61220  0.37700  Biso   1.000  S
  S4       1.0000 0.18670  0.11220  0.62300  Biso   1.000  S
  O41      1.0000 0.66330  0.57640  0.31480  Biso   1.000  O
  O42      1.0000 0.33670  0.07640  0.68520  Biso   1.000  O
  O43      1.0000 0.91600  0.65510  0.31540  Biso   1.000  O
  O44      1.0000 0.08400  0.15510  0.68460  Biso   1.000  O
  O45      1.0000 0.68640  0.64040  0.44690  Biso   1.000  O
  O46      1.0000 0.31360  0.14040  0.55310  Biso   1.000  O
  O47      1.0000 0.96880  0.57300  0.42530  Biso   1.000  O
  O48      1.0000 0.03120  0.07300  0.57470  Biso   1.000  O
  S5       1.0000 0.83510  0.61140  0.87660  Biso   1.000  S
  S6       1.0000 0.16490  0.11140  0.12340  Biso   1.000  S
  O49      1.0000 0.70920  0.57520  0.80650  Biso   1.000  O
  O50      1.0000 0.29080  0.07520  0.19350  Biso   1.000  O
  O51      1.0000 0.05190  0.60430  0.86900  Biso   1.000  O
  O52      1.0000 0.94810  0.10430  0.13100  Biso   1.000  O
  O53      1.0000 0.77060  0.59340  0.97310  Biso   1.000  O
  O54      1.0000 0.22940  0.09340  0.02690  Biso   1.000  O
  O55      1.0000 0.78820  0.67180  0.86400  Biso   1.000  O
  O56      1.0000 0.21180  0.17180  0.13600  Biso   1.000  O
  S7       1.0000 0.66470  0.81670  0.12170  Biso   1.000  S
  S8       1.0000 0.33530  0.31670  0.87830  Biso   1.000  S
  O57      1.0000 0.73210  0.75680  0.11460  Biso   1.000  O
  O58      1.0000 0.26790  0.25680  0.88540  Biso   1.000  O
  O59      1.0000 0.77870  0.85170  0.05600  Biso   1.000  O
  O60      1.0000 0.22130  0.35170  0.94400  Biso   1.000  O
  O61      1.0000 0.43640  0.82700  0.09800  Biso   1.000  O
  O62      1.0000 0.56360  0.32700  0.90200  Biso   1.000  O
  O63      1.0000 0.72420  0.83710  0.21810  Biso   1.000  O
  O64      1.0000 0.27580  0.33710  0.78190  Biso   1.000  O
  O65      1.0000 0.31760  0.52410  0.37850  Biso   1.000  O
  O66      1.0000 0.68240  0.02410  0.62150  Biso   1.000  O
  O67      1.0000 0.33900  0.52220  0.87550  Biso   1.000  O
  O68      1.0000 0.66100  0.02220  0.12450  Biso   1.000  O
  O69      1.0000 0.17360  0.90340  0.62250  Biso   1.000  O
  O70      1.0000 0.82640  0.40340  0.37750  Biso   1.000  O
  O71      1.0000 0.14880  0.90990  0.11940  Biso   1.000  O
  O72      1.0000 0.85120  0.40990  0.88060  Biso   1.000  O
