data_image0
_cell_length_a       10.364
_cell_length_b       20.041
_cell_length_c       15.393
_cell_angle_alpha    90
_cell_angle_beta     98.08
_cell_angle_gamma    90

_symmetry_space_group_name_H-M    "P 1"
_symmetry_int_tables_number       1

loop_
  _symmetry_equiv_pos_as_xyz
  'x, y, z'

loop_
  _atom_site_label
  _atom_site_occupancy
  _atom_site_fract_x
  _atom_site_fract_y
  _atom_site_fract_z
  _atom_site_thermal_displace_type
  _atom_site_B_iso_or_equiv
  _atom_site_type_symbol
  Cu1      1.0000 0.77375  0.43914  0.77575  Biso   1.000  Cu
  Cu2      1.0000 0.22625  0.93914  0.22425  Biso   1.000  Cu
  Cu3      1.0000 0.12862  0.50352  0.75906  Biso   1.000  Cu
  Cu4      1.0000 0.87138  0.00352  0.24094  Biso   1.000  Cu
  N1       1.0000 0.76510  0.45020  0.90760  Biso   1.000  N
  N2       1.0000 0.23490  0.95020  0.09240  Biso   1.000  N
  N3       1.0000 0.75520  0.41630  0.23070  Biso   1.000  N
  N4       1.0000 0.24480  0.91630  0.76930  Biso   1.000  N
  N5       1.0000 0.75760  0.44080  0.31880  Biso   1.000  N
  N6       1.0000 0.24240  0.94080  0.68120  Biso   1.000  N
  N7       1.0000 0.77200  0.42560  0.64610  Biso   1.000  N
  N8       1.0000 0.22800  0.92560  0.35390  Biso   1.000  N
  N9       1.0000 0.13960  0.51430  0.89240  Biso   1.000  N
  N10      1.0000 0.86040  0.01430  0.10760  Biso   1.000  N
  N11      1.0000 0.09210  0.50170  0.21210  Biso   1.000  N
  N12      1.0000 0.90790  0.00170  0.78790  Biso   1.000  N
  N13      1.0000 0.09540  0.52120  0.29860  Biso   1.000  N
  N14      1.0000 0.90460  0.02120  0.70140  Biso   1.000  N
  N15      1.0000 0.10180  0.49120  0.62650  Biso   1.000  N
  N16      1.0000 0.89820  0.99120  0.37350  Biso   1.000  N
  N17      1.0000 0.41760  0.39770  0.09190  Biso   1.000  N
  N18      1.0000 0.58240  0.89770  0.90810  Biso   1.000  N
  N19      1.0000 0.45250  0.49580  0.17180  Biso   1.000  N
  N20      1.0000 0.54750  0.99580  0.82820  Biso   1.000  N
  H1       1.0000 0.46170  0.51540  0.22190  Biso   1.000  H
  H2       1.0000 0.53830  0.01540  0.77810  Biso   1.000  H
  N21      1.0000 0.44560  0.54800  0.49230  Biso   1.000  N
  N22      1.0000 0.55440  0.04800  0.50770  Biso   1.000  N
  N23      1.0000 0.40800  0.45440  0.40190  Biso   1.000  N
  N24      1.0000 0.59200  0.95440  0.59810  Biso   1.000  N
  H3       1.0000 0.39840  0.43710  0.35030  Biso   1.000  H
  H4       1.0000 0.60160  0.93710  0.64970  Biso   1.000  H
  O1       1.0000 0.16650  0.40820  0.77490  Biso   1.000  O
  O2       1.0000 0.83350  0.90820  0.22510  Biso   1.000  O
  O3       1.0000 0.30260  0.32630  0.70140  Biso   1.000  O
  O4       1.0000 0.69740  0.82630  0.29860  Biso   1.000  O
  O5       1.0000 0.40980  0.41590  0.80170  Biso   1.000  O
  O6       1.0000 0.59020  0.91590  0.19830  Biso   1.000  O
  O7       1.0000 0.28560  0.32230  0.86360  Biso   1.000  O
  O8       1.0000 0.71440  0.82230  0.13640  Biso   1.000  O
  O9       1.0000 0.47100  0.29730  0.02660  Biso   1.000  O
  O10      1.0000 0.52900  0.79730  0.97340  Biso   1.000  O
  O11      1.0000 0.30700  0.18590  0.08040  Biso   1.000  O
  O12      1.0000 0.69300  0.68590  0.91960  Biso   1.000  O
  H5       1.0000 0.24240  0.17910  0.10450  Biso   1.000  H
  H6       1.0000 0.75760  0.67910  0.89550  Biso   1.000  H
  O13      1.0000 0.17850  0.30720  0.12240  Biso   1.000  O
  O14      1.0000 0.82150  0.80720  0.87760  Biso   1.000  O
  H7       1.0000 0.10370  0.29580  0.10380  Biso   1.000  H
  H8       1.0000 0.89630  0.79580  0.89620  Biso   1.000  H
  O15      1.0000 0.41500  0.39690  0.23810  Biso   1.000  O
  O16      1.0000 0.58500  0.89690  0.76190  Biso   1.000  O
  O17      1.0000 0.49400  0.59470  0.11110  Biso   1.000  O
  O18      1.0000 0.50600  0.09470  0.88890  Biso   1.000  O
  O19      1.0000 0.85530  0.52270  0.77230  Biso   1.000  O
  O20      1.0000 0.14470  0.02270  0.22770  Biso   1.000  O
  O21      1.0000 0.04610  0.59170  0.74550  Biso   1.000  O
  O22      1.0000 0.95390  0.09170  0.25450  Biso   1.000  O
  O23      1.0000 0.89580  0.63720  0.84830  Biso   1.000  O
  O24      1.0000 0.10420  0.13720  0.15170  Biso   1.000  O
  O25      1.0000 0.82830  0.62960  0.68380  Biso   1.000  O
  O26      1.0000 0.17170  0.12960  0.31620  Biso   1.000  O
  O27      1.0000 0.48870  0.75640  0.52250  Biso   1.000  O
  O28      1.0000 0.51130  0.25640  0.47750  Biso   1.000  O
  H9       1.0000 0.53740  0.78840  0.53390  Biso   1.000  H
  H10      1.0000 0.46260  0.28840  0.46610  Biso   1.000  H
  O29      1.0000 0.29230  0.67550  0.53410  Biso   1.000  O
  O30      1.0000 0.70770  0.17550  0.46590  Biso   1.000  O
  H11      1.0000 0.25260  0.68250  0.57560  Biso   1.000  H
  H12      1.0000 0.74740  0.18250  0.42440  Biso   1.000  H
  O31      1.0000 0.61630  0.61630  0.54660  Biso   1.000  O
  O32      1.0000 0.38370  0.11630  0.45340  Biso   1.000  O
  O33      1.0000 0.46060  0.55200  0.34440  Biso   1.000  O
  O34      1.0000 0.53940  0.05200  0.65560  Biso   1.000  O
  O35      1.0000 0.63140  0.37400  0.77400  Biso   1.000  O
  O36      1.0000 0.36860  0.87400  0.22600  Biso   1.000  O
  H13      1.0000 0.62090  0.35260  0.72580  Biso   1.000  H
  H14      1.0000 0.37910  0.85260  0.27420  Biso   1.000  H
  H15      1.0000 0.56040  0.39340  0.78040  Biso   1.000  H
  H16      1.0000 0.43960  0.89340  0.21960  Biso   1.000  H
  O37      1.0000 0.92640  0.36020  0.80020  Biso   1.000  O
  O38      1.0000 0.07360  0.86020  0.19980  Biso   1.000  O
  H17      1.0000 0.00440  0.37130  0.79580  Biso   1.000  H
  H18      1.0000 0.99560  0.87130  0.20420  Biso   1.000  H
  H19      1.0000 0.92770  0.32380  0.82870  Biso   1.000  H
  H20      1.0000 0.07230  0.82380  0.17130  Biso   1.000  H
  O39      1.0000 0.35580  0.35480  0.45110  Biso   1.000  O
  O40      1.0000 0.64420  0.85480  0.54890  Biso   1.000  O
  O41      1.0000 0.34140  0.54100  0.75550  Biso   1.000  O
  O42      1.0000 0.65860  0.04100  0.24450  Biso   1.000  O
  H21      1.0000 0.39520  0.51250  0.78010  Biso   1.000  H
  H22      1.0000 0.60480  0.01250  0.21990  Biso   1.000  H
  H23      1.0000 0.35430  0.57790  0.78270  Biso   1.000  H
  H24      1.0000 0.64570  0.07790  0.21730  Biso   1.000  H
  P1       1.0000 0.29300  0.36988  0.77928  Biso   1.000  P
  P2       1.0000 0.70700  0.86988  0.22072  Biso   1.000  P
  P3       1.0000 0.90790  0.59425  0.76776  Biso   1.000  P
  P4       1.0000 0.09210  0.09425  0.23224  Biso   1.000  P
  C1       1.0000 0.76010  0.39580  0.95660  Biso   1.000  C
  C2       1.0000 0.23990  0.89580  0.04340  Biso   1.000  C
  H25      1.0000 0.75580  0.35430  0.92910  Biso   1.000  H
  H26      1.0000 0.24420  0.85430  0.07090  Biso   1.000  H
  C3       1.0000 0.76120  0.39810  0.04510  Biso   1.000  C
  C4       1.0000 0.23880  0.89810  0.95490  Biso   1.000  C
  H27      1.0000 0.75640  0.35900  0.07680  Biso   1.000  H
  H28      1.0000 0.24360  0.85900  0.92320  Biso   1.000  H
  C5       1.0000 0.77450  0.50800  0.94860  Biso   1.000  C
  C6       1.0000 0.22550  0.00800  0.05140  Biso   1.000  C
  H29      1.0000 0.77810  0.54650  0.91540  Biso   1.000  H
  H30      1.0000 0.22190  0.04650  0.08460  Biso   1.000  H
  C7       1.0000 0.77910  0.51440  0.03720  Biso   1.000  C
  C8       1.0000 0.22090  0.01440  0.96280  Biso   1.000  C
  H31      1.0000 0.78890  0.55640  0.06320  Biso   1.000  H
  H32      1.0000 0.21110  0.05640  0.93680  Biso   1.000  H
  C9       1.0000 0.76930  0.45910  0.08740  Biso   1.000  C
  C10      1.0000 0.23070  0.95910  0.91260  Biso   1.000  C
  C11      1.0000 0.77060  0.46480  0.18270  Biso   1.000  C
  C12      1.0000 0.22940  0.96480  0.81730  Biso   1.000  C
  H33      1.0000 0.78350  0.50670  0.20840  Biso   1.000  H
  H34      1.0000 0.21650  0.00670  0.79160  Biso   1.000  H
  C13      1.0000 0.74510  0.39010  0.36860  Biso   1.000  C
  C14      1.0000 0.25490  0.89010  0.63140  Biso   1.000  C
  H35      1.0000 0.73210  0.34720  0.34590  Biso   1.000  H
  H36      1.0000 0.26790  0.84720  0.65410  Biso   1.000  H
  C15      1.0000 0.75290  0.40410  0.46610  Biso   1.000  C
  C16      1.0000 0.24710  0.90410  0.53390  Biso   1.000  C
  C17      1.0000 0.76360  0.35090  0.52380  Biso   1.000  C
  C18      1.0000 0.23640  0.85090  0.47620  Biso   1.000  C
  H37      1.0000 0.76390  0.30730  0.50280  Biso   1.000  H
  H38      1.0000 0.23610  0.80730  0.49720  Biso   1.000  H
  C19      1.0000 0.77370  0.36280  0.61270  Biso   1.000  C
  C20      1.0000 0.22630  0.86280  0.38730  Biso   1.000  C
  H39      1.0000 0.78200  0.32670  0.65110  Biso   1.000  H
  H40      1.0000 0.21800  0.82670  0.34890  Biso   1.000  H
  C21      1.0000 0.75160  0.46740  0.49920  Biso   1.000  C
  C22      1.0000 0.24840  0.96740  0.50080  Biso   1.000  C
  H41      1.0000 0.74480  0.50380  0.46150  Biso   1.000  H
  H42      1.0000 0.25520  0.00380  0.53850  Biso   1.000  H
  C23      1.0000 0.76040  0.47730  0.58890  Biso   1.000  C
  C24      1.0000 0.23960  0.97730  0.41110  Biso   1.000  C
  H43      1.0000 0.75820  0.52060  0.61030  Biso   1.000  H
  H44      1.0000 0.24180  0.02060  0.38970  Biso   1.000  H
  C25      1.0000 0.10590  0.46530  0.94270  Biso   1.000  C
  C26      1.0000 0.89410  0.96530  0.05730  Biso   1.000  C
  H45      1.0000 0.08410  0.42400  0.91710  Biso   1.000  H
  H46      1.0000 0.91590  0.92400  0.08290  Biso   1.000  H
  C27      1.0000 0.10180  0.47300  0.03070  Biso   1.000  C
  C28      1.0000 0.89820  0.97300  0.96930  Biso   1.000  C
  H47      1.0000 0.07660  0.43780  0.06400  Biso   1.000  H
  H48      1.0000 0.92340  0.93780  0.93600  Biso   1.000  H
  C29      1.0000 0.17190  0.57100  0.92840  Biso   1.000  C
  C30      1.0000 0.82810  0.07100  0.07160  Biso   1.000  C
  H49      1.0000 0.19590  0.60500  0.89270  Biso   1.000  H
  H50      1.0000 0.80410  0.10500  0.10730  Biso   1.000  H
  C31      1.0000 0.17350  0.58520  0.01860  Biso   1.000  C
  C32      1.0000 0.82650  0.08520  0.98140  Biso   1.000  C
  H51      1.0000 0.19870  0.62690  0.04150  Biso   1.000  H
  H52      1.0000 0.80130  0.12690  0.95850  Biso   1.000  H
  C33      1.0000 0.13720  0.53600  0.07030  Biso   1.000  C
  C34      1.0000 0.86280  0.03600  0.92970  Biso   1.000  C
  C35      1.0000 0.13330  0.54530  0.16720  Biso   1.000  C
  C36      1.0000 0.86670  0.04530  0.83280  Biso   1.000  C
  H53      1.0000 0.16310  0.58520  0.19360  Biso   1.000  H
  H54      1.0000 0.83690  0.08520  0.80640  Biso   1.000  H
  C37      1.0000 0.07950  0.47150  0.34840  Biso   1.000  C
  C38      1.0000 0.92050  0.97150  0.65160  Biso   1.000  C
  H55      1.0000 0.06590  0.42920  0.32410  Biso   1.000  H
  H56      1.0000 0.93410  0.92920  0.67590  Biso   1.000  H
  C39      1.0000 0.08270  0.48060  0.44370  Biso   1.000  C
  C40      1.0000 0.91730  0.98060  0.55630  Biso   1.000  C
  C41      1.0000 0.10130  0.54120  0.48450  Biso   1.000  C
  C42      1.0000 0.89870  0.04120  0.51550  Biso   1.000  C
  H57      1.0000 0.10860  0.57950  0.45140  Biso   1.000  H
  H58      1.0000 0.89140  0.07950  0.54860  Biso   1.000  H
  C43      1.0000 0.10920  0.54570  0.57560  Biso   1.000  C
  C44      1.0000 0.89080  0.04570  0.42440  Biso   1.000  C
  H59      1.0000 0.11980  0.58740  0.60210  Biso   1.000  H
  H60      1.0000 0.88020  0.08740  0.39790  Biso   1.000  H
  C45      1.0000 0.07200  0.42550  0.49600  Biso   1.000  C
  C46      1.0000 0.92800  0.92550  0.50400  Biso   1.000  C
  H61      1.0000 0.05710  0.38380  0.47020  Biso   1.000  H
  H62      1.0000 0.94290  0.88380  0.52980  Biso   1.000  H
  C47      1.0000 0.08310  0.43150  0.58570  Biso   1.000  C
  C48      1.0000 0.91690  0.93150  0.41430  Biso   1.000  C
  H63      1.0000 0.07760  0.39340  0.61930  Biso   1.000  H
  H64      1.0000 0.92240  0.89340  0.38070  Biso   1.000  H
  C49      1.0000 0.37910  0.26700  0.87890  Biso   1.000  C
  C50      1.0000 0.62090  0.76700  0.12110  Biso   1.000  C
  H65      1.0000 0.46200  0.28060  0.86220  Biso   1.000  H
  H66      1.0000 0.53800  0.78060  0.13780  Biso   1.000  H
  H67      1.0000 0.34730  0.22920  0.84280  Biso   1.000  H
  H68      1.0000 0.65270  0.72920  0.15720  Biso   1.000  H
  C51      1.0000 0.39810  0.24690  0.97340  Biso   1.000  C
  C52      1.0000 0.60190  0.74690  0.02660  Biso   1.000  C
  H69      1.0000 0.44890  0.20550  0.97900  Biso   1.000  H
  H70      1.0000 0.55110  0.70550  0.02100  Biso   1.000  H
  C53      1.0000 0.27790  0.23600  0.01480  Biso   1.000  C
  C54      1.0000 0.72210  0.73600  0.98520  Biso   1.000  C
  H71      1.0000 0.20410  0.22290  0.97110  Biso   1.000  H
  H72      1.0000 0.79590  0.72290  0.02890  Biso   1.000  H
  C55      1.0000 0.25590  0.30400  0.05370  Biso   1.000  C
  C56      1.0000 0.74410  0.80400  0.94630  Biso   1.000  C
  H73      1.0000 0.21880  0.33400  0.00640  Biso   1.000  H
  H74      1.0000 0.78120  0.83400  0.99360  Biso   1.000  H
  C57      1.0000 0.39220  0.32560  0.08580  Biso   1.000  C
  C58      1.0000 0.60780  0.82560  0.91420  Biso   1.000  C
  H75      1.0000 0.41840  0.30590  0.14380  Biso   1.000  H
  H76      1.0000 0.58160  0.80590  0.85620  Biso   1.000  H
  C59      1.0000 0.42500  0.42810  0.17170  Biso   1.000  C
  C60      1.0000 0.57500  0.92810  0.82830  Biso   1.000  C
  C61      1.0000 0.46680  0.53490  0.10040  Biso   1.000  C
  C62      1.0000 0.53320  0.03490  0.89960  Biso   1.000  C
  C63      1.0000 0.45260  0.49840  0.01890  Biso   1.000  C
  C64      1.0000 0.54740  0.99840  0.98110  Biso   1.000  C
  H77      1.0000 0.45960  0.52080  0.96690  Biso   1.000  H
  H78      1.0000 0.54040  0.02080  0.03310  Biso   1.000  H
  C65      1.0000 0.42980  0.43370  0.01720  Biso   1.000  C
  C66      1.0000 0.57020  0.93370  0.98280  Biso   1.000  C
  H79      1.0000 0.42170  0.41150  0.96370  Biso   1.000  H
  H80      1.0000 0.57830  0.91150  0.03630  Biso   1.000  H
  C67      1.0000 0.70240  0.65730  0.68930  Biso   1.000  C
  C68      1.0000 0.29760  0.15730  0.31070  Biso   1.000  C
  H81      1.0000 0.71170  0.69660  0.72650  Biso   1.000  H
  H82      1.0000 0.28830  0.19660  0.27350  Biso   1.000  H
  H83      1.0000 0.65010  0.62500  0.71560  Biso   1.000  H
  H84      1.0000 0.34990  0.12500  0.28440  Biso   1.000  H
  C69      1.0000 0.63420  0.67610  0.59960  Biso   1.000  C
  C70      1.0000 0.36580  0.17610  0.40040  Biso   1.000  C
  H85      1.0000 0.69170  0.70620  0.57260  Biso   1.000  H
  H86      1.0000 0.30830  0.20620  0.42740  Biso   1.000  H
  C71      1.0000 0.50530  0.70940  0.59670  Biso   1.000  C
  C72      1.0000 0.49470  0.20940  0.40330  Biso   1.000  C
  H87      1.0000 0.48980  0.72890  0.65260  Biso   1.000  H
  H88      1.0000 0.51020  0.22890  0.34740  Biso   1.000  H
  C73      1.0000 0.41310  0.65800  0.56360  Biso   1.000  C
  C74      1.0000 0.58690  0.15800  0.43640  Biso   1.000  C
  H89      1.0000 0.40550  0.62980  0.61460  Biso   1.000  H
  H90      1.0000 0.59450  0.12980  0.38540  Biso   1.000  H
  C75      1.0000 0.48520  0.61570  0.50560  Biso   1.000  C
  C76      1.0000 0.51480  0.11570  0.49440  Biso   1.000  C
  H91      1.0000 0.48080  0.63740  0.44830  Biso   1.000  H
  H92      1.0000 0.51920  0.13740  0.55170  Biso   1.000  H
  C77      1.0000 0.44060  0.51970  0.40800  Biso   1.000  C
  C78      1.0000 0.55940  0.01970  0.59200  Biso   1.000  C
  C79      1.0000 0.38870  0.41290  0.47010  Biso   1.000  C
  C80      1.0000 0.61130  0.91290  0.52990  Biso   1.000  C
  C81      1.0000 0.40220  0.44270  0.55520  Biso   1.000  C
  C82      1.0000 0.59780  0.94270  0.44480  Biso   1.000  C
  H93      1.0000 0.38890  0.41740  0.60380  Biso   1.000  H
  H94      1.0000 0.61110  0.91740  0.39620  Biso   1.000  H
  C83      1.0000 0.43330  0.50510  0.56420  Biso   1.000  C
  C84      1.0000 0.56670  0.00510  0.43580  Biso   1.000  C
  H95      1.0000 0.44820  0.52270  0.62060  Biso   1.000  H
  H96      1.0000 0.55180  0.02270  0.37940  Biso   1.000  H
  O43      1.0000 0.05090  0.73620  0.92310  Biso   1.000  O
  O44      1.0000 0.94910  0.23620  0.07690  Biso   1.000  O
  H97      1.0000 0.00230  0.70500  0.89970  Biso   1.000  H
  H98      1.0000 0.99770  0.20500  0.10030  Biso   1.000  H
  H99      1.0000 0.10950  0.74390  0.89100  Biso   1.000  H
  H100     1.0000 0.89050  0.24390  0.10900  Biso   1.000  H
  O45      1.0000 0.34180  0.69080  0.19190  Biso   1.000  O
  O46      1.0000 0.65820  0.19080  0.80810  Biso   1.000  O
  H101     1.0000 0.39180  0.66330  0.17090  Biso   1.000  H
  H102     1.0000 0.60820  0.16330  0.82910  Biso   1.000  H
  H103     1.0000 0.38630  0.71230  0.23330  Biso   1.000  H
  H104     1.0000 0.61370  0.21230  0.76670  Biso   1.000  H
  O47      1.0000 0.74540  0.26250  0.18620  Biso   1.000  O
  O48      1.0000 0.25460  0.76250  0.81380  Biso   1.000  O
  H105     1.0000 0.74800  0.30390  0.19770  Biso   1.000  H
  H106     1.0000 0.25200  0.80390  0.80230  Biso   1.000  H
  H107     1.0000 0.78210  0.24160  0.23100  Biso   1.000  H
  H108     1.0000 0.21790  0.74160  0.76900  Biso   1.000  H
  O49      1.0000 0.43800  0.65390  0.84310  Biso   1.000  O
  O50      1.0000 0.56200  0.15390  0.15690  Biso   1.000  O
  H109     1.0000 0.51350  0.66650  0.86600  Biso   1.000  H
  H110     1.0000 0.48650  0.16650  0.13400  Biso   1.000  H
  H111     1.0000 0.38890  0.68800  0.83540  Biso   1.000  H
  H112     1.0000 0.61110  0.18800  0.16460  Biso   1.000  H
  O51      1.0000 0.90000  0.24340  0.88910  Biso   1.000  O
  O52      1.0000 0.10000  0.74340  0.11090  Biso   1.000  O
  H113     1.0000 0.90960  0.23970  0.94460  Biso   1.000  H
  H114     1.0000 0.09040  0.73970  0.05540  Biso   1.000  H
  H115     1.0000 0.82670  0.22690  0.86820  Biso   1.000  H
  H116     1.0000 0.17330  0.72690  0.13180  Biso   1.000  H
  O53      1.0000 0.17850  0.31350  0.30720  Biso   1.000  O
  O54      1.0000 0.82150  0.81350  0.69280  Biso   1.000  O
  H117     1.0000 0.15440  0.30290  0.25390  Biso   1.000  H
  H118     1.0000 0.84560  0.80290  0.74610  Biso   1.000  H
  H119     1.0000 0.24560  0.33810  0.30900  Biso   1.000  H
  H120     1.0000 0.75440  0.83810  0.69100  Biso   1.000  H
  O55      1.0000 0.14090  0.70150  0.67350  Biso   1.000  O
  O56      1.0000 0.85910  0.20150  0.32650  Biso   1.000  O
  H121     1.0000 0.10520  0.66820  0.69460  Biso   1.000  H
  H122     1.0000 0.89480  0.16820  0.30540  Biso   1.000  H
  H123     1.0000 0.08180  0.72500  0.64420  Biso   1.000  H
  H124     1.0000 0.91820  0.22500  0.35580  Biso   1.000  H
  O57      1.0000 0.97740  0.77570  0.58740  Biso   1.000  O
  O58      1.0000 0.02260  0.27570  0.41260  Biso   1.000  O
  H125     1.0000 0.91860  0.78730  0.61770  Biso   1.000  H
  H126     1.0000 0.08140  0.28730  0.38230  Biso   1.000  H
  H127     1.0000 0.94170  0.76710  0.53550  Biso   1.000  H
  H128     1.0000 0.05830  0.26710  0.46450  Biso   1.000  H
  O59      1.0000 0.12100  0.23440  0.60640  Biso   1.000  O
  O60      1.0000 0.87900  0.73440  0.39360  Biso   1.000  O
  H129     1.0000 0.10510  0.26810  0.63690  Biso   1.000  H
  H130     1.0000 0.89490  0.76810  0.36310  Biso   1.000  H
  H131     1.0000 0.20290  0.23020  0.61190  Biso   1.000  H
  H132     1.0000 0.79710  0.73020  0.38810  Biso   1.000  H
  O61      1.0000 0.52870  0.26910  0.66750  Biso   1.000  O
  O62      1.0000 0.47130  0.76910  0.33250  Biso   1.000  O
  H133     1.0000 0.45860  0.28690  0.67890  Biso   1.000  H
  H134     1.0000 0.54140  0.78690  0.32110  Biso   1.000  H
  H135     1.0000 0.52410  0.26540  0.61210  Biso   1.000  H
  H136     1.0000 0.47590  0.76540  0.38790  Biso   1.000  H
