data_image0
_cell_length_a       19.768
_cell_length_b       19.768
_cell_length_c       15.59
_cell_angle_alpha    90
_cell_angle_beta     90
_cell_angle_gamma    90

_symmetry_space_group_name_H-M    "P 1"
_symmetry_int_tables_number       1

loop_
  _symmetry_equiv_pos_as_xyz
  'x, y, z'

loop_
  _atom_site_label
  _atom_site_occupancy
  _atom_site_fract_x
  _atom_site_fract_y
  _atom_site_fract_z
  _atom_site_thermal_displace_type
  _atom_site_B_iso_or_equiv
  _atom_site_type_symbol
  C1       1.0000 0.73240  0.33050  0.91490  Biso   1.000  C
  C2       1.0000 0.41950  0.98240  0.16490  Biso   1.000  C
  C3       1.0000 0.76760  0.66950  0.41490  Biso   1.000  C
  C4       1.0000 0.08050  0.01760  0.66490  Biso   1.000  C
  C5       1.0000 0.23240  0.83050  0.41490  Biso   1.000  C
  C6       1.0000 0.91950  0.48240  0.66490  Biso   1.000  C
  C7       1.0000 0.26760  0.16950  0.91490  Biso   1.000  C
  C8       1.0000 0.58050  0.51760  0.16490  Biso   1.000  C
  C9       1.0000 0.26760  0.66950  0.08510  Biso   1.000  C
  C10      1.0000 0.08050  0.51760  0.33510  Biso   1.000  C
  C11      1.0000 0.23240  0.33050  0.58510  Biso   1.000  C
  C12      1.0000 0.41950  0.48240  0.83510  Biso   1.000  C
  C13      1.0000 0.76760  0.16950  0.58510  Biso   1.000  C
  C14      1.0000 0.58050  0.01760  0.83510  Biso   1.000  C
  C15      1.0000 0.73240  0.83050  0.08510  Biso   1.000  C
  C16      1.0000 0.91950  0.98240  0.33510  Biso   1.000  C
  H1       1.0000 0.69830  0.30130  0.93260  Biso   1.000  H
  H2       1.0000 0.44870  0.94830  0.18260  Biso   1.000  H
  H3       1.0000 0.80170  0.69870  0.43260  Biso   1.000  H
  H4       1.0000 0.05130  0.05170  0.68260  Biso   1.000  H
  H5       1.0000 0.19830  0.80130  0.43260  Biso   1.000  H
  H6       1.0000 0.94870  0.44830  0.68260  Biso   1.000  H
  H7       1.0000 0.30170  0.19870  0.93260  Biso   1.000  H
  H8       1.0000 0.55130  0.55170  0.18260  Biso   1.000  H
  H9       1.0000 0.30170  0.69870  0.06740  Biso   1.000  H
  H10      1.0000 0.05130  0.55170  0.31740  Biso   1.000  H
  H11      1.0000 0.19830  0.30130  0.56740  Biso   1.000  H
  H12      1.0000 0.44870  0.44830  0.81740  Biso   1.000  H
  H13      1.0000 0.80170  0.19870  0.56740  Biso   1.000  H
  H14      1.0000 0.55130  0.05170  0.81740  Biso   1.000  H
  H15      1.0000 0.69830  0.80130  0.06740  Biso   1.000  H
  H16      1.0000 0.94870  0.94830  0.31740  Biso   1.000  H
  C17      1.0000 0.81080  0.37300  0.84010  Biso   1.000  C
  C18      1.0000 0.37700  0.06080  0.09010  Biso   1.000  C
  C19      1.0000 0.68920  0.62700  0.34010  Biso   1.000  C
  C20      1.0000 0.12300  0.93920  0.59010  Biso   1.000  C
  C21      1.0000 0.31080  0.87300  0.34010  Biso   1.000  C
  C22      1.0000 0.87700  0.56080  0.59010  Biso   1.000  C
  C23      1.0000 0.18920  0.12700  0.84010  Biso   1.000  C
  C24      1.0000 0.62300  0.43920  0.09010  Biso   1.000  C
  C25      1.0000 0.18920  0.62700  0.15990  Biso   1.000  C
  C26      1.0000 0.12300  0.43920  0.40990  Biso   1.000  C
  C27      1.0000 0.31080  0.37300  0.65990  Biso   1.000  C
  C28      1.0000 0.37700  0.56080  0.90990  Biso   1.000  C
  C29      1.0000 0.68920  0.12700  0.65990  Biso   1.000  C
  C30      1.0000 0.62300  0.93920  0.90990  Biso   1.000  C
  C31      1.0000 0.81080  0.87300  0.15990  Biso   1.000  C
  C32      1.0000 0.87700  0.06080  0.40990  Biso   1.000  C
  H17      1.0000 0.84260  0.38120  0.79740  Biso   1.000  H
  H18      1.0000 0.36880  0.09260  0.04740  Biso   1.000  H
  H19      1.0000 0.65740  0.61880  0.29740  Biso   1.000  H
  H20      1.0000 0.13120  0.90740  0.54740  Biso   1.000  H
  H21      1.0000 0.34260  0.88120  0.29740  Biso   1.000  H
  H22      1.0000 0.86880  0.59260  0.54740  Biso   1.000  H
  H23      1.0000 0.15740  0.11880  0.79740  Biso   1.000  H
  H24      1.0000 0.63120  0.40740  0.04740  Biso   1.000  H
  H25      1.0000 0.15740  0.61880  0.20260  Biso   1.000  H
  H26      1.0000 0.13120  0.40740  0.45260  Biso   1.000  H
  H27      1.0000 0.34260  0.38120  0.70260  Biso   1.000  H
  H28      1.0000 0.36880  0.59260  0.95260  Biso   1.000  H
  H29      1.0000 0.65740  0.11880  0.70260  Biso   1.000  H
  H30      1.0000 0.63120  0.90740  0.95260  Biso   1.000  H
  H31      1.0000 0.84260  0.88120  0.20260  Biso   1.000  H
  H32      1.0000 0.86880  0.09260  0.45260  Biso   1.000  H
  C33      1.0000 0.83810  0.47250  0.93690  Biso   1.000  C
  C34      1.0000 0.27750  0.08810  0.18690  Biso   1.000  C
  C35      1.0000 0.66190  0.52750  0.43690  Biso   1.000  C
  C36      1.0000 0.22250  0.91190  0.68690  Biso   1.000  C
  C37      1.0000 0.33810  0.97250  0.43690  Biso   1.000  C
  C38      1.0000 0.77750  0.58810  0.68690  Biso   1.000  C
  C39      1.0000 0.16190  0.02750  0.93690  Biso   1.000  C
  C40      1.0000 0.72250  0.41190  0.18690  Biso   1.000  C
  C41      1.0000 0.16190  0.52750  0.06310  Biso   1.000  C
  C42      1.0000 0.22250  0.41190  0.31310  Biso   1.000  C
  C43      1.0000 0.33810  0.47250  0.56310  Biso   1.000  C
  C44      1.0000 0.27750  0.58810  0.81310  Biso   1.000  C
  C45      1.0000 0.66190  0.02750  0.56310  Biso   1.000  C
  C46      1.0000 0.72250  0.91190  0.81310  Biso   1.000  C
  C47      1.0000 0.83810  0.97250  0.06310  Biso   1.000  C
  C48      1.0000 0.77750  0.08810  0.31310  Biso   1.000  C
  H33      1.0000 0.80520  0.50610  0.95460  Biso   1.000  H
  H34      1.0000 0.24390  0.05520  0.20460  Biso   1.000  H
  H35      1.0000 0.69480  0.49390  0.45460  Biso   1.000  H
  H36      1.0000 0.25610  0.94480  0.70460  Biso   1.000  H
  H37      1.0000 0.30520  0.00610  0.45460  Biso   1.000  H
  H38      1.0000 0.74390  0.55520  0.70460  Biso   1.000  H
  H39      1.0000 0.19480  0.99390  0.95460  Biso   1.000  H
  H40      1.0000 0.75610  0.44480  0.20460  Biso   1.000  H
  H41      1.0000 0.19480  0.49390  0.04540  Biso   1.000  H
  H42      1.0000 0.25610  0.44480  0.29540  Biso   1.000  H
  H43      1.0000 0.30520  0.50610  0.54540  Biso   1.000  H
  H44      1.0000 0.24390  0.55520  0.79540  Biso   1.000  H
  H45      1.0000 0.69480  0.99390  0.54540  Biso   1.000  H
  H46      1.0000 0.75610  0.94480  0.79540  Biso   1.000  H
  H47      1.0000 0.80520  0.00610  0.04540  Biso   1.000  H
  H48      1.0000 0.74390  0.05520  0.29540  Biso   1.000  H
  H49      1.0000 0.86240  0.49050  0.88790  Biso   1.000  H
  H50      1.0000 0.25950  0.11240  0.13790  Biso   1.000  H
  H51      1.0000 0.63760  0.50950  0.38790  Biso   1.000  H
  H52      1.0000 0.24050  0.88760  0.63790  Biso   1.000  H
  H53      1.0000 0.36240  0.99050  0.38790  Biso   1.000  H
  H54      1.0000 0.75950  0.61240  0.63790  Biso   1.000  H
  H55      1.0000 0.13760  0.00950  0.88790  Biso   1.000  H
  H56      1.0000 0.74050  0.38760  0.13790  Biso   1.000  H
  H57      1.0000 0.13760  0.50950  0.11210  Biso   1.000  H
  H58      1.0000 0.24050  0.38760  0.36210  Biso   1.000  H
  H59      1.0000 0.36240  0.49050  0.61210  Biso   1.000  H
  H60      1.0000 0.25950  0.61240  0.86210  Biso   1.000  H
  H61      1.0000 0.63760  0.00950  0.61210  Biso   1.000  H
  H62      1.0000 0.74050  0.88760  0.86210  Biso   1.000  H
  H63      1.0000 0.86240  0.99050  0.11210  Biso   1.000  H
  H64      1.0000 0.75950  0.11240  0.36210  Biso   1.000  H
  C49      1.0000 0.88830  0.46030  0.01060  Biso   1.000  C
  C50      1.0000 0.28970  0.13830  0.26060  Biso   1.000  C
  C51      1.0000 0.61170  0.53970  0.51060  Biso   1.000  C
  C52      1.0000 0.21030  0.86170  0.76060  Biso   1.000  C
  C53      1.0000 0.38830  0.96030  0.51060  Biso   1.000  C
  C54      1.0000 0.78970  0.63830  0.76060  Biso   1.000  C
  C55      1.0000 0.11170  0.03970  0.01060  Biso   1.000  C
  C56      1.0000 0.71030  0.36170  0.26060  Biso   1.000  C
  C57      1.0000 0.11170  0.53970  0.98940  Biso   1.000  C
  C58      1.0000 0.21030  0.36170  0.23940  Biso   1.000  C
  C59      1.0000 0.38830  0.46030  0.48940  Biso   1.000  C
  C60      1.0000 0.28970  0.63830  0.73940  Biso   1.000  C
  C61      1.0000 0.61170  0.03970  0.48940  Biso   1.000  C
  C62      1.0000 0.71030  0.86170  0.73940  Biso   1.000  C
  C63      1.0000 0.88830  0.96030  0.98940  Biso   1.000  C
  C64      1.0000 0.78970  0.13830  0.23940  Biso   1.000  C
  C65      1.0000 0.90910  0.39570  0.03400  Biso   1.000  C
  C66      1.0000 0.35430  0.15910  0.28400  Biso   1.000  C
  C67      1.0000 0.59090  0.60430  0.53400  Biso   1.000  C
  C68      1.0000 0.14570  0.84090  0.78400  Biso   1.000  C
  C69      1.0000 0.40910  0.89570  0.53400  Biso   1.000  C
  C70      1.0000 0.85430  0.65910  0.78400  Biso   1.000  C
  C71      1.0000 0.09090  0.10430  0.03400  Biso   1.000  C
  C72      1.0000 0.64570  0.34090  0.28400  Biso   1.000  C
  C73      1.0000 0.09090  0.60430  0.96600  Biso   1.000  C
  C74      1.0000 0.14570  0.34090  0.21600  Biso   1.000  C
  C75      1.0000 0.40910  0.39570  0.46600  Biso   1.000  C
  C76      1.0000 0.35430  0.65910  0.71600  Biso   1.000  C
  C77      1.0000 0.59090  0.10430  0.46600  Biso   1.000  C
  C78      1.0000 0.64570  0.84090  0.71600  Biso   1.000  C
  C79      1.0000 0.90910  0.89570  0.96600  Biso   1.000  C
  C80      1.0000 0.85430  0.15910  0.21600  Biso   1.000  C
  H65      1.0000 0.89280  0.35850  0.00400  Biso   1.000  H
  H66      1.0000 0.39150  0.14280  0.25400  Biso   1.000  H
  H67      1.0000 0.60720  0.64150  0.50400  Biso   1.000  H
  H68      1.0000 0.10850  0.85720  0.75400  Biso   1.000  H
  H69      1.0000 0.39280  0.85850  0.50400  Biso   1.000  H
  H70      1.0000 0.89150  0.64280  0.75400  Biso   1.000  H
  H71      1.0000 0.10720  0.14150  0.00400  Biso   1.000  H
  H72      1.0000 0.60850  0.35720  0.25400  Biso   1.000  H
  H73      1.0000 0.10720  0.64150  0.99600  Biso   1.000  H
  H74      1.0000 0.10850  0.35720  0.24600  Biso   1.000  H
  H75      1.0000 0.39280  0.35850  0.49600  Biso   1.000  H
  H76      1.0000 0.39150  0.64280  0.74600  Biso   1.000  H
  H77      1.0000 0.60720  0.14150  0.49600  Biso   1.000  H
  H78      1.0000 0.60850  0.85720  0.74600  Biso   1.000  H
  H79      1.0000 0.89280  0.85850  0.99600  Biso   1.000  H
  H80      1.0000 0.89150  0.14280  0.24600  Biso   1.000  H
  C81      1.0000 0.95350  0.38600  0.10130  Biso   1.000  C
  C82      1.0000 0.36400  0.20350  0.35130  Biso   1.000  C
  C83      1.0000 0.54650  0.61400  0.60130  Biso   1.000  C
  C84      1.0000 0.13600  0.79650  0.85130  Biso   1.000  C
  C85      1.0000 0.45350  0.88600  0.60130  Biso   1.000  C
  C86      1.0000 0.86400  0.70350  0.85130  Biso   1.000  C
  C87      1.0000 0.04650  0.11400  0.10130  Biso   1.000  C
  C88      1.0000 0.63600  0.29650  0.35130  Biso   1.000  C
  C89      1.0000 0.04650  0.61400  0.89870  Biso   1.000  C
  C90      1.0000 0.13600  0.29650  0.14870  Biso   1.000  C
  C91      1.0000 0.45350  0.38600  0.39870  Biso   1.000  C
  C92      1.0000 0.36400  0.70350  0.64870  Biso   1.000  C
  C93      1.0000 0.54650  0.11400  0.39870  Biso   1.000  C
  C94      1.0000 0.63600  0.79650  0.64870  Biso   1.000  C
  C95      1.0000 0.95350  0.88600  0.89870  Biso   1.000  C
  C96      1.0000 0.86400  0.20350  0.14870  Biso   1.000  C
  H81      1.0000 0.96700  0.34250  0.11590  Biso   1.000  H
  H82      1.0000 0.40750  0.21700  0.36590  Biso   1.000  H
  H83      1.0000 0.53300  0.65750  0.61590  Biso   1.000  H
  H84      1.0000 0.09250  0.78300  0.86590  Biso   1.000  H
  H85      1.0000 0.46700  0.84250  0.61590  Biso   1.000  H
  H86      1.0000 0.90750  0.71700  0.86590  Biso   1.000  H
  H87      1.0000 0.03300  0.15750  0.11590  Biso   1.000  H
  H88      1.0000 0.59250  0.28300  0.36590  Biso   1.000  H
  H89      1.0000 0.03300  0.65750  0.88410  Biso   1.000  H
  H90      1.0000 0.09250  0.28300  0.13410  Biso   1.000  H
  H91      1.0000 0.46700  0.34250  0.38410  Biso   1.000  H
  H92      1.0000 0.40750  0.71700  0.63410  Biso   1.000  H
  H93      1.0000 0.53300  0.15750  0.38410  Biso   1.000  H
  H94      1.0000 0.59250  0.78300  0.63410  Biso   1.000  H
  H95      1.0000 0.96700  0.84250  0.88410  Biso   1.000  H
  H96      1.0000 0.90750  0.21700  0.13410  Biso   1.000  H
  C97      1.0000 0.97810  0.44100  0.14740  Biso   1.000  C
  C98      1.0000 0.30900  0.22810  0.39740  Biso   1.000  C
  C99      1.0000 0.52190  0.55900  0.64740  Biso   1.000  C
  C100     1.0000 0.19100  0.77190  0.89740  Biso   1.000  C
  C101     1.0000 0.47810  0.94100  0.64740  Biso   1.000  C
  C102     1.0000 0.80900  0.72810  0.89740  Biso   1.000  C
  C103     1.0000 0.02190  0.05900  0.14740  Biso   1.000  C
  C104     1.0000 0.69100  0.27190  0.39740  Biso   1.000  C
  C105     1.0000 0.02190  0.55900  0.85260  Biso   1.000  C
  C106     1.0000 0.19100  0.27190  0.10260  Biso   1.000  C
  C107     1.0000 0.47810  0.44100  0.35260  Biso   1.000  C
  C108     1.0000 0.30900  0.72810  0.60260  Biso   1.000  C
  C109     1.0000 0.52190  0.05900  0.35260  Biso   1.000  C
  C110     1.0000 0.69100  0.77190  0.60260  Biso   1.000  C
  C111     1.0000 0.97810  0.94100  0.85260  Biso   1.000  C
  C112     1.0000 0.80900  0.22810  0.10260  Biso   1.000  C
  H97      1.0000 0.00690  0.43460  0.19390  Biso   1.000  H
  H98      1.0000 0.31540  0.25690  0.44390  Biso   1.000  H
  H99      1.0000 0.49310  0.56540  0.69390  Biso   1.000  H
  H100     1.0000 0.18460  0.74310  0.94390  Biso   1.000  H
  H101     1.0000 0.50690  0.93460  0.69390  Biso   1.000  H
  H102     1.0000 0.81540  0.75690  0.94390  Biso   1.000  H
  H103     1.0000 0.99310  0.06540  0.19390  Biso   1.000  H
  H104     1.0000 0.68460  0.24310  0.44390  Biso   1.000  H
  H105     1.0000 0.99310  0.56540  0.80610  Biso   1.000  H
  H106     1.0000 0.18460  0.24310  0.05610  Biso   1.000  H
  H107     1.0000 0.50690  0.43460  0.30610  Biso   1.000  H
  H108     1.0000 0.31540  0.75690  0.55610  Biso   1.000  H
  H109     1.0000 0.49310  0.06540  0.30610  Biso   1.000  H
  H110     1.0000 0.68460  0.74310  0.55610  Biso   1.000  H
  H111     1.0000 0.00690  0.93460  0.80610  Biso   1.000  H
  H112     1.0000 0.81540  0.25690  0.05610  Biso   1.000  H
  C113     1.0000 0.95920  0.50510  0.12290  Biso   1.000  C
  C114     1.0000 0.24490  0.20920  0.37290  Biso   1.000  C
  C115     1.0000 0.54080  0.49490  0.62290  Biso   1.000  C
  C116     1.0000 0.25510  0.79080  0.87290  Biso   1.000  C
  C117     1.0000 0.45920  0.00510  0.62290  Biso   1.000  C
  C118     1.0000 0.74490  0.70920  0.87290  Biso   1.000  C
  C119     1.0000 0.04080  0.99490  0.12290  Biso   1.000  C
  C120     1.0000 0.75510  0.29080  0.37290  Biso   1.000  C
  C121     1.0000 0.04080  0.49490  0.87710  Biso   1.000  C
  C122     1.0000 0.25510  0.29080  0.12710  Biso   1.000  C
  C123     1.0000 0.45920  0.50510  0.37710  Biso   1.000  C
  C124     1.0000 0.24490  0.70920  0.62710  Biso   1.000  C
  C125     1.0000 0.54080  0.99490  0.37710  Biso   1.000  C
  C126     1.0000 0.75510  0.79080  0.62710  Biso   1.000  C
  C127     1.0000 0.95920  0.00510  0.87710  Biso   1.000  C
  C128     1.0000 0.74490  0.20920  0.12710  Biso   1.000  C
  H113     1.0000 0.97640  0.54200  0.15290  Biso   1.000  H
  H114     1.0000 0.20800  0.22640  0.40290  Biso   1.000  H
  H115     1.0000 0.52360  0.45800  0.65290  Biso   1.000  H
  H116     1.0000 0.29200  0.77360  0.90290  Biso   1.000  H
  H117     1.0000 0.47640  0.04200  0.65290  Biso   1.000  H
  H118     1.0000 0.70800  0.72640  0.90290  Biso   1.000  H
  H119     1.0000 0.02360  0.95800  0.15290  Biso   1.000  H
  H120     1.0000 0.79200  0.27360  0.40290  Biso   1.000  H
  H121     1.0000 0.02360  0.45800  0.84710  Biso   1.000  H
  H122     1.0000 0.29200  0.27360  0.09710  Biso   1.000  H
  H123     1.0000 0.47640  0.54200  0.34710  Biso   1.000  H
  H124     1.0000 0.20800  0.72640  0.59710  Biso   1.000  H
  H125     1.0000 0.52360  0.95800  0.34710  Biso   1.000  H
  H126     1.0000 0.79200  0.77360  0.59710  Biso   1.000  H
  H127     1.0000 0.97640  0.04200  0.84710  Biso   1.000  H
  H128     1.0000 0.70800  0.22640  0.09710  Biso   1.000  H
  C129     1.0000 0.91520  0.51660  0.05510  Biso   1.000  C
  C130     1.0000 0.23340  0.16520  0.30510  Biso   1.000  C
  C131     1.0000 0.58480  0.48340  0.55510  Biso   1.000  C
  C132     1.0000 0.26660  0.83480  0.80510  Biso   1.000  C
  C133     1.0000 0.41520  0.01660  0.55510  Biso   1.000  C
  C134     1.0000 0.73340  0.66520  0.80510  Biso   1.000  C
  C135     1.0000 0.08480  0.98340  0.05510  Biso   1.000  C
  C136     1.0000 0.76660  0.33480  0.30510  Biso   1.000  C
  C137     1.0000 0.08480  0.48340  0.94490  Biso   1.000  C
  C138     1.0000 0.26660  0.33480  0.19490  Biso   1.000  C
  C139     1.0000 0.41520  0.51660  0.44490  Biso   1.000  C
  C140     1.0000 0.23340  0.66520  0.69490  Biso   1.000  C
  C141     1.0000 0.58480  0.98340  0.44490  Biso   1.000  C
  C142     1.0000 0.76660  0.83480  0.69490  Biso   1.000  C
  C143     1.0000 0.91520  0.01660  0.94490  Biso   1.000  C
  C144     1.0000 0.73340  0.16520  0.19490  Biso   1.000  C
  C145     1.0000 0.89780  0.58890  0.02910  Biso   1.000  C
  C146     1.0000 0.16110  0.14780  0.27910  Biso   1.000  C
  C147     1.0000 0.60220  0.41110  0.52910  Biso   1.000  C
  C148     1.0000 0.33890  0.85220  0.77910  Biso   1.000  C
  C149     1.0000 0.39780  0.08890  0.52910  Biso   1.000  C
  C150     1.0000 0.66110  0.64780  0.77910  Biso   1.000  C
  C151     1.0000 0.10220  0.91110  0.02910  Biso   1.000  C
  C152     1.0000 0.83890  0.35220  0.27910  Biso   1.000  C
  C153     1.0000 0.10220  0.41110  0.97090  Biso   1.000  C
  C154     1.0000 0.33890  0.35220  0.22090  Biso   1.000  C
  C155     1.0000 0.39780  0.58890  0.47090  Biso   1.000  C
  C156     1.0000 0.16110  0.64780  0.72090  Biso   1.000  C
  C157     1.0000 0.60220  0.91110  0.47090  Biso   1.000  C
  C158     1.0000 0.83890  0.85220  0.72090  Biso   1.000  C
  C159     1.0000 0.89780  0.08890  0.97090  Biso   1.000  C
  C160     1.0000 0.66110  0.14780  0.22090  Biso   1.000  C
  H129     1.0000 0.93720  0.61740  0.03780  Biso   1.000  H
  H130     1.0000 0.13260  0.18720  0.28780  Biso   1.000  H
  H131     1.0000 0.56280  0.38260  0.53780  Biso   1.000  H
  H132     1.0000 0.36740  0.81280  0.78780  Biso   1.000  H
  H133     1.0000 0.43720  0.11740  0.53780  Biso   1.000  H
  H134     1.0000 0.63260  0.68720  0.78780  Biso   1.000  H
  H135     1.0000 0.06280  0.88260  0.03780  Biso   1.000  H
  H136     1.0000 0.86740  0.31280  0.28780  Biso   1.000  H
  H137     1.0000 0.06280  0.38260  0.96220  Biso   1.000  H
  H138     1.0000 0.36740  0.31280  0.21220  Biso   1.000  H
  H139     1.0000 0.43720  0.61740  0.46220  Biso   1.000  H
  H140     1.0000 0.13260  0.68720  0.71220  Biso   1.000  H
  H141     1.0000 0.56280  0.88260  0.46220  Biso   1.000  H
  H142     1.0000 0.86740  0.81280  0.71220  Biso   1.000  H
  H143     1.0000 0.93720  0.11740  0.96220  Biso   1.000  H
  H144     1.0000 0.63260  0.18720  0.21220  Biso   1.000  H
  H145     1.0000 0.88680  0.58970  0.96840  Biso   1.000  H
  H146     1.0000 0.16030  0.13680  0.21840  Biso   1.000  H
  H147     1.0000 0.61320  0.41030  0.46840  Biso   1.000  H
  H148     1.0000 0.33970  0.86320  0.71840  Biso   1.000  H
  H149     1.0000 0.38680  0.08970  0.46840  Biso   1.000  H
  H150     1.0000 0.66030  0.63680  0.71840  Biso   1.000  H
  H151     1.0000 0.11320  0.91030  0.96840  Biso   1.000  H
  H152     1.0000 0.83970  0.36320  0.21840  Biso   1.000  H
  H153     1.0000 0.11320  0.41030  0.03160  Biso   1.000  H
  H154     1.0000 0.33970  0.36320  0.28160  Biso   1.000  H
  H155     1.0000 0.38680  0.58970  0.53160  Biso   1.000  H
  H156     1.0000 0.16030  0.63680  0.78160  Biso   1.000  H
  H157     1.0000 0.61320  0.91030  0.53160  Biso   1.000  H
  H158     1.0000 0.83970  0.86320  0.78160  Biso   1.000  H
  H159     1.0000 0.88680  0.08970  0.03160  Biso   1.000  H
  H160     1.0000 0.66030  0.13680  0.28160  Biso   1.000  H
  C161     1.0000 0.83910  0.66910  0.13180  Biso   1.000  C
  C162     1.0000 0.08090  0.08910  0.38180  Biso   1.000  C
  C163     1.0000 0.66090  0.33090  0.63180  Biso   1.000  C
  C164     1.0000 0.41910  0.91090  0.88180  Biso   1.000  C
  C165     1.0000 0.33910  0.16910  0.63180  Biso   1.000  C
  C166     1.0000 0.58090  0.58910  0.88180  Biso   1.000  C
  C167     1.0000 0.16090  0.83090  0.13180  Biso   1.000  C
  C168     1.0000 0.91910  0.41090  0.38180  Biso   1.000  C
  C169     1.0000 0.16090  0.33090  0.86820  Biso   1.000  C
  C170     1.0000 0.41910  0.41090  0.11820  Biso   1.000  C
  C171     1.0000 0.33910  0.66910  0.36820  Biso   1.000  C
  C172     1.0000 0.08090  0.58910  0.61820  Biso   1.000  C
  C173     1.0000 0.66090  0.83090  0.36820  Biso   1.000  C
  C174     1.0000 0.91910  0.91090  0.61820  Biso   1.000  C
  C175     1.0000 0.83910  0.16910  0.86820  Biso   1.000  C
  C176     1.0000 0.58090  0.08910  0.11820  Biso   1.000  C
  H161     1.0000 0.87650  0.69550  0.14580  Biso   1.000  H
  H162     1.0000 0.05450  0.12650  0.39580  Biso   1.000  H
  H163     1.0000 0.62350  0.30450  0.64580  Biso   1.000  H
  H164     1.0000 0.44550  0.87350  0.89580  Biso   1.000  H
  H165     1.0000 0.37650  0.19550  0.64580  Biso   1.000  H
  H166     1.0000 0.55450  0.62650  0.89580  Biso   1.000  H
  H167     1.0000 0.12350  0.80450  0.14580  Biso   1.000  H
  H168     1.0000 0.94550  0.37350  0.39580  Biso   1.000  H
  H169     1.0000 0.12350  0.30450  0.85420  Biso   1.000  H
  H170     1.0000 0.44550  0.37350  0.10420  Biso   1.000  H
  H171     1.0000 0.37650  0.69550  0.35420  Biso   1.000  H
  H172     1.0000 0.05450  0.62650  0.60420  Biso   1.000  H
  H173     1.0000 0.62350  0.80450  0.35420  Biso   1.000  H
  H174     1.0000 0.94550  0.87350  0.60420  Biso   1.000  H
  H175     1.0000 0.87650  0.19550  0.85420  Biso   1.000  H
  H176     1.0000 0.55450  0.12650  0.10420  Biso   1.000  H
  C177     1.0000 0.74150  0.63040  0.12240  Biso   1.000  C
  C178     1.0000 0.11960  0.99150  0.37240  Biso   1.000  C
  C179     1.0000 0.75850  0.36960  0.62240  Biso   1.000  C
  C180     1.0000 0.38040  0.00850  0.87240  Biso   1.000  C
  C181     1.0000 0.24150  0.13040  0.62240  Biso   1.000  C
  C182     1.0000 0.61960  0.49150  0.87240  Biso   1.000  C
  C183     1.0000 0.25850  0.86960  0.12240  Biso   1.000  C
  C184     1.0000 0.88040  0.50850  0.37240  Biso   1.000  C
  C185     1.0000 0.25850  0.36960  0.87760  Biso   1.000  C
  C186     1.0000 0.38040  0.50850  0.12760  Biso   1.000  C
  C187     1.0000 0.24150  0.63040  0.37760  Biso   1.000  C
  C188     1.0000 0.11960  0.49150  0.62760  Biso   1.000  C
  C189     1.0000 0.75850  0.86960  0.37760  Biso   1.000  C
  C190     1.0000 0.88040  0.00850  0.62760  Biso   1.000  C
  C191     1.0000 0.74150  0.13040  0.87760  Biso   1.000  C
  C192     1.0000 0.61960  0.99150  0.12760  Biso   1.000  C
  H177     1.0000 0.69510  0.62550  0.13000  Biso   1.000  H
  H178     1.0000 0.12450  0.94510  0.38000  Biso   1.000  H
  H179     1.0000 0.80490  0.37450  0.63000  Biso   1.000  H
  H180     1.0000 0.37550  0.05490  0.88000  Biso   1.000  H
  H181     1.0000 0.19510  0.12550  0.63000  Biso   1.000  H
  H182     1.0000 0.62450  0.44510  0.88000  Biso   1.000  H
  H183     1.0000 0.30490  0.87450  0.13000  Biso   1.000  H
  H184     1.0000 0.87550  0.55490  0.38000  Biso   1.000  H
  H185     1.0000 0.30490  0.37450  0.87000  Biso   1.000  H
  H186     1.0000 0.37550  0.55490  0.12000  Biso   1.000  H
  H187     1.0000 0.19510  0.62550  0.37000  Biso   1.000  H
  H188     1.0000 0.12450  0.44510  0.62000  Biso   1.000  H
  H189     1.0000 0.80490  0.87450  0.37000  Biso   1.000  H
  H190     1.0000 0.87550  0.05490  0.62000  Biso   1.000  H
  H191     1.0000 0.69510  0.12550  0.87000  Biso   1.000  H
  H192     1.0000 0.62450  0.94510  0.12000  Biso   1.000  H
  Cl1      1.0000 0.00000  0.75000  0.06400  Biso   1.000  Cl
  Cl2      1.0000 0.00000  0.25000  0.31400  Biso   1.000  Cl
  Cl3      1.0000 0.50000  0.25000  0.56400  Biso   1.000  Cl
  Cl4      1.0000 0.50000  0.75000  0.81400  Biso   1.000  Cl
  Cl5      1.0000 0.00000  0.25000  0.93600  Biso   1.000  Cl
  Cl6      1.0000 0.50000  0.25000  0.18600  Biso   1.000  Cl
  Cl7      1.0000 0.50000  0.75000  0.43600  Biso   1.000  Cl
  Cl8      1.0000 0.00000  0.75000  0.68600  Biso   1.000  Cl
  Cl9      1.0000 0.59480  0.26910  0.02720  Biso   1.000  Cl
  Cl10     1.0000 0.48090  0.84480  0.27720  Biso   1.000  Cl
  Cl11     1.0000 0.90520  0.73090  0.52720  Biso   1.000  Cl
  Cl12     1.0000 0.01910  0.15520  0.77720  Biso   1.000  Cl
  Cl13     1.0000 0.09480  0.76910  0.52720  Biso   1.000  Cl
  Cl14     1.0000 0.98090  0.34480  0.77720  Biso   1.000  Cl
  Cl15     1.0000 0.40520  0.23090  0.02720  Biso   1.000  Cl
  Cl16     1.0000 0.51910  0.65520  0.27720  Biso   1.000  Cl
  Cl17     1.0000 0.40520  0.73090  0.97280  Biso   1.000  Cl
  Cl18     1.0000 0.01910  0.65520  0.22280  Biso   1.000  Cl
  Cl19     1.0000 0.09480  0.26910  0.47280  Biso   1.000  Cl
  Cl20     1.0000 0.48090  0.34480  0.72280  Biso   1.000  Cl
  Cl21     1.0000 0.90520  0.23090  0.47280  Biso   1.000  Cl
  Cl22     1.0000 0.51910  0.15520  0.72280  Biso   1.000  Cl
  Cl23     1.0000 0.59480  0.76910  0.97280  Biso   1.000  Cl
  Cl24     1.0000 0.98090  0.84480  0.22280  Biso   1.000  Cl
  Cu1      1.0000 0.75000  0.25000  0.75000  Biso   1.000  Cu
  Cu2      1.0000 0.50000  0.00000  0.00000  Biso   1.000  Cu
  Cu3      1.0000 0.75000  0.75000  0.25000  Biso   1.000  Cu
  Cu4      1.0000 0.00000  0.00000  0.50000  Biso   1.000  Cu
  Cu5      1.0000 0.25000  0.75000  0.25000  Biso   1.000  Cu
  Cu6      1.0000 0.00000  0.50000  0.50000  Biso   1.000  Cu
  Cu7      1.0000 0.25000  0.25000  0.75000  Biso   1.000  Cu
  Cu8      1.0000 0.50000  0.50000  0.00000  Biso   1.000  Cu
  N1       1.0000 0.75190  0.38380  0.96060  Biso   1.000  N
  N2       1.0000 0.36620  0.00190  0.21060  Biso   1.000  N
  N3       1.0000 0.74810  0.61620  0.46060  Biso   1.000  N
  N4       1.0000 0.13380  0.99810  0.71060  Biso   1.000  N
  N5       1.0000 0.25190  0.88380  0.46060  Biso   1.000  N
  N6       1.0000 0.86620  0.50190  0.71060  Biso   1.000  N
  N7       1.0000 0.24810  0.11620  0.96060  Biso   1.000  N
  N8       1.0000 0.63380  0.49810  0.21060  Biso   1.000  N
  N9       1.0000 0.24810  0.61620  0.03940  Biso   1.000  N
  N10      1.0000 0.13380  0.49810  0.28940  Biso   1.000  N
  N11      1.0000 0.25190  0.38380  0.53940  Biso   1.000  N
  N12      1.0000 0.36620  0.50190  0.78940  Biso   1.000  N
  N13      1.0000 0.74810  0.11620  0.53940  Biso   1.000  N
  N14      1.0000 0.63380  0.99810  0.78940  Biso   1.000  N
  N15      1.0000 0.75190  0.88380  0.03940  Biso   1.000  N
  N16      1.0000 0.86620  0.00190  0.28940  Biso   1.000  N
  N17      1.0000 0.76670  0.32220  0.84000  Biso   1.000  N
  N18      1.0000 0.42780  0.01670  0.09000  Biso   1.000  N
  N19      1.0000 0.73330  0.67780  0.34000  Biso   1.000  N
  N20      1.0000 0.07220  0.98330  0.59000  Biso   1.000  N
  N21      1.0000 0.26670  0.82220  0.34000  Biso   1.000  N
  N22      1.0000 0.92780  0.51670  0.59000  Biso   1.000  N
  N23      1.0000 0.23330  0.17780  0.84000  Biso   1.000  N
  N24      1.0000 0.57220  0.48330  0.09000  Biso   1.000  N
  N25      1.0000 0.23330  0.67780  0.16000  Biso   1.000  N
  N26      1.0000 0.07220  0.48330  0.41000  Biso   1.000  N
  N27      1.0000 0.26670  0.32220  0.66000  Biso   1.000  N
  N28      1.0000 0.42780  0.51670  0.91000  Biso   1.000  N
  N29      1.0000 0.73330  0.17780  0.66000  Biso   1.000  N
  N30      1.0000 0.57220  0.98330  0.91000  Biso   1.000  N
  N31      1.0000 0.76670  0.82220  0.16000  Biso   1.000  N
  N32      1.0000 0.92780  0.01670  0.41000  Biso   1.000  N
  N33      1.0000 0.80250  0.41090  0.91100  Biso   1.000  N
  N34      1.0000 0.33910  0.05250  0.16100  Biso   1.000  N
  N35      1.0000 0.69750  0.58910  0.41100  Biso   1.000  N
  N36      1.0000 0.16090  0.94750  0.66100  Biso   1.000  N
  N37      1.0000 0.30250  0.91090  0.41100  Biso   1.000  N
  N38      1.0000 0.83910  0.55250  0.66100  Biso   1.000  N
  N39      1.0000 0.19750  0.08910  0.91100  Biso   1.000  N
  N40      1.0000 0.66090  0.44750  0.16100  Biso   1.000  N
  N41      1.0000 0.19750  0.58910  0.08900  Biso   1.000  N
  N42      1.0000 0.16090  0.44750  0.33900  Biso   1.000  N
  N43      1.0000 0.30250  0.41090  0.58900  Biso   1.000  N
  N44      1.0000 0.33910  0.55250  0.83900  Biso   1.000  N
  N45      1.0000 0.69750  0.08910  0.58900  Biso   1.000  N
  N46      1.0000 0.66090  0.94750  0.83900  Biso   1.000  N
  N47      1.0000 0.80250  0.91090  0.08900  Biso   1.000  N
  N48      1.0000 0.83910  0.05250  0.33900  Biso   1.000  N
  N49      1.0000 0.84050  0.61690  0.07800  Biso   1.000  N
  N50      1.0000 0.13310  0.09050  0.32800  Biso   1.000  N
  N51      1.0000 0.65950  0.38310  0.57800  Biso   1.000  N
  N52      1.0000 0.36690  0.90950  0.82800  Biso   1.000  N
  N53      1.0000 0.34050  0.11690  0.57800  Biso   1.000  N
  N54      1.0000 0.63310  0.59050  0.82800  Biso   1.000  N
  N55      1.0000 0.15950  0.88310  0.07800  Biso   1.000  N
  N56      1.0000 0.86690  0.40950  0.32800  Biso   1.000  N
  N57      1.0000 0.15950  0.38310  0.92200  Biso   1.000  N
  N58      1.0000 0.36690  0.40950  0.17200  Biso   1.000  N
  N59      1.0000 0.34050  0.61690  0.42200  Biso   1.000  N
  N60      1.0000 0.13310  0.59050  0.67200  Biso   1.000  N
  N61      1.0000 0.65950  0.88310  0.42200  Biso   1.000  N
  N62      1.0000 0.86690  0.90950  0.67200  Biso   1.000  N
  N63      1.0000 0.84050  0.11690  0.92200  Biso   1.000  N
  N64      1.0000 0.63310  0.09050  0.17200  Biso   1.000  N
  N65      1.0000 0.77760  0.67830  0.16290  Biso   1.000  N
  N66      1.0000 0.07170  0.02760  0.41290  Biso   1.000  N
  N67      1.0000 0.72240  0.32170  0.66290  Biso   1.000  N
  N68      1.0000 0.42830  0.97240  0.91290  Biso   1.000  N
  N69      1.0000 0.27760  0.17830  0.66290  Biso   1.000  N
  N70      1.0000 0.57170  0.52760  0.91290  Biso   1.000  N
  N71      1.0000 0.22240  0.82170  0.16290  Biso   1.000  N
  N72      1.0000 0.92830  0.47240  0.41290  Biso   1.000  N
  N73      1.0000 0.22240  0.32170  0.83710  Biso   1.000  N
  N74      1.0000 0.42830  0.47240  0.08710  Biso   1.000  N
  N75      1.0000 0.27760  0.67830  0.33710  Biso   1.000  N
  N76      1.0000 0.07170  0.52760  0.58710  Biso   1.000  N
  N77      1.0000 0.72240  0.82170  0.33710  Biso   1.000  N
  N78      1.0000 0.92830  0.97240  0.58710  Biso   1.000  N
  N79      1.0000 0.77760  0.17830  0.83710  Biso   1.000  N
  N80      1.0000 0.57170  0.02760  0.08710  Biso   1.000  N
  N81      1.0000 0.77710  0.59070  0.07090  Biso   1.000  N
  N82      1.0000 0.15930  0.02710  0.32090  Biso   1.000  N
  N83      1.0000 0.72290  0.40930  0.57090  Biso   1.000  N
  N84      1.0000 0.34070  0.97290  0.82090  Biso   1.000  N
  N85      1.0000 0.27710  0.09070  0.57090  Biso   1.000  N
  N86      1.0000 0.65930  0.52710  0.82090  Biso   1.000  N
  N87      1.0000 0.22290  0.90930  0.07090  Biso   1.000  N
  N88      1.0000 0.84070  0.47290  0.32090  Biso   1.000  N
  N89      1.0000 0.22290  0.40930  0.92910  Biso   1.000  N
  N90      1.0000 0.34070  0.47290  0.17910  Biso   1.000  N
  N91      1.0000 0.27710  0.59070  0.42910  Biso   1.000  N
  N92      1.0000 0.15930  0.52710  0.67910  Biso   1.000  N
  N93      1.0000 0.72290  0.90930  0.42910  Biso   1.000  N
  N94      1.0000 0.84070  0.97290  0.67910  Biso   1.000  N
  N95      1.0000 0.77710  0.09070  0.92910  Biso   1.000  N
  N96      1.0000 0.65930  0.02710  0.17910  Biso   1.000  N
  O1       1.0000 0.62034  0.23805  0.80770  Biso   1.000  O
  O2       1.0000 0.51195  0.87034  0.05770  Biso   1.000  O
  O3       1.0000 0.87966  0.76195  0.30770  Biso   1.000  O
  O4       1.0000 0.98805  0.12966  0.55770  Biso   1.000  O
  O5       1.0000 0.12034  0.73805  0.30770  Biso   1.000  O
  O6       1.0000 0.01195  0.37034  0.55770  Biso   1.000  O
  O7       1.0000 0.37966  0.26195  0.80770  Biso   1.000  O
  O8       1.0000 0.48805  0.62966  0.05770  Biso   1.000  O
  O9       1.0000 0.37966  0.76195  0.19230  Biso   1.000  O
  O10      1.0000 0.98805  0.62966  0.44230  Biso   1.000  O
  O11      1.0000 0.12034  0.23805  0.69230  Biso   1.000  O
  O12      1.0000 0.51195  0.37034  0.94230  Biso   1.000  O
  O13      1.0000 0.87966  0.26195  0.69230  Biso   1.000  O
  O14      1.0000 0.48805  0.12966  0.94230  Biso   1.000  O
  O15      1.0000 0.62034  0.73805  0.19230  Biso   1.000  O
  O16      1.0000 0.01195  0.87034  0.44230  Biso   1.000  O
