data_image0
_cell_length_a       7.6342
_cell_length_b       8.457
_cell_length_c       11.119
_cell_angle_alpha    78.02
_cell_angle_beta     89.02
_cell_angle_gamma    72.56

_symmetry_space_group_name_H-M    "P 1"
_symmetry_int_tables_number       1

loop_
  _symmetry_equiv_pos_as_xyz
  'x, y, z'

loop_
  _atom_site_label
  _atom_site_occupancy
  _atom_site_fract_x
  _atom_site_fract_y
  _atom_site_fract_z
  _atom_site_thermal_displace_type
  _atom_site_B_iso_or_equiv
  _atom_site_type_symbol
  C1       1.0000 0.93390  0.31190  0.11780  Biso   1.000  C
  C2       1.0000 0.06610  0.68810  0.88220  Biso   1.000  C
  H1       1.0000 0.80690  0.33700  0.10970  Biso   1.000  H
  H2       1.0000 0.19310  0.66300  0.89030  Biso   1.000  H
  C3       1.0000 0.21630  0.18640  0.11210  Biso   1.000  C
  C4       1.0000 0.78370  0.81360  0.88790  Biso   1.000  C
  H3       1.0000 0.32840  0.10970  0.10100  Biso   1.000  H
  H4       1.0000 0.67160  0.89030  0.89900  Biso   1.000  H
  C5       1.0000 0.34260  0.39340  0.18666  Biso   1.000  C
  C6       1.0000 0.65740  0.60660  0.81334  Biso   1.000  C
  H5       1.0000 0.29240  0.51530  0.17760  Biso   1.000  H
  H6       1.0000 0.70760  0.48470  0.82240  Biso   1.000  H
  H7       1.0000 0.43970  0.37190  0.12930  Biso   1.000  H
  H8       1.0000 0.56030  0.62810  0.87070  Biso   1.000  H
  C7       1.0000 0.42350  0.31610  0.31626  Biso   1.000  C
  C8       1.0000 0.57650  0.68390  0.68374  Biso   1.000  C
  C9       1.0000 0.58840  0.18600  0.33860  Biso   1.000  C
  C10      1.0000 0.41160  0.81400  0.66140  Biso   1.000  C
  H9       1.0000 0.65010  0.14560  0.27300  Biso   1.000  H
  H10      1.0000 0.34990  0.85440  0.72700  Biso   1.000  H
  C11      1.0000 0.66190  0.11560  0.45760  Biso   1.000  C
  C12      1.0000 0.33810  0.88440  0.54240  Biso   1.000  C
  H11      1.0000 0.77180  0.02760  0.47190  Biso   1.000  H
  H12      1.0000 0.22820  0.97240  0.52810  Biso   1.000  H
  C13      1.0000 0.57170  0.17650  0.55490  Biso   1.000  C
  C14      1.0000 0.42830  0.82350  0.44510  Biso   1.000  C
  H13      1.0000 0.62110  0.12860  0.63470  Biso   1.000  H
  H14      1.0000 0.37890  0.87140  0.36530  Biso   1.000  H
  C15      1.0000 0.40840  0.30810  0.53504  Biso   1.000  C
  C16      1.0000 0.59160  0.69190  0.46496  Biso   1.000  C
  C17      1.0000 0.33460  0.37690  0.41548  Biso   1.000  C
  C18      1.0000 0.66540  0.62310  0.58452  Biso   1.000  C
  H15      1.0000 0.22450  0.46460  0.40150  Biso   1.000  H
  H16      1.0000 0.77550  0.53540  0.59850  Biso   1.000  H
  C19      1.0000 0.31110  0.37620  0.64142  Biso   1.000  C
  C20      1.0000 0.68890  0.62380  0.35858  Biso   1.000  C
  H17      1.0000 0.40150  0.37890  0.70060  Biso   1.000  H
  H18      1.0000 0.59850  0.62110  0.29940  Biso   1.000  H
  H19      1.0000 0.23300  0.49160  0.61150  Biso   1.000  H
  H20      1.0000 0.76700  0.50840  0.38850  Biso   1.000  H
  C21      1.0000 0.21180  0.18850  0.81872  Biso   1.000  C
  C22      1.0000 0.78820  0.81150  0.18128  Biso   1.000  C
  H21      1.0000 0.30370  0.17810  0.87630  Biso   1.000  H
  H22      1.0000 0.69630  0.82190  0.12370  Biso   1.000  H
  C23      1.0000 0.98060  0.17020  0.73045  Biso   1.000  C
  C24      1.0000 0.01940  0.82980  0.26955  Biso   1.000  C
  H23      1.0000 0.87530  0.14110  0.71730  Biso   1.000  H
  H24      1.0000 0.12470  0.85890  0.28270  Biso   1.000  H
  Cl1      1.0000 0.37099  0.80376  0.05176  Biso   1.000  Cl
  Cl2      1.0000 0.62901  0.19624  0.94824  Biso   1.000  Cl
  Cu1      1.0000 0.00000  0.00000  0.00000  Biso   1.000  Cu
  N1       1.0000 0.05210  0.17250  0.08751  Biso   1.000  N
  N2       1.0000 0.94790  0.82750  0.91249  Biso   1.000  N
  N3       1.0000 0.19620  0.32550  0.15467  Biso   1.000  N
  N4       1.0000 0.80380  0.67450  0.84533  Biso   1.000  N
  N5       1.0000 0.01420  0.40920  0.15980  Biso   1.000  N
  N6       1.0000 0.98580  0.59080  0.84020  Biso   1.000  N
  N7       1.0000 0.19830  0.27230  0.70301  Biso   1.000  N
  N8       1.0000 0.80170  0.72770  0.29699  Biso   1.000  N
  N9       1.0000 0.07500  0.12130  0.84057  Biso   1.000  N
  N10      1.0000 0.92500  0.87870  0.15943  Biso   1.000  N
  N11      1.0000 0.04950  0.26180  0.64354  Biso   1.000  N
  N12      1.0000 0.95050  0.73820  0.35646  Biso   1.000  N
