data_image0
_cell_length_a       7.5899
_cell_length_b       8.4067
_cell_length_c       11.075
_cell_angle_alpha    77.674
_cell_angle_beta     88.902
_cell_angle_gamma    72.378

_symmetry_space_group_name_H-M    "P 1"
_symmetry_int_tables_number       1

loop_
  _symmetry_equiv_pos_as_xyz
  'x, y, z'

loop_
  _atom_site_label
  _atom_site_occupancy
  _atom_site_fract_x
  _atom_site_fract_y
  _atom_site_fract_z
  _atom_site_thermal_displace_type
  _atom_site_B_iso_or_equiv
  _atom_site_type_symbol
  Cu1      1.0000 0.00000  0.00000  0.00000  Biso   1.000  Cu
  Cl1      1.0000 0.37065  0.80387  0.05115  Biso   1.000  Cl
  Cl2      1.0000 0.62935  0.19613  0.94885  Biso   1.000  Cl
  N1       1.0000 0.19650  0.32560  0.15494  Biso   1.000  N
  N2       1.0000 0.80350  0.67440  0.84506  Biso   1.000  N
  N3       1.0000 0.01290  0.41000  0.16000  Biso   1.000  N
  N4       1.0000 0.98710  0.59000  0.84000  Biso   1.000  N
  N5       1.0000 0.05190  0.17230  0.08806  Biso   1.000  N
  N6       1.0000 0.94810  0.82770  0.91194  Biso   1.000  N
  N7       1.0000 0.20100  0.27300  0.70319  Biso   1.000  N
  N8       1.0000 0.79900  0.72700  0.29681  Biso   1.000  N
  N9       1.0000 0.05100  0.26510  0.64350  Biso   1.000  N
  N10      1.0000 0.94900  0.73490  0.35650  Biso   1.000  N
  N11      1.0000 0.07550  0.12280  0.84088  Biso   1.000  N
  N12      1.0000 0.92450  0.87720  0.15912  Biso   1.000  N
  C1       1.0000 0.42580  0.31460  0.31580  Biso   1.000  C
  C2       1.0000 0.57420  0.68540  0.68420  Biso   1.000  C
  C3       1.0000 0.33810  0.37580  0.41570  Biso   1.000  C
  C4       1.0000 0.66190  0.62420  0.58430  Biso   1.000  C
  H1       1.0000 0.22520  0.46680  0.40160  Biso   1.000  H
  H2       1.0000 0.77480  0.53320  0.59840  Biso   1.000  H
  C5       1.0000 0.41290  0.30600  0.53530  Biso   1.000  C
  C6       1.0000 0.58710  0.69400  0.46470  Biso   1.000  C
  C7       1.0000 0.57670  0.17170  0.55520  Biso   1.000  C
  C8       1.0000 0.42330  0.82830  0.44480  Biso   1.000  C
  H3       1.0000 0.62770  0.12100  0.63710  Biso   1.000  H
  H4       1.0000 0.37230  0.87900  0.36290  Biso   1.000  H
  C9       1.0000 0.66590  0.11140  0.45690  Biso   1.000  C
  C10      1.0000 0.33410  0.88860  0.54310  Biso   1.000  C
  H5       1.0000 0.77890  0.02050  0.47120  Biso   1.000  H
  H6       1.0000 0.22110  0.97950  0.52880  Biso   1.000  H
  C11      1.0000 0.59130  0.18290  0.33780  Biso   1.000  C
  C12      1.0000 0.40870  0.81710  0.66220  Biso   1.000  C
  H7       1.0000 0.65400  0.14140  0.27040  Biso   1.000  H
  H8       1.0000 0.34600  0.85860  0.72960  Biso   1.000  H
  C13      1.0000 0.34310  0.39330  0.18620  Biso   1.000  C
  C14      1.0000 0.65690  0.60670  0.81380  Biso   1.000  C
  H9       1.0000 0.29120  0.51860  0.17700  Biso   1.000  H
  H10      1.0000 0.70880  0.48140  0.82300  Biso   1.000  H
  H11      1.0000 0.44230  0.37170  0.12690  Biso   1.000  H
  H12      1.0000 0.55770  0.62830  0.87310  Biso   1.000  H
  C15      1.0000 0.31720  0.37450  0.64200  Biso   1.000  C
  C16      1.0000 0.68280  0.62550  0.35800  Biso   1.000  C
  H13      1.0000 0.41130  0.37390  0.70290  Biso   1.000  H
  H14      1.0000 0.58870  0.62610  0.29710  Biso   1.000  H
  H15      1.0000 0.23940  0.49430  0.61160  Biso   1.000  H
  H16      1.0000 0.76060  0.50570  0.38840  Biso   1.000  H
  C17      1.0000 0.93270  0.31260  0.11830  Biso   1.000  C
  C18      1.0000 0.06730  0.68740  0.88170  Biso   1.000  C
  H17      1.0000 0.80220  0.33860  0.10990  Biso   1.000  H
  H18      1.0000 0.19780  0.66140  0.89010  Biso   1.000  H
  C19      1.0000 0.21730  0.18570  0.11270  Biso   1.000  C
  C20      1.0000 0.78270  0.81430  0.88730  Biso   1.000  C
  H19      1.0000 0.33280  0.10670  0.10160  Biso   1.000  H
  H20      1.0000 0.66720  0.89330  0.89840  Biso   1.000  H
  C21      1.0000 0.98020  0.17420  0.73040  Biso   1.000  C
  C22      1.0000 0.01980  0.82580  0.26960  Biso   1.000  C
  H21      1.0000 0.87070  0.14670  0.71690  Biso   1.000  H
  H22      1.0000 0.12930  0.85330  0.28310  Biso   1.000  H
  C23      1.0000 0.21420  0.18840  0.81940  Biso   1.000  C
  C24      1.0000 0.78580  0.81160  0.18060  Biso   1.000  C
  H23      1.0000 0.30890  0.17630  0.87870  Biso   1.000  H
  H24      1.0000 0.69110  0.82370  0.12130  Biso   1.000  H
