data_image0
_cell_length_a       7.7548
_cell_length_b       21.365
_cell_length_c       8.383
_cell_angle_alpha    90
_cell_angle_beta     100
_cell_angle_gamma    90

_symmetry_space_group_name_H-M    "P 1"
_symmetry_int_tables_number       1

loop_
  _symmetry_equiv_pos_as_xyz
  'x, y, z'

loop_
  _atom_site_label
  _atom_site_occupancy
  _atom_site_fract_x
  _atom_site_fract_y
  _atom_site_fract_z
  _atom_site_thermal_displace_type
  _atom_site_B_iso_or_equiv
  _atom_site_type_symbol
  C1       1.0000 0.31630  0.43770  0.24360  Biso   1.000  C
  C2       1.0000 0.68370  0.93770  0.25640  Biso   1.000  C
  C3       1.0000 0.68370  0.56230  0.75640  Biso   1.000  C
  C4       1.0000 0.31630  0.06230  0.74360  Biso   1.000  C
  H1       1.0000 0.20860  0.43790  0.17450  Biso   1.000  H
  H2       1.0000 0.79140  0.93790  0.32550  Biso   1.000  H
  H3       1.0000 0.79140  0.56210  0.82550  Biso   1.000  H
  H4       1.0000 0.20860  0.06210  0.67450  Biso   1.000  H
  C5       1.0000 0.58510  0.44860  0.34630  Biso   1.000  C
  C6       1.0000 0.41490  0.94860  0.15370  Biso   1.000  C
  C7       1.0000 0.41490  0.55140  0.65370  Biso   1.000  C
  C8       1.0000 0.58510  0.05140  0.84630  Biso   1.000  C
  H5       1.0000 0.70280  0.45920  0.35590  Biso   1.000  H
  H6       1.0000 0.29720  0.95920  0.14410  Biso   1.000  H
  H7       1.0000 0.29720  0.54080  0.64410  Biso   1.000  H
  H8       1.0000 0.70280  0.04080  0.85590  Biso   1.000  H
  C9       1.0000 0.21890  0.39446  0.49470  Biso   1.000  C
  C10      1.0000 0.78110  0.89446  0.00530  Biso   1.000  C
  C11      1.0000 0.78110  0.60554  0.50530  Biso   1.000  C
  C12      1.0000 0.21890  0.10554  0.99470  Biso   1.000  C
  H9       1.0000 0.14680  0.42960  0.51560  Biso   1.000  H
  H10      1.0000 0.85320  0.92960  0.98440  Biso   1.000  H
  H11      1.0000 0.85320  0.57040  0.48440  Biso   1.000  H
  H12      1.0000 0.14680  0.07040  0.01560  Biso   1.000  H
  H13      1.0000 0.28190  0.37980  0.59810  Biso   1.000  H
  H14      1.0000 0.71810  0.87980  0.90190  Biso   1.000  H
  H15      1.0000 0.71810  0.62020  0.40190  Biso   1.000  H
  H16      1.0000 0.28190  0.12020  0.09810  Biso   1.000  H
  C13      1.0000 0.10090  0.34236  0.41630  Biso   1.000  C
  C14      1.0000 0.89910  0.84236  0.08370  Biso   1.000  C
  C15      1.0000 0.89910  0.65764  0.58370  Biso   1.000  C
  C16      1.0000 0.10090  0.15764  0.91630  Biso   1.000  C
  C17      1.0000 0.13180  0.28072  0.46650  Biso   1.000  C
  C18      1.0000 0.86820  0.78072  0.03350  Biso   1.000  C
  C19      1.0000 0.86820  0.71928  0.53350  Biso   1.000  C
  C20      1.0000 0.13180  0.21928  0.96650  Biso   1.000  C
  H17      1.0000 0.22640  0.27120  0.54720  Biso   1.000  H
  H18      1.0000 0.77360  0.77120  0.95280  Biso   1.000  H
  H19      1.0000 0.77360  0.72880  0.45280  Biso   1.000  H
  H20      1.0000 0.22640  0.22880  0.04720  Biso   1.000  H
  C21      1.0000 0.02100  0.23324  0.39580  Biso   1.000  C
  C22      1.0000 0.97900  0.73324  0.10420  Biso   1.000  C
  C23      1.0000 0.97900  0.76676  0.60420  Biso   1.000  C
  C24      1.0000 0.02100  0.26676  0.89580  Biso   1.000  C
  H21      1.0000 0.04280  0.19210  0.42980  Biso   1.000  H
  H22      1.0000 0.95720  0.69210  0.07020  Biso   1.000  H
  H23      1.0000 0.95720  0.80790  0.57020  Biso   1.000  H
  H24      1.0000 0.04280  0.30790  0.92980  Biso   1.000  H
  C25      1.0000 0.87720  0.24645  0.27420  Biso   1.000  C
  C26      1.0000 0.12280  0.74645  0.22580  Biso   1.000  C
  C27      1.0000 0.12280  0.75355  0.72580  Biso   1.000  C
  C28      1.0000 0.87720  0.25355  0.77420  Biso   1.000  C
  C29      1.0000 0.84410  0.30819  0.22740  Biso   1.000  C
  C30      1.0000 0.15590  0.80819  0.27260  Biso   1.000  C
  C31      1.0000 0.15590  0.69181  0.77260  Biso   1.000  C
  C32      1.0000 0.84410  0.19181  0.72740  Biso   1.000  C
  H25      1.0000 0.74720  0.31780  0.14930  Biso   1.000  H
  H26      1.0000 0.25280  0.81780  0.35070  Biso   1.000  H
  H27      1.0000 0.25280  0.68220  0.85070  Biso   1.000  H
  H28      1.0000 0.74720  0.18220  0.64930  Biso   1.000  H
  C33      1.0000 0.95520  0.35577  0.29680  Biso   1.000  C
  C34      1.0000 0.04480  0.85577  0.20320  Biso   1.000  C
  C35      1.0000 0.04480  0.64423  0.70320  Biso   1.000  C
  C36      1.0000 0.95520  0.14423  0.79680  Biso   1.000  C
  H29      1.0000 0.93260  0.39690  0.26350  Biso   1.000  H
  H30      1.0000 0.06740  0.89690  0.23650  Biso   1.000  H
  H31      1.0000 0.06740  0.60310  0.73650  Biso   1.000  H
  H32      1.0000 0.93260  0.10310  0.76350  Biso   1.000  H
  C37      1.0000 0.76380  0.19443  0.18700  Biso   1.000  C
  C38      1.0000 0.23620  0.69443  0.31300  Biso   1.000  C
  C39      1.0000 0.23620  0.80557  0.81300  Biso   1.000  C
  C40      1.0000 0.76380  0.30557  0.68700  Biso   1.000  C
  H33      1.0000 0.68480  0.21240  0.09620  Biso   1.000  H
  H34      1.0000 0.31520  0.71240  0.40380  Biso   1.000  H
  H35      1.0000 0.31520  0.78760  0.90380  Biso   1.000  H
  H36      1.0000 0.68480  0.28760  0.59620  Biso   1.000  H
  H37      1.0000 0.83880  0.16490  0.14380  Biso   1.000  H
  H38      1.0000 0.16120  0.66490  0.35620  Biso   1.000  H
  H39      1.0000 0.16120  0.83510  0.85620  Biso   1.000  H
  H40      1.0000 0.83880  0.33510  0.64380  Biso   1.000  H
  C41      1.0000 0.66720  0.10001  0.32550  Biso   1.000  C
  C42      1.0000 0.33280  0.60001  0.17450  Biso   1.000  C
  C43      1.0000 0.33280  0.89999  0.67450  Biso   1.000  C
  C44      1.0000 0.66720  0.39999  0.82550  Biso   1.000  C
  H41      1.0000 0.74780  0.07170  0.29730  Biso   1.000  H
  H42      1.0000 0.25220  0.57170  0.20270  Biso   1.000  H
  H43      1.0000 0.25220  0.92830  0.70270  Biso   1.000  H
  H44      1.0000 0.74780  0.42830  0.79730  Biso   1.000  H
  C45      1.0000 0.45980  0.14216  0.41760  Biso   1.000  C
  C46      1.0000 0.54020  0.64216  0.08240  Biso   1.000  C
  C47      1.0000 0.54020  0.85784  0.58240  Biso   1.000  C
  C48      1.0000 0.45980  0.35784  0.91760  Biso   1.000  C
  H45      1.0000 0.36460  0.14690  0.47040  Biso   1.000  H
  H46      1.0000 0.63540  0.64690  0.02960  Biso   1.000  H
  H47      1.0000 0.63540  0.85310  0.52960  Biso   1.000  H
  H48      1.0000 0.36460  0.35310  0.97040  Biso   1.000  H
  Cu1      1.0000 0.50000  0.50000  0.00000  Biso   1.000  Cu
  Cu2      1.0000 0.50000  0.00000  0.50000  Biso   1.000  Cu
  N1       1.0000 0.46530  0.45892  0.20725  Biso   1.000  N
  N2       1.0000 0.53470  0.95892  0.29275  Biso   1.000  N
  N3       1.0000 0.53470  0.54108  0.79275  Biso   1.000  N
  N4       1.0000 0.46530  0.04108  0.70725  Biso   1.000  N
  N5       1.0000 0.51930  0.42265  0.46390  Biso   1.000  N
  N6       1.0000 0.48070  0.92265  0.03610  Biso   1.000  N
  N7       1.0000 0.48070  0.57735  0.53610  Biso   1.000  N
  N8       1.0000 0.51930  0.07735  0.96390  Biso   1.000  N
  N9       1.0000 0.34590  0.41598  0.39561  Biso   1.000  N
  N10      1.0000 0.65410  0.91598  0.10439  Biso   1.000  N
  N11      1.0000 0.65410  0.58402  0.60439  Biso   1.000  N
  N12      1.0000 0.34590  0.08402  0.89561  Biso   1.000  N
  N13      1.0000 0.66090  0.16063  0.28915  Biso   1.000  N
  N14      1.0000 0.33910  0.66063  0.21085  Biso   1.000  N
  N15      1.0000 0.33910  0.83937  0.71085  Biso   1.000  N
  N16      1.0000 0.66090  0.33937  0.78915  Biso   1.000  N
  N17      1.0000 0.54152  0.08611  0.40790  Biso   1.000  N
  N18      1.0000 0.45848  0.58611  0.09210  Biso   1.000  N
  N19      1.0000 0.45848  0.91389  0.59210  Biso   1.000  N
  N20      1.0000 0.54152  0.41389  0.90790  Biso   1.000  N
  N21      1.0000 0.52610  0.18893  0.34652  Biso   1.000  N
  N22      1.0000 0.47390  0.68893  0.15348  Biso   1.000  N
  N23      1.0000 0.47390  0.81107  0.65348  Biso   1.000  N
  N24      1.0000 0.52610  0.31107  0.84652  Biso   1.000  N
  N25      1.0000 0.08768  0.46717  0.83129  Biso   1.000  N
  N26      1.0000 0.91232  0.96717  0.66871  Biso   1.000  N
  N27      1.0000 0.91232  0.53283  0.16871  Biso   1.000  N
  N28      1.0000 0.08768  0.03283  0.33129  Biso   1.000  N
  O1       1.0000 0.08407  0.41270  0.88474  Biso   1.000  O
  O2       1.0000 0.91593  0.91270  0.61526  Biso   1.000  O
  O3       1.0000 0.91593  0.58730  0.11526  Biso   1.000  O
  O4       1.0000 0.08407  0.08730  0.38474  Biso   1.000  O
  O5       1.0000 0.98162  0.48115  0.70084  Biso   1.000  O
  O6       1.0000 0.01838  0.98115  0.79916  Biso   1.000  O
  O7       1.0000 0.01838  0.51885  0.29916  Biso   1.000  O
  O8       1.0000 0.98162  0.01885  0.20084  Biso   1.000  O
  O9       1.0000 0.18786  0.50684  0.90352  Biso   1.000  O
  O10      1.0000 0.81214  0.00684  0.59648  Biso   1.000  O
  O11      1.0000 0.81214  0.49316  0.09648  Biso   1.000  O
  O12      1.0000 0.18786  0.99316  0.40352  Biso   1.000  O
