data_image0
_cell_length_a       30.261
_cell_length_b       9.6957
_cell_length_c       21.35
_cell_angle_alpha    90
_cell_angle_beta     120.61
_cell_angle_gamma    90

_symmetry_space_group_name_H-M    "P 1"
_symmetry_int_tables_number       1

loop_
  _symmetry_equiv_pos_as_xyz
  'x, y, z'

loop_
  _atom_site_label
  _atom_site_occupancy
  _atom_site_fract_x
  _atom_site_fract_y
  _atom_site_fract_z
  _atom_site_thermal_displace_type
  _atom_site_B_iso_or_equiv
  _atom_site_type_symbol
  Cu1      1.0000 0.25242  0.59731  0.03979  Biso   1.000  Cu
  Cu2      1.0000 0.74758  0.59731  0.96021  Biso   1.000  Cu
  Cu3      1.0000 0.75242  0.09731  0.03979  Biso   1.000  Cu
  Cu4      1.0000 0.24758  0.09731  0.96021  Biso   1.000  Cu
  Cu5      1.0000 0.76477  0.56571  0.48212  Biso   1.000  Cu
  Cu6      1.0000 0.23523  0.56571  0.51788  Biso   1.000  Cu
  Cu7      1.0000 0.26477  0.06571  0.48212  Biso   1.000  Cu
  Cu8      1.0000 0.73523  0.06571  0.51788  Biso   1.000  Cu
  P1       1.0000 0.26084  0.78764  0.91694  Biso   1.000  P
  P2       1.0000 0.73916  0.78764  0.08306  Biso   1.000  P
  P3       1.0000 0.76084  0.28764  0.91694  Biso   1.000  P
  P4       1.0000 0.23916  0.28764  0.08306  Biso   1.000  P
  P5       1.0000 0.75860  0.26920  0.42059  Biso   1.000  P
  P6       1.0000 0.24140  0.26920  0.57941  Biso   1.000  P
  P7       1.0000 0.25860  0.76920  0.42059  Biso   1.000  P
  P8       1.0000 0.74140  0.76920  0.57941  Biso   1.000  P
  C1       1.0000 0.34810  0.53990  0.17710  Biso   1.000  C
  C2       1.0000 0.65190  0.53990  0.82290  Biso   1.000  C
  C3       1.0000 0.84810  0.03990  0.17710  Biso   1.000  C
  C4       1.0000 0.15190  0.03990  0.82290  Biso   1.000  C
  H1       1.0000 0.32430  0.51910  0.19220  Biso   1.000  H
  H2       1.0000 0.67570  0.51910  0.80780  Biso   1.000  H
  H3       1.0000 0.82430  0.01910  0.19220  Biso   1.000  H
  H4       1.0000 0.17570  0.01910  0.80780  Biso   1.000  H
  C5       1.0000 0.39990  0.53190  0.22870  Biso   1.000  C
  C6       1.0000 0.60010  0.53190  0.77130  Biso   1.000  C
  C7       1.0000 0.89990  0.03190  0.22870  Biso   1.000  C
  C8       1.0000 0.10010  0.03190  0.77130  Biso   1.000  C
  H5       1.0000 0.41080  0.50490  0.27720  Biso   1.000  H
  H6       1.0000 0.58920  0.50490  0.72280  Biso   1.000  H
  H7       1.0000 0.91080  0.00490  0.27720  Biso   1.000  H
  H8       1.0000 0.08920  0.00490  0.72280  Biso   1.000  H
  C9       1.0000 0.43590  0.56460  0.20790  Biso   1.000  C
  C10      1.0000 0.56410  0.56460  0.79210  Biso   1.000  C
  C11      1.0000 0.93590  0.06460  0.20790  Biso   1.000  C
  C12      1.0000 0.06410  0.06460  0.79210  Biso   1.000  C
  C13      1.0000 0.41660  0.59970  0.13500  Biso   1.000  C
  C14      1.0000 0.58340  0.59970  0.86500  Biso   1.000  C
  C15      1.0000 0.91660  0.09970  0.13500  Biso   1.000  C
  C16      1.0000 0.08340  0.09970  0.86500  Biso   1.000  C
  H9       1.0000 0.43920  0.62080  0.11780  Biso   1.000  H
  H10      1.0000 0.56080  0.62080  0.88220  Biso   1.000  H
  H11      1.0000 0.93920  0.12080  0.11780  Biso   1.000  H
  H12      1.0000 0.06080  0.12080  0.88220  Biso   1.000  H
  C17      1.0000 0.36400  0.60330  0.08830  Biso   1.000  C
  C18      1.0000 0.63600  0.60330  0.91170  Biso   1.000  C
  C19      1.0000 0.86400  0.10330  0.08830  Biso   1.000  C
  C20      1.0000 0.13600  0.10330  0.91170  Biso   1.000  C
  H13      1.0000 0.35140  0.62780  0.03890  Biso   1.000  H
  H14      1.0000 0.64860  0.62780  0.96110  Biso   1.000  H
  H15      1.0000 0.85140  0.12780  0.03890  Biso   1.000  H
  H16      1.0000 0.14860  0.12780  0.96110  Biso   1.000  H
  C21      1.0000 0.49060  0.55540  0.26210  Biso   1.000  C
  C22      1.0000 0.50940  0.55540  0.73790  Biso   1.000  C
  C23      1.0000 0.99060  0.05540  0.26210  Biso   1.000  C
  C24      1.0000 0.00940  0.05540  0.73790  Biso   1.000  C
  H17      1.0000 0.50000  0.54880  0.31180  Biso   1.000  H
  H18      1.0000 0.50000  0.54880  0.68820  Biso   1.000  H
  H19      1.0000 0.00000  0.04880  0.31180  Biso   1.000  H
  H20      1.0000 0.00000  0.04880  0.68820  Biso   1.000  H
  C25      1.0000 0.52910  0.55560  0.24700  Biso   1.000  C
  C26      1.0000 0.47090  0.55560  0.75300  Biso   1.000  C
  C27      1.0000 0.02910  0.05560  0.24700  Biso   1.000  C
  C28      1.0000 0.97090  0.05560  0.75300  Biso   1.000  C
  H21      1.0000 0.51980  0.55810  0.19730  Biso   1.000  H
  H22      1.0000 0.48020  0.55810  0.80270  Biso   1.000  H
  H23      1.0000 0.01980  0.05810  0.19730  Biso   1.000  H
  H24      1.0000 0.98020  0.05810  0.80270  Biso   1.000  H
  C29      1.0000 0.58450  0.55240  0.30220  Biso   1.000  C
  C30      1.0000 0.41550  0.55240  0.69780  Biso   1.000  C
  C31      1.0000 0.08450  0.05240  0.30220  Biso   1.000  C
  C32      1.0000 0.91550  0.05240  0.69780  Biso   1.000  C
  C33      1.0000 0.62060  0.57680  0.28140  Biso   1.000  C
  C34      1.0000 0.37940  0.57680  0.71860  Biso   1.000  C
  C35      1.0000 0.12060  0.07680  0.28140  Biso   1.000  C
  C36      1.0000 0.87940  0.07680  0.71860  Biso   1.000  C
  H25      1.0000 0.60970  0.59080  0.23150  Biso   1.000  H
  H26      1.0000 0.39030  0.59080  0.76850  Biso   1.000  H
  H27      1.0000 0.10970  0.09080  0.23150  Biso   1.000  H
  H28      1.0000 0.89030  0.09080  0.76850  Biso   1.000  H
  C37      1.0000 0.60190  0.53080  0.37540  Biso   1.000  C
  C38      1.0000 0.39810  0.53080  0.62460  Biso   1.000  C
  C39      1.0000 0.10190  0.03080  0.37540  Biso   1.000  C
  C40      1.0000 0.89810  0.03080  0.62460  Biso   1.000  C
  H29      1.0000 0.57860  0.51200  0.39170  Biso   1.000  H
  H30      1.0000 0.42140  0.51200  0.60830  Biso   1.000  H
  H31      1.0000 0.07860  0.01200  0.39170  Biso   1.000  H
  H32      1.0000 0.92140  0.01200  0.60830  Biso   1.000  H
  C41      1.0000 0.15330  0.48750  0.92670  Biso   1.000  C
  C42      1.0000 0.84670  0.48750  0.07330  Biso   1.000  C
  C43      1.0000 0.65330  0.98750  0.92670  Biso   1.000  C
  C44      1.0000 0.34670  0.98750  0.07330  Biso   1.000  C
  H33      1.0000 0.17120  0.40220  0.94180  Biso   1.000  H
  H34      1.0000 0.82880  0.40220  0.05820  Biso   1.000  H
  H35      1.0000 0.67120  0.90220  0.94180  Biso   1.000  H
  H36      1.0000 0.32880  0.90220  0.05820  Biso   1.000  H
  C45      1.0000 0.10360  0.48810  0.86940  Biso   1.000  C
  C46      1.0000 0.89640  0.48810  0.13060  Biso   1.000  C
  C47      1.0000 0.60360  0.98810  0.86940  Biso   1.000  C
  C48      1.0000 0.39640  0.98810  0.13060  Biso   1.000  C
  H37      1.0000 0.08760  0.40410  0.84580  Biso   1.000  H
  H38      1.0000 0.91240  0.40410  0.15420  Biso   1.000  H
  H39      1.0000 0.58760  0.90410  0.84580  Biso   1.000  H
  H40      1.0000 0.41240  0.90410  0.15420  Biso   1.000  H
  C49      1.0000 0.07670  0.61160  0.84570  Biso   1.000  C
  C50      1.0000 0.92330  0.61160  0.15430  Biso   1.000  C
  C51      1.0000 0.57670  0.11160  0.84570  Biso   1.000  C
  C52      1.0000 0.42330  0.11160  0.15430  Biso   1.000  C
  C53      1.0000 0.10150  0.72700  0.88450  Biso   1.000  C
  C54      1.0000 0.89850  0.72700  0.11550  Biso   1.000  C
  C55      1.0000 0.60150  0.22700  0.88450  Biso   1.000  C
  C56      1.0000 0.39850  0.22700  0.11550  Biso   1.000  C
  H41      1.0000 0.08440  0.81340  0.87200  Biso   1.000  H
  H42      1.0000 0.91560  0.81340  0.12800  Biso   1.000  H
  H43      1.0000 0.58440  0.31340  0.87200  Biso   1.000  H
  H44      1.0000 0.41560  0.31340  0.12800  Biso   1.000  H
  C57      1.0000 0.15210  0.71800  0.94250  Biso   1.000  C
  C58      1.0000 0.84790  0.71800  0.05750  Biso   1.000  C
  C59      1.0000 0.65210  0.21800  0.94250  Biso   1.000  C
  C60      1.0000 0.34790  0.21800  0.05750  Biso   1.000  C
  H45      1.0000 0.16860  0.79950  0.96870  Biso   1.000  H
  H46      1.0000 0.83140  0.79950  0.03130  Biso   1.000  H
  H47      1.0000 0.66860  0.29950  0.96870  Biso   1.000  H
  H48      1.0000 0.33140  0.29950  0.03130  Biso   1.000  H
  C61      1.0000 0.02350  0.62430  0.78330  Biso   1.000  C
  C62      1.0000 0.97650  0.62430  0.21670  Biso   1.000  C
  C63      1.0000 0.52350  0.12430  0.78330  Biso   1.000  C
  C64      1.0000 0.47650  0.12430  0.21670  Biso   1.000  C
  H49      1.0000 0.00970  0.71460  0.76980  Biso   1.000  H
  H50      1.0000 0.99030  0.71460  0.23020  Biso   1.000  H
  H51      1.0000 0.50970  0.21460  0.76980  Biso   1.000  H
  H52      1.0000 0.49030  0.21460  0.23020  Biso   1.000  H
  C65      1.0000 0.99290  0.51790  0.74400  Biso   1.000  C
  C66      1.0000 0.00710  0.51790  0.25600  Biso   1.000  C
  C67      1.0000 0.49290  0.01790  0.74400  Biso   1.000  C
  C68      1.0000 0.50710  0.01790  0.25600  Biso   1.000  C
  H53      1.0000 0.00650  0.42710  0.75650  Biso   1.000  H
  H54      1.0000 0.99350  0.42710  0.24350  Biso   1.000  H
  H55      1.0000 0.50650  0.92710  0.75650  Biso   1.000  H
  H56      1.0000 0.49350  0.92710  0.24350  Biso   1.000  H
  C69      1.0000 0.94020  0.53440  0.68340  Biso   1.000  C
  C70      1.0000 0.05980  0.53440  0.31660  Biso   1.000  C
  C71      1.0000 0.44020  0.03440  0.68340  Biso   1.000  C
  C72      1.0000 0.55980  0.03440  0.31660  Biso   1.000  C
  C73      1.0000 0.91650  0.65840  0.65540  Biso   1.000  C
  C74      1.0000 0.08350  0.65840  0.34460  Biso   1.000  C
  C75      1.0000 0.41650  0.15840  0.65540  Biso   1.000  C
  C76      1.0000 0.58350  0.15840  0.34460  Biso   1.000  C
  H57      1.0000 0.93510  0.74150  0.67520  Biso   1.000  H
  H58      1.0000 0.06490  0.74150  0.32480  Biso   1.000  H
  H59      1.0000 0.43510  0.24150  0.67520  Biso   1.000  H
  H60      1.0000 0.56490  0.24150  0.32480  Biso   1.000  H
  C77      1.0000 0.86590  0.66470  0.59880  Biso   1.000  C
  C78      1.0000 0.13410  0.66470  0.40120  Biso   1.000  C
  C79      1.0000 0.36590  0.16470  0.59880  Biso   1.000  C
  C80      1.0000 0.63410  0.16470  0.40120  Biso   1.000  C
  H61      1.0000 0.85040  0.75230  0.58140  Biso   1.000  H
  H62      1.0000 0.14960  0.75230  0.41860  Biso   1.000  H
  H63      1.0000 0.35040  0.25230  0.58140  Biso   1.000  H
  H64      1.0000 0.64960  0.25230  0.41860  Biso   1.000  H
  C81      1.0000 0.86100  0.42540  0.59430  Biso   1.000  C
  C82      1.0000 0.13900  0.42540  0.40570  Biso   1.000  C
  C83      1.0000 0.36100  0.92540  0.59430  Biso   1.000  C
  C84      1.0000 0.63900  0.92540  0.40570  Biso   1.000  C
  H65      1.0000 0.84240  0.34290  0.57300  Biso   1.000  H
  H66      1.0000 0.15760  0.34290  0.42700  Biso   1.000  H
  H67      1.0000 0.34240  0.84290  0.57300  Biso   1.000  H
  H68      1.0000 0.65760  0.84290  0.42700  Biso   1.000  H
  C85      1.0000 0.91050  0.41600  0.65100  Biso   1.000  C
  C86      1.0000 0.08950  0.41600  0.34900  Biso   1.000  C
  C87      1.0000 0.41050  0.91600  0.65100  Biso   1.000  C
  C88      1.0000 0.58950  0.91600  0.34900  Biso   1.000  C
  H69      1.0000 0.92500  0.32760  0.66900  Biso   1.000  H
  H70      1.0000 0.07500  0.32760  0.33100  Biso   1.000  H
  H71      1.0000 0.42500  0.82760  0.66900  Biso   1.000  H
  H72      1.0000 0.57500  0.82760  0.33100  Biso   1.000  H
  C89      1.0000 0.65520  0.53760  0.42490  Biso   1.000  C
  C90      1.0000 0.34480  0.53760  0.57510  Biso   1.000  C
  C91      1.0000 0.15520  0.03760  0.42490  Biso   1.000  C
  C92      1.0000 0.84480  0.03760  0.57510  Biso   1.000  C
  H73      1.0000 0.66710  0.52390  0.47510  Biso   1.000  H
  H74      1.0000 0.33290  0.52390  0.52490  Biso   1.000  H
  H75      1.0000 0.16710  0.02390  0.47510  Biso   1.000  H
  H76      1.0000 0.83290  0.02390  0.52490  Biso   1.000  H
  C93      1.0000 0.67260  0.58090  0.33350  Biso   1.000  C
  C94      1.0000 0.32740  0.58090  0.66650  Biso   1.000  C
  C95      1.0000 0.17260  0.08090  0.33350  Biso   1.000  C
  C96      1.0000 0.82740  0.08090  0.66650  Biso   1.000  C
  H77      1.0000 0.69680  0.59730  0.31860  Biso   1.000  H
  H78      1.0000 0.30320  0.59730  0.68140  Biso   1.000  H
  H79      1.0000 0.19680  0.09730  0.31860  Biso   1.000  H
  H80      1.0000 0.80320  0.09730  0.68140  Biso   1.000  H
  C97      1.0000 0.19410  0.71240  0.78100  Biso   1.000  C
  C98      1.0000 0.80590  0.71240  0.21900  Biso   1.000  C
  C99      1.0000 0.69410  0.21240  0.78100  Biso   1.000  C
  C100     1.0000 0.30590  0.21240  0.21900  Biso   1.000  C
  H81      1.0000 0.22540  0.72670  0.77810  Biso   1.000  H
  H82      1.0000 0.77460  0.72670  0.22190  Biso   1.000  H
  H83      1.0000 0.72540  0.22670  0.77810  Biso   1.000  H
  H84      1.0000 0.27460  0.22670  0.22190  Biso   1.000  H
  H85      1.0000 0.16730  0.77670  0.74670  Biso   1.000  H
  H86      1.0000 0.83270  0.77670  0.25330  Biso   1.000  H
  H87      1.0000 0.66730  0.27670  0.74670  Biso   1.000  H
  H88      1.0000 0.33270  0.27670  0.25330  Biso   1.000  H
  C101     1.0000 0.17630  0.56960  0.76160  Biso   1.000  C
  C102     1.0000 0.82370  0.56960  0.23840  Biso   1.000  C
  C103     1.0000 0.67630  0.06960  0.76160  Biso   1.000  C
  C104     1.0000 0.32370  0.06960  0.23840  Biso   1.000  C
  H89      1.0000 0.19980  0.50740  0.80260  Biso   1.000  H
  H90      1.0000 0.80020  0.50740  0.19740  Biso   1.000  H
  H91      1.0000 0.69980  0.00740  0.80260  Biso   1.000  H
  H92      1.0000 0.30020  0.00740  0.19740  Biso   1.000  H
  C105     1.0000 0.16990  0.51310  0.69010  Biso   1.000  C
  C106     1.0000 0.83010  0.51310  0.30990  Biso   1.000  C
  C107     1.0000 0.66990  0.01310  0.69010  Biso   1.000  C
  C108     1.0000 0.33010  0.01310  0.30990  Biso   1.000  C
  H93      1.0000 0.15150  0.58230  0.65030  Biso   1.000  H
  H94      1.0000 0.84850  0.58230  0.34970  Biso   1.000  H
  H95      1.0000 0.65150  0.08230  0.65030  Biso   1.000  H
  H96      1.0000 0.34850  0.08230  0.34970  Biso   1.000  H
  C109     1.0000 0.13500  0.38940  0.67710  Biso   1.000  C
  C110     1.0000 0.86500  0.38940  0.32290  Biso   1.000  C
  C111     1.0000 0.63500  0.88940  0.67710  Biso   1.000  C
  C112     1.0000 0.36500  0.88940  0.32290  Biso   1.000  C
  H97      1.0000 0.11650  0.36030  0.62490  Biso   1.000  H
  H98      1.0000 0.88350  0.36030  0.37510  Biso   1.000  H
  H99      1.0000 0.61650  0.86030  0.62490  Biso   1.000  H
  H100     1.0000 0.38350  0.86030  0.37510  Biso   1.000  H
  C113     1.0000 0.09790  0.44880  0.69890  Biso   1.000  C
  C114     1.0000 0.90210  0.44880  0.30110  Biso   1.000  C
  C115     1.0000 0.59790  0.94880  0.69890  Biso   1.000  C
  C116     1.0000 0.40210  0.94880  0.30110  Biso   1.000  C
  H101     1.0000 0.09060  0.37510  0.72530  Biso   1.000  H
  H102     1.0000 0.90940  0.37510  0.27470  Biso   1.000  H
  H103     1.0000 0.59060  0.87510  0.72530  Biso   1.000  H
  H104     1.0000 0.40940  0.87510  0.27470  Biso   1.000  H
  C117     1.0000 0.03930  0.63490  0.62530  Biso   1.000  C
  C118     1.0000 0.96070  0.63490  0.37470  Biso   1.000  C
  C119     1.0000 0.53930  0.13490  0.62530  Biso   1.000  C
  C120     1.0000 0.46070  0.13490  0.37470  Biso   1.000  C
  H105     1.0000 0.06550  0.70040  0.65290  Biso   1.000  H
  H106     1.0000 0.93450  0.70040  0.34710  Biso   1.000  H
  H107     1.0000 0.56550  0.20040  0.65290  Biso   1.000  H
  H108     1.0000 0.43450  0.20040  0.34710  Biso   1.000  H
  C121     1.0000 0.01160  0.40600  0.60140  Biso   1.000  C
  C122     1.0000 0.98840  0.40600  0.39860  Biso   1.000  C
  C123     1.0000 0.51160  0.90600  0.60140  Biso   1.000  C
  C124     1.0000 0.48840  0.90600  0.39860  Biso   1.000  C
  C125     1.0000 0.95360  0.58700  0.52920  Biso   1.000  C
  C126     1.0000 0.04640  0.58700  0.47080  Biso   1.000  C
  C127     1.0000 0.45360  0.08700  0.52920  Biso   1.000  C
  C128     1.0000 0.54640  0.08700  0.47080  Biso   1.000  C
  C129     1.0000 0.99430  0.67890  0.57370  Biso   1.000  C
  C130     1.0000 0.00570  0.67890  0.42630  Biso   1.000  C
  C131     1.0000 0.49430  0.17890  0.57370  Biso   1.000  C
  C132     1.0000 0.50570  0.17890  0.42630  Biso   1.000  C
  H109     1.0000 0.98860  0.77540  0.56580  Biso   1.000  H
  H110     1.0000 0.01140  0.77540  0.43420  Biso   1.000  H
  H111     1.0000 0.48860  0.27540  0.56580  Biso   1.000  H
  H112     1.0000 0.51140  0.27540  0.43420  Biso   1.000  H
  C133     1.0000 0.69720  0.23770  0.27840  Biso   1.000  C
  C134     1.0000 0.30280  0.23770  0.72160  Biso   1.000  C
  C135     1.0000 0.19720  0.73770  0.27840  Biso   1.000  C
  C136     1.0000 0.80280  0.73770  0.72160  Biso   1.000  C
  H113     1.0000 0.72920  0.25860  0.27850  Biso   1.000  H
  H114     1.0000 0.27080  0.25860  0.72150  Biso   1.000  H
  H115     1.0000 0.22920  0.75860  0.27850  Biso   1.000  H
  H116     1.0000 0.77080  0.75860  0.72150  Biso   1.000  H
  H117     1.0000 0.66940  0.29470  0.24030  Biso   1.000  H
  H118     1.0000 0.33060  0.29470  0.75970  Biso   1.000  H
  H119     1.0000 0.16940  0.79470  0.24030  Biso   1.000  H
  H120     1.0000 0.83060  0.79470  0.75970  Biso   1.000  H
  C137     1.0000 0.68390  0.08470  0.26080  Biso   1.000  C
  C138     1.0000 0.31610  0.08470  0.73920  Biso   1.000  C
  C139     1.0000 0.18390  0.58470  0.26080  Biso   1.000  C
  C140     1.0000 0.81610  0.58470  0.73920  Biso   1.000  C
  H121     1.0000 0.70960  0.02630  0.30190  Biso   1.000  H
  H122     1.0000 0.29040  0.02630  0.69810  Biso   1.000  H
  H123     1.0000 0.20960  0.52630  0.30190  Biso   1.000  H
  H124     1.0000 0.79040  0.52630  0.69810  Biso   1.000  H
  C141     1.0000 0.67990  0.04000  0.19050  Biso   1.000  C
  C142     1.0000 0.32010  0.04000  0.80950  Biso   1.000  C
  C143     1.0000 0.17990  0.54000  0.19050  Biso   1.000  C
  C144     1.0000 0.82010  0.54000  0.80950  Biso   1.000  C
  H125     1.0000 0.66470  0.11520  0.15340  Biso   1.000  H
  H126     1.0000 0.33530  0.11520  0.84660  Biso   1.000  H
  H127     1.0000 0.16470  0.61520  0.15340  Biso   1.000  H
  H128     1.0000 0.83530  0.61520  0.84660  Biso   1.000  H
  C145     1.0000 0.64280  0.91660  0.16810  Biso   1.000  C
  C146     1.0000 0.35720  0.91660  0.83190  Biso   1.000  C
  C147     1.0000 0.14280  0.41660  0.16810  Biso   1.000  C
  C148     1.0000 0.85720  0.41660  0.83190  Biso   1.000  C
  H129     1.0000 0.62160  0.90880  0.11390  Biso   1.000  H
  H130     1.0000 0.37840  0.90880  0.88610  Biso   1.000  H
  H131     1.0000 0.12160  0.40880  0.11390  Biso   1.000  H
  H132     1.0000 0.87840  0.40880  0.88610  Biso   1.000  H
  C149     1.0000 0.60900  0.95540  0.20010  Biso   1.000  C
  C150     1.0000 0.39100  0.95540  0.79990  Biso   1.000  C
  C151     1.0000 0.10900  0.45540  0.20010  Biso   1.000  C
  C152     1.0000 0.89100  0.45540  0.79990  Biso   1.000  C
  H133     1.0000 0.60650  0.87370  0.22670  Biso   1.000  H
  H134     1.0000 0.39350  0.87370  0.77330  Biso   1.000  H
  H135     1.0000 0.10650  0.37370  0.22670  Biso   1.000  H
  H136     1.0000 0.89350  0.37370  0.77330  Biso   1.000  H
  C153     1.0000 0.54590  0.14070  0.12870  Biso   1.000  C
  C154     1.0000 0.45410  0.14070  0.87130  Biso   1.000  C
  C155     1.0000 0.04590  0.64070  0.12870  Biso   1.000  C
  C156     1.0000 0.95410  0.64070  0.87130  Biso   1.000  C
  H137     1.0000 0.57220  0.20720  0.15410  Biso   1.000  H
  H138     1.0000 0.42780  0.20720  0.84590  Biso   1.000  H
  H139     1.0000 0.07220  0.70720  0.15410  Biso   1.000  H
  H140     1.0000 0.92780  0.70720  0.84590  Biso   1.000  H
  C157     1.0000 0.49910  0.18430  0.07650  Biso   1.000  C
  C158     1.0000 0.50090  0.18430  0.92350  Biso   1.000  C
  C159     1.0000 0.99910  0.68430  0.07650  Biso   1.000  C
  C160     1.0000 0.00090  0.68430  0.92350  Biso   1.000  C
  H141     1.0000 0.49250  0.28000  0.06660  Biso   1.000  H
  H142     1.0000 0.50750  0.28000  0.93340  Biso   1.000  H
  H143     1.0000 0.99250  0.78000  0.06660  Biso   1.000  H
  H144     1.0000 0.00750  0.78000  0.93340  Biso   1.000  H
  C161     1.0000 0.45920  0.08380  0.03570  Biso   1.000  C
  C162     1.0000 0.54080  0.08380  0.96430  Biso   1.000  C
  C163     1.0000 0.95920  0.58380  0.03570  Biso   1.000  C
  C164     1.0000 0.04080  0.58380  0.96430  Biso   1.000  C
  C165     1.0000 0.52000  0.90080  0.11180  Biso   1.000  C
  C166     1.0000 0.48000  0.90080  0.88820  Biso   1.000  C
  C167     1.0000 0.02000  0.40080  0.11180  Biso   1.000  C
  C168     1.0000 0.98000  0.40080  0.88820  Biso   1.000  C
  N1       1.0000 0.32976  0.57420  0.10870  Biso   1.000  N
  N2       1.0000 0.67024  0.57420  0.89130  Biso   1.000  N
  N3       1.0000 0.82976  0.07420  0.10870  Biso   1.000  N
  N4       1.0000 0.17024  0.07420  0.89130  Biso   1.000  N
  N5       1.0000 0.17750  0.60200  0.96210  Biso   1.000  N
  N6       1.0000 0.82250  0.60200  0.03790  Biso   1.000  N
  N7       1.0000 0.67750  0.10200  0.96210  Biso   1.000  N
  N8       1.0000 0.32250  0.10200  0.03790  Biso   1.000  N
  N9       1.0000 0.83760  0.54780  0.56740  Biso   1.000  N
  N10      1.0000 0.16240  0.54780  0.43260  Biso   1.000  N
  N11      1.0000 0.33760  0.04780  0.56740  Biso   1.000  N
  N12      1.0000 0.66240  0.04780  0.43260  Biso   1.000  N
  N13      1.0000 0.68950  0.56190  0.40520  Biso   1.000  N
  N14      1.0000 0.31050  0.56190  0.59480  Biso   1.000  N
  N15      1.0000 0.18950  0.06190  0.40520  Biso   1.000  N
  N16      1.0000 0.81050  0.06190  0.59480  Biso   1.000  N
  N17      1.0000 0.04970  0.49740  0.64050  Biso   1.000  N
  N18      1.0000 0.95030  0.49740  0.35950  Biso   1.000  N
  N19      1.0000 0.54970  0.99740  0.64050  Biso   1.000  N
  N20      1.0000 0.45030  0.99740  0.35950  Biso   1.000  N
  N21      1.0000 0.96630  0.45340  0.54800  Biso   1.000  N
  N22      1.0000 0.03370  0.45340  0.45200  Biso   1.000  N
  N23      1.0000 0.46630  0.95340  0.54800  Biso   1.000  N
  N24      1.0000 0.53370  0.95340  0.45200  Biso   1.000  N
  N25      1.0000 0.55730  0.00110  0.14710  Biso   1.000  N
  N26      1.0000 0.44270  0.00110  0.85290  Biso   1.000  N
  N27      1.0000 0.05730  0.50110  0.14710  Biso   1.000  N
  N28      1.0000 0.94270  0.50110  0.85290  Biso   1.000  N
  N29      1.0000 0.47260  0.94810  0.05710  Biso   1.000  N
  N30      1.0000 0.52740  0.94810  0.94290  Biso   1.000  N
  N31      1.0000 0.97260  0.44810  0.05710  Biso   1.000  N
  N32      1.0000 0.02740  0.44810  0.94290  Biso   1.000  N
  O1       1.0000 0.77800  0.41990  0.43020  Biso   1.000  O
  O2       1.0000 0.22200  0.41990  0.56980  Biso   1.000  O
  O3       1.0000 0.27800  0.91990  0.43020  Biso   1.000  O
  O4       1.0000 0.72200  0.91990  0.56980  Biso   1.000  O
  O5       1.0000 0.70370  0.27220  0.34740  Biso   1.000  O
  O6       1.0000 0.29630  0.27220  0.65260  Biso   1.000  O
  O7       1.0000 0.20370  0.77220  0.34740  Biso   1.000  O
  O8       1.0000 0.79630  0.77220  0.65260  Biso   1.000  O
  O9       1.0000 0.74910  0.23810  0.48110  Biso   1.000  O
  O10      1.0000 0.25090  0.23810  0.51890  Biso   1.000  O
  O11      1.0000 0.24910  0.73810  0.48110  Biso   1.000  O
  O12      1.0000 0.75090  0.73810  0.51890  Biso   1.000  O
  O13      1.0000 0.26461  0.74460  0.98720  Biso   1.000  O
  O14      1.0000 0.73539  0.74460  0.01280  Biso   1.000  O
  O15      1.0000 0.76461  0.24460  0.98720  Biso   1.000  O
  O16      1.0000 0.23539  0.24460  0.01280  Biso   1.000  O
  O17      1.0000 0.26170  0.94520  0.91280  Biso   1.000  O
  O18      1.0000 0.73830  0.94520  0.08720  Biso   1.000  O
  O19      1.0000 0.76170  0.44520  0.91280  Biso   1.000  O
  O20      1.0000 0.23830  0.44520  0.08720  Biso   1.000  O
  O21      1.0000 0.25440  0.75200  0.12280  Biso   1.000  O
  O22      1.0000 0.74560  0.75200  0.87720  Biso   1.000  O
  O23      1.0000 0.75440  0.25200  0.12280  Biso   1.000  O
  O24      1.0000 0.24560  0.25200  0.87720  Biso   1.000  O
  H145     1.0000 0.23770  0.82650  0.11580  Biso   1.000  H
  H146     1.0000 0.76230  0.82650  0.88420  Biso   1.000  H
  H147     1.0000 0.73770  0.32650  0.11580  Biso   1.000  H
  H148     1.0000 0.26230  0.32650  0.88420  Biso   1.000  H
  H149     1.0000 0.25310  0.71030  0.15520  Biso   1.000  H
  H150     1.0000 0.74690  0.71030  0.84480  Biso   1.000  H
  H151     1.0000 0.75310  0.21030  0.15520  Biso   1.000  H
  H152     1.0000 0.24690  0.21030  0.84480  Biso   1.000  H
  O25      1.0000 0.20509  0.73870  0.85350  Biso   1.000  O
  O26      1.0000 0.79491  0.73870  0.14650  Biso   1.000  O
  O27      1.0000 0.70509  0.23870  0.85350  Biso   1.000  O
  O28      1.0000 0.29491  0.23870  0.14650  Biso   1.000  O
  O29      1.0000 0.30110  0.72300  0.90310  Biso   1.000  O
  O30      1.0000 0.69890  0.72300  0.09690  Biso   1.000  O
  O31      1.0000 0.80110  0.22300  0.90310  Biso   1.000  O
  O32      1.0000 0.19890  0.22300  0.09690  Biso   1.000  O
  O33      1.0000 0.21880  0.48190  0.69830  Biso   1.000  O
  O34      1.0000 0.78120  0.48190  0.30170  Biso   1.000  O
  O35      1.0000 0.71880  0.98190  0.69830  Biso   1.000  O
  O36      1.0000 0.28120  0.98190  0.30170  Biso   1.000  O
  H153     1.0000 0.20980  0.40590  0.67320  Biso   1.000  H
  H154     1.0000 0.79020  0.40590  0.32680  Biso   1.000  H
  H155     1.0000 0.70980  0.90590  0.67320  Biso   1.000  H
  H156     1.0000 0.29020  0.90590  0.32680  Biso   1.000  H
  O37      1.0000 0.16340  0.28100  0.72310  Biso   1.000  O
  O38      1.0000 0.83660  0.28100  0.27690  Biso   1.000  O
  O39      1.0000 0.66340  0.78100  0.72310  Biso   1.000  O
  O40      1.0000 0.33660  0.78100  0.27690  Biso   1.000  O
  H157     1.0000 0.15330  0.20600  0.70050  Biso   1.000  H
  H158     1.0000 0.84670  0.20600  0.29950  Biso   1.000  H
  H159     1.0000 0.65330  0.70600  0.70050  Biso   1.000  H
  H160     1.0000 0.34670  0.70600  0.29950  Biso   1.000  H
  O41      1.0000 0.12480  0.55500  0.74880  Biso   1.000  O
  O42      1.0000 0.87520  0.55500  0.25120  Biso   1.000  O
  O43      1.0000 0.62480  0.05500  0.74880  Biso   1.000  O
  O44      1.0000 0.37520  0.05500  0.25120  Biso   1.000  O
  O45      1.0000 0.01990  0.28620  0.61690  Biso   1.000  O
  O46      1.0000 0.98010  0.28620  0.38310  Biso   1.000  O
  O47      1.0000 0.51990  0.78620  0.61690  Biso   1.000  O
  O48      1.0000 0.48010  0.78620  0.38310  Biso   1.000  O
  O49      1.0000 0.91010  0.62060  0.47960  Biso   1.000  O
  O50      1.0000 0.08990  0.62060  0.52040  Biso   1.000  O
  O51      1.0000 0.41010  0.12060  0.47960  Biso   1.000  O
  O52      1.0000 0.58990  0.12060  0.52040  Biso   1.000  O
  O53      1.0000 0.72900  0.00360  0.20360  Biso   1.000  O
  O54      1.0000 0.27100  0.00360  0.79640  Biso   1.000  O
  O55      1.0000 0.22900  0.50360  0.20360  Biso   1.000  O
  O56      1.0000 0.77100  0.50360  0.79640  Biso   1.000  O
  H161     1.0000 0.72730  0.98580  0.16390  Biso   1.000  H
  H162     1.0000 0.27270  0.98580  0.83610  Biso   1.000  H
  H163     1.0000 0.22730  0.48580  0.16390  Biso   1.000  H
  H164     1.0000 0.77270  0.48580  0.83610  Biso   1.000  H
  O57      1.0000 0.66710  0.79070  0.19930  Biso   1.000  O
  O58      1.0000 0.33290  0.79070  0.80070  Biso   1.000  O
  O59      1.0000 0.16710  0.29070  0.19930  Biso   1.000  O
  O60      1.0000 0.83290  0.29070  0.80070  Biso   1.000  O
  H165     1.0000 0.67860  0.75850  0.17330  Biso   1.000  H
  H166     1.0000 0.32140  0.75850  0.82670  Biso   1.000  H
  H167     1.0000 0.17860  0.25850  0.17330  Biso   1.000  H
  H168     1.0000 0.82140  0.25850  0.82670  Biso   1.000  H
  O61      1.0000 0.63331  0.06400  0.25050  Biso   1.000  O
  O62      1.0000 0.36669  0.06400  0.74950  Biso   1.000  O
  O63      1.0000 0.13331  0.56400  0.25050  Biso   1.000  O
  O64      1.0000 0.86669  0.56400  0.74950  Biso   1.000  O
  O65      1.0000 0.52890  0.77900  0.12900  Biso   1.000  O
  O66      1.0000 0.47110  0.77900  0.87100  Biso   1.000  O
  O67      1.0000 0.02890  0.27900  0.12900  Biso   1.000  O
  O68      1.0000 0.97110  0.27900  0.87100  Biso   1.000  O
  O69      1.0000 0.41490  0.10960  0.98390  Biso   1.000  O
  O70      1.0000 0.58510  0.10960  0.01610  Biso   1.000  O
  O71      1.0000 0.91490  0.60960  0.98390  Biso   1.000  O
  O72      1.0000 0.08510  0.60960  0.01610  Biso   1.000  O
  O73      1.0000 0.79540  0.18000  0.41390  Biso   1.000  O
  O74      1.0000 0.20460  0.18000  0.58610  Biso   1.000  O
  O75      1.0000 0.29540  0.68000  0.41390  Biso   1.000  O
  O76      1.0000 0.70460  0.68000  0.58610  Biso   1.000  O
  O77      1.0000 0.79920  0.69720  0.42620  Biso   1.000  O
  O78      1.0000 0.20080  0.69720  0.57380  Biso   1.000  O
  O79      1.0000 0.29920  0.19720  0.42620  Biso   1.000  O
  O80      1.0000 0.70080  0.19720  0.57380  Biso   1.000  O
  H169     1.0000 0.77650  0.75210  0.39570  Biso   1.000  H
  H170     1.0000 0.22350  0.75210  0.60430  Biso   1.000  H
  H171     1.0000 0.27650  0.25210  0.39570  Biso   1.000  H
  H172     1.0000 0.72350  0.25210  0.60430  Biso   1.000  H
  H173     1.0000 0.80900  0.64350  0.40420  Biso   1.000  H
  H174     1.0000 0.19100  0.64350  0.59580  Biso   1.000  H
  H175     1.0000 0.30900  0.14350  0.40420  Biso   1.000  H
  H176     1.0000 0.69100  0.14350  0.59580  Biso   1.000  H
  O81      1.0000 0.40470  0.73000  0.98680  Biso   1.000  O
  O82      1.0000 0.59530  0.73000  0.01320  Biso   1.000  O
  O83      1.0000 0.90470  0.23000  0.98680  Biso   1.000  O
  O84      1.0000 0.09530  0.23000  0.01320  Biso   1.000  O
  H177     1.0000 0.41910  0.67780  0.97050  Biso   1.000  H
  H178     1.0000 0.58090  0.67780  0.02950  Biso   1.000  H
  H179     1.0000 0.91910  0.17780  0.97050  Biso   1.000  H
  H180     1.0000 0.08090  0.17780  0.02950  Biso   1.000  H
  H181     1.0000 0.42460  0.79750  0.00860  Biso   1.000  H
  H182     1.0000 0.57540  0.79750  0.99140  Biso   1.000  H
  H183     1.0000 0.92460  0.29750  0.00860  Biso   1.000  H
  H184     1.0000 0.07540  0.29750  0.99140  Biso   1.000  H
  O85      1.0000 0.18220  0.05790  0.67230  Biso   1.000  O
  O86      1.0000 0.81780  0.05790  0.32770  Biso   1.000  O
  O87      1.0000 0.68220  0.55790  0.67230  Biso   1.000  O
  O88      1.0000 0.31780  0.55790  0.32770  Biso   1.000  O
  H185     1.0000 0.21010  0.04020  0.71140  Biso   1.000  H
  H186     1.0000 0.78990  0.04020  0.28860  Biso   1.000  H
  H187     1.0000 0.71010  0.54020  0.71140  Biso   1.000  H
  H188     1.0000 0.28990  0.54020  0.28860  Biso   1.000  H
  H189     1.0000 0.18930  0.09910  0.64340  Biso   1.000  H
  H190     1.0000 0.81070  0.09910  0.35660  Biso   1.000  H
  H191     1.0000 0.68930  0.59910  0.64340  Biso   1.000  H
  H192     1.0000 0.31070  0.59910  0.35660  Biso   1.000  H
  O89      1.0000 0.30120  0.46590  0.86890  Biso   1.000  O
  O90      1.0000 0.69880  0.46590  0.13110  Biso   1.000  O
  O91      1.0000 0.80120  0.96590  0.86890  Biso   1.000  O
  O92      1.0000 0.19880  0.96590  0.13110  Biso   1.000  O
  H193     1.0000 0.30280  0.54930  0.88220  Biso   1.000  H
  H194     1.0000 0.69720  0.54930  0.11780  Biso   1.000  H
  H195     1.0000 0.80280  0.04930  0.88220  Biso   1.000  H
  H196     1.0000 0.19720  0.04930  0.11780  Biso   1.000  H
  H197     1.0000 0.28030  0.46160  0.82330  Biso   1.000  H
  H198     1.0000 0.71970  0.46160  0.17670  Biso   1.000  H
  H199     1.0000 0.78030  0.96160  0.82330  Biso   1.000  H
  H200     1.0000 0.21970  0.96160  0.17670  Biso   1.000  H
  O93      1.0000 0.39210  0.35930  0.90630  Biso   1.000  O
  O94      1.0000 0.60790  0.35930  0.09370  Biso   1.000  O
  O95      1.0000 0.89210  0.85930  0.90630  Biso   1.000  O
  O96      1.0000 0.10790  0.85930  0.09370  Biso   1.000  O
  H201     1.0000 0.36340  0.39090  0.89770  Biso   1.000  H
  H202     1.0000 0.63660  0.39090  0.10230  Biso   1.000  H
  H203     1.0000 0.86340  0.89090  0.89770  Biso   1.000  H
  H204     1.0000 0.13660  0.89090  0.10230  Biso   1.000  H
  H205     1.0000 0.39790  0.28440  0.93000  Biso   1.000  H
  H206     1.0000 0.60210  0.28440  0.07000  Biso   1.000  H
  H207     1.0000 0.89790  0.78440  0.93000  Biso   1.000  H
  H208     1.0000 0.10210  0.78440  0.07000  Biso   1.000  H
  O97      1.0000 0.09360  0.90940  0.60400  Biso   1.000  O
  O98      1.0000 0.90640  0.90940  0.39600  Biso   1.000  O
  O99      1.0000 0.59360  0.40940  0.60400  Biso   1.000  O
  O100     1.0000 0.40640  0.40940  0.39600  Biso   1.000  O
  H209     1.0000 0.12230  0.95150  0.62330  Biso   1.000  H
  H210     1.0000 0.87770  0.95150  0.37670  Biso   1.000  H
  H211     1.0000 0.62230  0.45150  0.62330  Biso   1.000  H
  H212     1.0000 0.37770  0.45150  0.37670  Biso   1.000  H
  H213     1.0000 0.09560  0.83760  0.58280  Biso   1.000  H
  H214     1.0000 0.90440  0.83760  0.41720  Biso   1.000  H
  H215     1.0000 0.59560  0.33760  0.58280  Biso   1.000  H
  H216     1.0000 0.40440  0.33760  0.41720  Biso   1.000  H
  O101     1.0000 0.89940  0.23190  0.48570  Biso   1.000  O
  O102     1.0000 0.10060  0.23190  0.51430  Biso   1.000  O
  O103     1.0000 0.39940  0.73190  0.48570  Biso   1.000  O
  O104     1.0000 0.60060  0.73190  0.51430  Biso   1.000  O
  H217     1.0000 0.91270  0.31110  0.50080  Biso   1.000  H
  H218     1.0000 0.08730  0.31110  0.49920  Biso   1.000  H
  H219     1.0000 0.41270  0.81110  0.50080  Biso   1.000  H
  H220     1.0000 0.58730  0.81110  0.49920  Biso   1.000  H
  H221     1.0000 0.86690  0.23890  0.46470  Biso   1.000  H
  H222     1.0000 0.13310  0.23890  0.53530  Biso   1.000  H
  H223     1.0000 0.36690  0.73890  0.46470  Biso   1.000  H
  H224     1.0000 0.63310  0.73890  0.53530  Biso   1.000  H
  O105     1.0000 0.45690  0.55420  0.93580  Biso   1.000  O
  O106     1.0000 0.54310  0.55420  0.06420  Biso   1.000  O
  O107     1.0000 0.95690  0.05420  0.93580  Biso   1.000  O
  O108     1.0000 0.04310  0.05420  0.06420  Biso   1.000  O
  H225     1.0000 0.44800  0.60460  0.89860  Biso   1.000  H
  H226     1.0000 0.55200  0.60460  0.10140  Biso   1.000  H
  H227     1.0000 0.94800  0.10460  0.89860  Biso   1.000  H
  H228     1.0000 0.05200  0.10460  0.10140  Biso   1.000  H
  H229     1.0000 0.43770  0.48550  0.92990  Biso   1.000  H
  H230     1.0000 0.56230  0.48550  0.07010  Biso   1.000  H
  H231     1.0000 0.93770  0.98550  0.92990  Biso   1.000  H
  H232     1.0000 0.06230  0.98550  0.07010  Biso   1.000  H
  O109     1.0000 0.79180  0.80000  0.40660  Biso   1.000  O
  O110     1.0000 0.20820  0.80000  0.59340  Biso   1.000  O
  O111     1.0000 0.29180  0.30000  0.40660  Biso   1.000  O
  O112     1.0000 0.70820  0.30000  0.59340  Biso   1.000  O
  H233     1.0000 0.82280  0.81610  0.41880  Biso   1.000  H
  H234     1.0000 0.17720  0.81610  0.58120  Biso   1.000  H
  H235     1.0000 0.32280  0.31610  0.41880  Biso   1.000  H
  H236     1.0000 0.67720  0.31610  0.58120  Biso   1.000  H
  H237     1.0000 0.77320  0.79830  0.36040  Biso   1.000  H
  H238     1.0000 0.22680  0.79830  0.63960  Biso   1.000  H
  H239     1.0000 0.27320  0.29830  0.36040  Biso   1.000  H
  H240     1.0000 0.72680  0.29830  0.63960  Biso   1.000  H
