data_image0
_cell_length_a       17.018
_cell_length_b       14.706
_cell_length_c       11.132
_cell_angle_alpha    90
_cell_angle_beta     125.06
_cell_angle_gamma    90

_symmetry_space_group_name_H-M    "P 1"
_symmetry_int_tables_number       1

loop_
  _symmetry_equiv_pos_as_xyz
  'x, y, z'

loop_
  _atom_site_label
  _atom_site_occupancy
  _atom_site_fract_x
  _atom_site_fract_y
  _atom_site_fract_z
  _atom_site_thermal_displace_type
  _atom_site_B_iso_or_equiv
  _atom_site_type_symbol
  Ni1      1.0000 0.10773  0.78755  0.21105  Biso   1.000  Ni
  Ni2      1.0000 0.10773  0.21245  0.71105  Biso   1.000  Ni
  Ni3      1.0000 0.60773  0.28755  0.21105  Biso   1.000  Ni
  Ni4      1.0000 0.60773  0.71245  0.71105  Biso   1.000  Ni
  Cu1      1.0000 0.09097  0.91558  0.64114  Biso   1.000  Cu
  Cu2      1.0000 0.09097  0.08442  0.14114  Biso   1.000  Cu
  Cu3      1.0000 0.59097  0.41558  0.64114  Biso   1.000  Cu
  Cu4      1.0000 0.59097  0.58442  0.14114  Biso   1.000  Cu
  O1       1.0000 0.00830  0.83450  0.24160  Biso   1.000  O
  O2       1.0000 0.00830  0.16550  0.74160  Biso   1.000  O
  O3       1.0000 0.50830  0.33450  0.24160  Biso   1.000  O
  O4       1.0000 0.50830  0.66550  0.74160  Biso   1.000  O
  O5       1.0000 0.20050  0.83160  0.42300  Biso   1.000  O
  O6       1.0000 0.20050  0.16840  0.92300  Biso   1.000  O
  O7       1.0000 0.70050  0.33160  0.42300  Biso   1.000  O
  O8       1.0000 0.70050  0.66840  0.92300  Biso   1.000  O
  O9       1.0000 0.09170  0.91070  0.09450  Biso   1.000  O
  O10      1.0000 0.09170  0.08930  0.59450  Biso   1.000  O
  O11      1.0000 0.59170  0.41070  0.09450  Biso   1.000  O
  O12      1.0000 0.59170  0.58930  0.59450  Biso   1.000  O
  O13      1.0000 0.00620  0.79990  0.98210  Biso   1.000  O
  O14      1.0000 0.00620  0.20010  0.48210  Biso   1.000  O
  O15      1.0000 0.50620  0.29990  0.98210  Biso   1.000  O
  O16      1.0000 0.50620  0.70010  0.48210  Biso   1.000  O
  N1       1.0000 0.98490  0.94590  0.66450  Biso   1.000  N
  N2       1.0000 0.98490  0.05410  0.16450  Biso   1.000  N
  N3       1.0000 0.48490  0.44590  0.66450  Biso   1.000  N
  N4       1.0000 0.48490  0.55410  0.16450  Biso   1.000  N
  H1       1.0000 0.99250  0.00450  0.69270  Biso   1.000  H
  H2       1.0000 0.99250  0.99550  0.19270  Biso   1.000  H
  H3       1.0000 0.49250  0.50450  0.69270  Biso   1.000  H
  H4       1.0000 0.49250  0.49550  0.19270  Biso   1.000  H
  H5       1.0000 0.99460  0.91230  0.73940  Biso   1.000  H
  H6       1.0000 0.99460  0.08770  0.23940  Biso   1.000  H
  H7       1.0000 0.49460  0.41230  0.73940  Biso   1.000  H
  H8       1.0000 0.49460  0.58770  0.23940  Biso   1.000  H
  N5       1.0000 0.00250  0.88330  0.43140  Biso   1.000  N
  N6       1.0000 0.00250  0.11670  0.93140  Biso   1.000  N
  N7       1.0000 0.50250  0.38330  0.43140  Biso   1.000  N
  N8       1.0000 0.50250  0.61670  0.93140  Biso   1.000  N
  N9       1.0000 0.18920  0.88530  0.60580  Biso   1.000  N
  N10      1.0000 0.18920  0.11470  0.10580  Biso   1.000  N
  N11      1.0000 0.68920  0.38530  0.60580  Biso   1.000  N
  N12      1.0000 0.68920  0.61470  0.10580  Biso   1.000  N
  N13      1.0000 0.18810  0.94240  0.85600  Biso   1.000  N
  N14      1.0000 0.18810  0.05760  0.35600  Biso   1.000  N
  N15      1.0000 0.68810  0.44240  0.85600  Biso   1.000  N
  N16      1.0000 0.68810  0.55760  0.35600  Biso   1.000  N
  H9       1.0000 0.16790  0.91470  0.90570  Biso   1.000  H
  H10      1.0000 0.16790  0.08530  0.40570  Biso   1.000  H
  H11      1.0000 0.66790  0.41470  0.90570  Biso   1.000  H
  H12      1.0000 0.66790  0.58530  0.40570  Biso   1.000  H
  H13      1.0000 0.18630  0.00270  0.86840  Biso   1.000  H
  H14      1.0000 0.18630  0.99730  0.36840  Biso   1.000  H
  H15      1.0000 0.68630  0.50270  0.86840  Biso   1.000  H
  H16      1.0000 0.68630  0.49730  0.36840  Biso   1.000  H
  N17      1.0000 0.09590  0.64960  0.25350  Biso   1.000  N
  N18      1.0000 0.09590  0.35040  0.75350  Biso   1.000  N
  N19      1.0000 0.59590  0.14960  0.25350  Biso   1.000  N
  N20      1.0000 0.59590  0.85040  0.75350  Biso   1.000  N
  N21      1.0000 0.21200  0.74050  0.18630  Biso   1.000  N
  N22      1.0000 0.21200  0.25950  0.68630  Biso   1.000  N
  N23      1.0000 0.71200  0.24050  0.18630  Biso   1.000  N
  N24      1.0000 0.71200  0.75950  0.68630  Biso   1.000  N
  H17      1.0000 0.18130  0.73360  0.08770  Biso   1.000  H
  H18      1.0000 0.18130  0.26640  0.58770  Biso   1.000  H
  H19      1.0000 0.68130  0.23360  0.08770  Biso   1.000  H
  H20      1.0000 0.68130  0.76640  0.58770  Biso   1.000  H
  N25      1.0000 0.02620  0.87990  0.97060  Biso   1.000  N
  N26      1.0000 0.02620  0.12010  0.47060  Biso   1.000  N
  N27      1.0000 0.52620  0.37990  0.97060  Biso   1.000  N
  N28      1.0000 0.52620  0.62010  0.47060  Biso   1.000  N
  C1       1.0000 0.89020  0.93490  0.54860  Biso   1.000  C
  C2       1.0000 0.89020  0.06510  0.04860  Biso   1.000  C
  C3       1.0000 0.39020  0.43490  0.54860  Biso   1.000  C
  C4       1.0000 0.39020  0.56510  0.04860  Biso   1.000  C
  H21      1.0000 0.86100  0.99460  0.52870  Biso   1.000  H
  H22      1.0000 0.86100  0.00540  0.02870  Biso   1.000  H
  H23      1.0000 0.36100  0.49460  0.52870  Biso   1.000  H
  H24      1.0000 0.36100  0.50540  0.02870  Biso   1.000  H
  H25      1.0000 0.86100  0.89820  0.58550  Biso   1.000  H
  H26      1.0000 0.86100  0.10180  0.08550  Biso   1.000  H
  H27      1.0000 0.36100  0.39820  0.58550  Biso   1.000  H
  H28      1.0000 0.36100  0.60180  0.08550  Biso   1.000  H
  C5       1.0000 0.86210  0.90190  0.42640  Biso   1.000  C
  C6       1.0000 0.86210  0.09810  0.92640  Biso   1.000  C
  C7       1.0000 0.36210  0.40190  0.42640  Biso   1.000  C
  C8       1.0000 0.36210  0.59810  0.92640  Biso   1.000  C
  H29      1.0000 0.83800  0.84290  0.42970  Biso   1.000  H
  H30      1.0000 0.83800  0.15710  0.92970  Biso   1.000  H
  H31      1.0000 0.33800  0.34290  0.42970  Biso   1.000  H
  H32      1.0000 0.33800  0.65710  0.92970  Biso   1.000  H
  H33      1.0000 0.80520  0.93780  0.35980  Biso   1.000  H
  H34      1.0000 0.80520  0.06220  0.85980  Biso   1.000  H
  H35      1.0000 0.30520  0.43780  0.35980  Biso   1.000  H
  H36      1.0000 0.30520  0.56220  0.85980  Biso   1.000  H
  C9       1.0000 0.89760  0.88380  0.34050  Biso   1.000  C
  C10      1.0000 0.89760  0.11620  0.84050  Biso   1.000  C
  C11      1.0000 0.39760  0.38380  0.34050  Biso   1.000  C
  C12      1.0000 0.39760  0.61620  0.84050  Biso   1.000  C
  H37      1.0000 0.87380  0.82530  0.29260  Biso   1.000  H
  H38      1.0000 0.87380  0.17470  0.79260  Biso   1.000  H
  H39      1.0000 0.37380  0.32530  0.29260  Biso   1.000  H
  H40      1.0000 0.37380  0.67470  0.79260  Biso   1.000  H
  H41      1.0000 0.87420  0.92990  0.26490  Biso   1.000  H
  H42      1.0000 0.87420  0.07010  0.76490  Biso   1.000  H
  H43      1.0000 0.37420  0.42990  0.26490  Biso   1.000  H
  H44      1.0000 0.37420  0.57010  0.76490  Biso   1.000  H
  C13      1.0000 0.04550  0.85910  0.37230  Biso   1.000  C
  C14      1.0000 0.04550  0.14090  0.87230  Biso   1.000  C
  C15      1.0000 0.54550  0.35910  0.37230  Biso   1.000  C
  C16      1.0000 0.54550  0.64090  0.87230  Biso   1.000  C
  C17      1.0000 0.15300  0.85530  0.47230  Biso   1.000  C
  C18      1.0000 0.15300  0.14470  0.97230  Biso   1.000  C
  C19      1.0000 0.65300  0.35530  0.47230  Biso   1.000  C
  C20      1.0000 0.65300  0.64470  0.97230  Biso   1.000  C
  C21      1.0000 0.29700  0.88310  0.71030  Biso   1.000  C
  C22      1.0000 0.29700  0.11690  0.21030  Biso   1.000  C
  C23      1.0000 0.79700  0.38310  0.71030  Biso   1.000  C
  C24      1.0000 0.79700  0.61690  0.21030  Biso   1.000  C
  C25      1.0000 0.32810  0.94480  0.84230  Biso   1.000  C
  C26      1.0000 0.32810  0.05520  0.34230  Biso   1.000  C
  C27      1.0000 0.82810  0.44480  0.84230  Biso   1.000  C
  C28      1.0000 0.82810  0.55520  0.34230  Biso   1.000  C
  C29      1.0000 0.33230  0.10110  0.36140  Biso   1.000  C
  C30      1.0000 0.33230  0.89890  0.86140  Biso   1.000  C
  C31      1.0000 0.83230  0.60110  0.36140  Biso   1.000  C
  C32      1.0000 0.83230  0.39890  0.86140  Biso   1.000  C
  C33      1.0000 0.28930  0.91730  0.92720  Biso   1.000  C
  C34      1.0000 0.28930  0.08270  0.42720  Biso   1.000  C
  C35      1.0000 0.78930  0.41730  0.92720  Biso   1.000  C
  C36      1.0000 0.78930  0.58270  0.42720  Biso   1.000  C
  C37      1.0000 0.15150  0.59910  0.21580  Biso   1.000  C
  C38      1.0000 0.15150  0.40090  0.71580  Biso   1.000  C
  C39      1.0000 0.65150  0.09910  0.21580  Biso   1.000  C
  C40      1.0000 0.65150  0.90090  0.71580  Biso   1.000  C
  H45      1.0000 0.17300  0.54270  0.27120  Biso   1.000  H
  H46      1.0000 0.17300  0.45730  0.77120  Biso   1.000  H
  H47      1.0000 0.67300  0.04270  0.27120  Biso   1.000  H
  H48      1.0000 0.67300  0.95730  0.77120  Biso   1.000  H
  H49      1.0000 0.11070  0.58350  0.11240  Biso   1.000  H
  H50      1.0000 0.11070  0.41650  0.61240  Biso   1.000  H
  H51      1.0000 0.61070  0.08350  0.11240  Biso   1.000  H
  H52      1.0000 0.61070  0.91650  0.61240  Biso   1.000  H
  C41      1.0000 0.23420  0.64830  0.24470  Biso   1.000  C
  C42      1.0000 0.23420  0.35170  0.74470  Biso   1.000  C
  C43      1.0000 0.73420  0.14830  0.24470  Biso   1.000  C
  C44      1.0000 0.73420  0.85170  0.74470  Biso   1.000  C
  H53      1.0000 0.28200  0.65100  0.34990  Biso   1.000  H
  H54      1.0000 0.28200  0.34900  0.84990  Biso   1.000  H
  H55      1.0000 0.78200  0.15100  0.34990  Biso   1.000  H
  H56      1.0000 0.78200  0.84900  0.84990  Biso   1.000  H
  H57      1.0000 0.26190  0.61520  0.20210  Biso   1.000  H
  H58      1.0000 0.26190  0.38480  0.70210  Biso   1.000  H
  H59      1.0000 0.76190  0.11520  0.20210  Biso   1.000  H
  H60      1.0000 0.76190  0.88480  0.70210  Biso   1.000  H
  C45      1.0000 0.99390  0.62300  0.14330  Biso   1.000  C
  C46      1.0000 0.99390  0.37700  0.64330  Biso   1.000  C
  C47      1.0000 0.49390  0.12300  0.14330  Biso   1.000  C
  C48      1.0000 0.49390  0.87700  0.64330  Biso   1.000  C
  H61      1.0000 0.97650  0.63620  0.04640  Biso   1.000  H
  H62      1.0000 0.97650  0.36380  0.54640  Biso   1.000  H
  H63      1.0000 0.47650  0.13620  0.04640  Biso   1.000  H
  H64      1.0000 0.47650  0.86380  0.54640  Biso   1.000  H
  H65      1.0000 0.98640  0.55910  0.15150  Biso   1.000  H
  H66      1.0000 0.98640  0.44090  0.65150  Biso   1.000  H
  H67      1.0000 0.48640  0.05910  0.15150  Biso   1.000  H
  H68      1.0000 0.48640  0.94090  0.65150  Biso   1.000  H
  H69      1.0000 0.95310  0.65660  0.16100  Biso   1.000  H
  H70      1.0000 0.95310  0.34340  0.66100  Biso   1.000  H
  H71      1.0000 0.45310  0.15660  0.16100  Biso   1.000  H
  H72      1.0000 0.45310  0.84340  0.66100  Biso   1.000  H
  C49      1.0000 0.12180  0.63010  0.39740  Biso   1.000  C
  C50      1.0000 0.12180  0.36990  0.89740  Biso   1.000  C
  C51      1.0000 0.62180  0.13010  0.39740  Biso   1.000  C
  C52      1.0000 0.62180  0.86990  0.89740  Biso   1.000  C
  H73      1.0000 0.08270  0.66540  0.41650  Biso   1.000  H
  H74      1.0000 0.08270  0.33460  0.91650  Biso   1.000  H
  H75      1.0000 0.58270  0.16540  0.41650  Biso   1.000  H
  H76      1.0000 0.58270  0.83460  0.91650  Biso   1.000  H
  H77      1.0000 0.11210  0.56650  0.40460  Biso   1.000  H
  H78      1.0000 0.11210  0.43350  0.90460  Biso   1.000  H
  H79      1.0000 0.61210  0.06650  0.40460  Biso   1.000  H
  H80      1.0000 0.61210  0.93350  0.90460  Biso   1.000  H
  H81      1.0000 0.18820  0.64500  0.46800  Biso   1.000  H
  H82      1.0000 0.18820  0.35500  0.96800  Biso   1.000  H
  H83      1.0000 0.68820  0.14500  0.46800  Biso   1.000  H
  H84      1.0000 0.68820  0.85500  0.96800  Biso   1.000  H
  C53      1.0000 0.29000  0.80050  0.22970  Biso   1.000  C
  C54      1.0000 0.29000  0.19950  0.72970  Biso   1.000  C
  C55      1.0000 0.79000  0.30050  0.22970  Biso   1.000  C
  C56      1.0000 0.79000  0.69950  0.72970  Biso   1.000  C
  H85      1.0000 0.26540  0.85860  0.18350  Biso   1.000  H
  H86      1.0000 0.26540  0.14140  0.68350  Biso   1.000  H
  H87      1.0000 0.76540  0.35860  0.18350  Biso   1.000  H
  H88      1.0000 0.76540  0.64140  0.68350  Biso   1.000  H
  H89      1.0000 0.32840  0.80780  0.33440  Biso   1.000  H
  H90      1.0000 0.32840  0.19220  0.83440  Biso   1.000  H
  H91      1.0000 0.82840  0.30780  0.33440  Biso   1.000  H
  H92      1.0000 0.82840  0.69220  0.83440  Biso   1.000  H
  H93      1.0000 0.32870  0.77540  0.20050  Biso   1.000  H
  H94      1.0000 0.32870  0.22460  0.70050  Biso   1.000  H
  H95      1.0000 0.82870  0.27540  0.20050  Biso   1.000  H
  H96      1.0000 0.82870  0.72460  0.70050  Biso   1.000  H
  Cl1      1.0000 0.07760  0.67500  0.75990  Biso   1.000  Cl
  Cl2      1.0000 0.07760  0.32500  0.25990  Biso   1.000  Cl
  Cl3      1.0000 0.57760  0.17500  0.75990  Biso   1.000  Cl
  Cl4      1.0000 0.57760  0.82500  0.25990  Biso   1.000  Cl
  O17      1.0000 0.08120  0.62690  0.65330  Biso   1.000  O
  O18      1.0000 0.08120  0.37310  0.15330  Biso   1.000  O
  O19      1.0000 0.58120  0.12690  0.65330  Biso   1.000  O
  O20      1.0000 0.58120  0.87310  0.15330  Biso   1.000  O
  O21      1.0000 0.11560  0.65560  0.67670  Biso   1.000  O
  O22      1.0000 0.11560  0.34440  0.17670  Biso   1.000  O
  O23      1.0000 0.61560  0.15560  0.67670  Biso   1.000  O
  O24      1.0000 0.61560  0.84440  0.17670  Biso   1.000  O
  O25      1.0000 0.10880  0.76500  0.80240  Biso   1.000  O
  O26      1.0000 0.10880  0.23500  0.30240  Biso   1.000  O
  O27      1.0000 0.60880  0.26500  0.80240  Biso   1.000  O
  O28      1.0000 0.60880  0.73500  0.30240  Biso   1.000  O
  O29      1.0000 0.15400  0.72500  0.87320  Biso   1.000  O
  O30      1.0000 0.15400  0.27500  0.37320  Biso   1.000  O
  O31      1.0000 0.65400  0.22500  0.87320  Biso   1.000  O
  O32      1.0000 0.65400  0.77500  0.37320  Biso   1.000  O
  O33      1.0000 0.06590  0.60700  0.84400  Biso   1.000  O
  O34      1.0000 0.06590  0.39300  0.34400  Biso   1.000  O
  O35      1.0000 0.56590  0.10700  0.84400  Biso   1.000  O
  O36      1.0000 0.56590  0.89300  0.34400  Biso   1.000  O
  O37      1.0000 0.14270  0.62170  0.89260  Biso   1.000  O
  O38      1.0000 0.14270  0.37830  0.39260  Biso   1.000  O
  O39      1.0000 0.64270  0.12170  0.89260  Biso   1.000  O
  O40      1.0000 0.64270  0.87830  0.39260  Biso   1.000  O
  O41      1.0000 0.99410  0.64450  0.73670  Biso   1.000  O
  O42      1.0000 0.99410  0.35550  0.23670  Biso   1.000  O
  O43      1.0000 0.49410  0.14450  0.73670  Biso   1.000  O
  O44      1.0000 0.49410  0.85550  0.23670  Biso   1.000  O
  O45      1.0000 0.98620  0.72660  0.67790  Biso   1.000  O
  O46      1.0000 0.98620  0.27340  0.17790  Biso   1.000  O
  O47      1.0000 0.48620  0.22660  0.67790  Biso   1.000  O
  O48      1.0000 0.48620  0.77340  0.17790  Biso   1.000  O
