data_image0
_cell_length_a       24.7935
_cell_length_b       33.5631
_cell_length_c       18.6669
_cell_angle_alpha    90
_cell_angle_beta     90
_cell_angle_gamma    90

_symmetry_space_group_name_H-M    "P 1"
_symmetry_int_tables_number       1

loop_
  _symmetry_equiv_pos_as_xyz
  'x, y, z'

loop_
  _atom_site_label
  _atom_site_occupancy
  _atom_site_fract_x
  _atom_site_fract_y
  _atom_site_fract_z
  _atom_site_thermal_displace_type
  _atom_site_B_iso_or_equiv
  _atom_site_type_symbol
  Cu1      1.0000 0.21013  0.26753  0.53533  Biso   1.000  Cu
  Cu2      1.0000 0.78987  0.73247  0.03533  Biso   1.000  Cu
  Cu3      1.0000 0.21013  0.73247  0.46467  Biso   1.000  Cu
  Cu4      1.0000 0.78987  0.26753  0.96467  Biso   1.000  Cu
  Cu5      1.0000 0.71013  0.76753  0.53533  Biso   1.000  Cu
  Cu6      1.0000 0.28987  0.23247  0.03533  Biso   1.000  Cu
  Cu7      1.0000 0.71013  0.23247  0.46467  Biso   1.000  Cu
  Cu8      1.0000 0.28987  0.76753  0.96467  Biso   1.000  Cu
  Cu9      1.0000 0.78987  0.73247  0.46467  Biso   1.000  Cu
  Cu10     1.0000 0.21013  0.26753  0.96467  Biso   1.000  Cu
  Cu11     1.0000 0.78987  0.26753  0.53533  Biso   1.000  Cu
  Cu12     1.0000 0.21013  0.73247  0.03533  Biso   1.000  Cu
  Cu13     1.0000 0.28987  0.23247  0.46467  Biso   1.000  Cu
  Cu14     1.0000 0.71013  0.76753  0.96467  Biso   1.000  Cu
  Cu15     1.0000 0.28987  0.76753  0.53533  Biso   1.000  Cu
  Cu16     1.0000 0.71013  0.23247  0.03533  Biso   1.000  Cu
  O1       1.0000 0.18246  0.21337  0.54500  Biso   1.000  O
  O2       1.0000 0.81754  0.78663  0.04500  Biso   1.000  O
  O3       1.0000 0.18246  0.78663  0.45500  Biso   1.000  O
  O4       1.0000 0.81754  0.21337  0.95500  Biso   1.000  O
  O5       1.0000 0.68246  0.71337  0.54500  Biso   1.000  O
  O6       1.0000 0.31754  0.28663  0.04500  Biso   1.000  O
  O7       1.0000 0.68246  0.28663  0.45500  Biso   1.000  O
  O8       1.0000 0.31754  0.71337  0.95500  Biso   1.000  O
  O9       1.0000 0.81754  0.78663  0.45500  Biso   1.000  O
  O10      1.0000 0.18246  0.21337  0.95500  Biso   1.000  O
  O11      1.0000 0.81754  0.21337  0.54500  Biso   1.000  O
  O12      1.0000 0.18246  0.78663  0.04500  Biso   1.000  O
  O13      1.0000 0.31754  0.28663  0.45500  Biso   1.000  O
  O14      1.0000 0.68246  0.71337  0.95500  Biso   1.000  O
  O15      1.0000 0.31754  0.71337  0.54500  Biso   1.000  O
  O16      1.0000 0.68246  0.28663  0.04500  Biso   1.000  O
  O17      1.0000 0.25480  0.25774  0.61960  Biso   1.000  O
  O18      1.0000 0.74520  0.74226  0.11960  Biso   1.000  O
  O19      1.0000 0.25480  0.74226  0.38040  Biso   1.000  O
  O20      1.0000 0.74520  0.25774  0.88040  Biso   1.000  O
  O21      1.0000 0.75480  0.75774  0.61960  Biso   1.000  O
  O22      1.0000 0.24520  0.24226  0.11960  Biso   1.000  O
  O23      1.0000 0.75480  0.24226  0.38040  Biso   1.000  O
  O24      1.0000 0.24520  0.75774  0.88040  Biso   1.000  O
  O25      1.0000 0.74520  0.74226  0.38040  Biso   1.000  O
  O26      1.0000 0.25480  0.25774  0.88040  Biso   1.000  O
  O27      1.0000 0.74520  0.25774  0.61960  Biso   1.000  O
  O28      1.0000 0.25480  0.74226  0.11960  Biso   1.000  O
  O29      1.0000 0.24520  0.24226  0.38040  Biso   1.000  O
  O30      1.0000 0.75480  0.75774  0.88040  Biso   1.000  O
  O31      1.0000 0.24520  0.75774  0.61960  Biso   1.000  O
  O32      1.0000 0.75480  0.24226  0.11960  Biso   1.000  O
  O33      1.0000 0.14520  0.29825  0.58840  Biso   1.000  O
  O34      1.0000 0.85480  0.70175  0.08840  Biso   1.000  O
  O35      1.0000 0.14520  0.70175  0.41160  Biso   1.000  O
  O36      1.0000 0.85480  0.29825  0.91160  Biso   1.000  O
  O37      1.0000 0.64520  0.79825  0.58840  Biso   1.000  O
  O38      1.0000 0.35480  0.20175  0.08840  Biso   1.000  O
  O39      1.0000 0.64520  0.20175  0.41160  Biso   1.000  O
  O40      1.0000 0.35480  0.79825  0.91160  Biso   1.000  O
  O41      1.0000 0.85480  0.70175  0.41160  Biso   1.000  O
  O42      1.0000 0.14520  0.29825  0.91160  Biso   1.000  O
  O43      1.0000 0.85480  0.29825  0.58840  Biso   1.000  O
  O44      1.0000 0.14520  0.70175  0.08840  Biso   1.000  O
  O45      1.0000 0.35480  0.20175  0.41160  Biso   1.000  O
  O46      1.0000 0.64520  0.79825  0.91160  Biso   1.000  O
  O47      1.0000 0.35480  0.79825  0.58840  Biso   1.000  O
  O48      1.0000 0.64520  0.20175  0.08840  Biso   1.000  O
  O49      1.0000 0.17782  0.27203  0.43940  Biso   1.000  O
  O50      1.0000 0.82218  0.72797  0.93940  Biso   1.000  O
  O51      1.0000 0.17782  0.72797  0.56060  Biso   1.000  O
  O52      1.0000 0.82218  0.27203  0.06060  Biso   1.000  O
  O53      1.0000 0.67782  0.77203  0.43940  Biso   1.000  O
  O54      1.0000 0.32218  0.22797  0.93940  Biso   1.000  O
  O55      1.0000 0.67782  0.22797  0.56060  Biso   1.000  O
  O56      1.0000 0.32218  0.77203  0.06060  Biso   1.000  O
  O57      1.0000 0.82218  0.72797  0.56060  Biso   1.000  O
  O58      1.0000 0.17782  0.27203  0.06060  Biso   1.000  O
  O59      1.0000 0.82218  0.27203  0.43940  Biso   1.000  O
  O60      1.0000 0.17782  0.72797  0.93940  Biso   1.000  O
  O61      1.0000 0.32218  0.22797  0.56060  Biso   1.000  O
  O62      1.0000 0.67782  0.77203  0.06060  Biso   1.000  O
  O63      1.0000 0.32218  0.77203  0.43940  Biso   1.000  O
  O64      1.0000 0.67782  0.22797  0.93940  Biso   1.000  O
  O65      1.0000 0.25062  0.31633  0.51520  Biso   1.000  O
  O66      1.0000 0.74938  0.68367  0.01520  Biso   1.000  O
  O67      1.0000 0.25062  0.68367  0.48480  Biso   1.000  O
  O68      1.0000 0.74938  0.31633  0.98480  Biso   1.000  O
  O69      1.0000 0.75062  0.81633  0.51520  Biso   1.000  O
  O70      1.0000 0.24938  0.18367  0.01520  Biso   1.000  O
  O71      1.0000 0.75062  0.18367  0.48480  Biso   1.000  O
  O72      1.0000 0.24938  0.81633  0.98480  Biso   1.000  O
  O73      1.0000 0.74938  0.68367  0.48480  Biso   1.000  O
  O74      1.0000 0.25062  0.31633  0.98480  Biso   1.000  O
  O75      1.0000 0.74938  0.31633  0.51520  Biso   1.000  O
  O76      1.0000 0.25062  0.68367  0.01520  Biso   1.000  O
  O77      1.0000 0.24938  0.18367  0.48480  Biso   1.000  O
  O78      1.0000 0.75062  0.81633  0.98480  Biso   1.000  O
  O79      1.0000 0.24938  0.81633  0.51520  Biso   1.000  O
  O80      1.0000 0.75062  0.18367  0.01520  Biso   1.000  O
  C1       1.0000 0.20660  0.18326  0.52220  Biso   1.000  C
  C2       1.0000 0.79340  0.81674  0.02220  Biso   1.000  C
  C3       1.0000 0.20660  0.81674  0.47780  Biso   1.000  C
  C4       1.0000 0.79340  0.18326  0.97780  Biso   1.000  C
  C5       1.0000 0.70660  0.68326  0.52220  Biso   1.000  C
  C6       1.0000 0.29340  0.31674  0.02220  Biso   1.000  C
  C7       1.0000 0.70660  0.31674  0.47780  Biso   1.000  C
  C8       1.0000 0.29340  0.68326  0.97780  Biso   1.000  C
  C9       1.0000 0.79340  0.81674  0.47780  Biso   1.000  C
  C10      1.0000 0.20660  0.18326  0.97780  Biso   1.000  C
  C11      1.0000 0.79340  0.18326  0.52220  Biso   1.000  C
  C12      1.0000 0.20660  0.81674  0.02220  Biso   1.000  C
  C13      1.0000 0.29340  0.31674  0.47780  Biso   1.000  C
  C14      1.0000 0.70660  0.68326  0.97780  Biso   1.000  C
  C15      1.0000 0.29340  0.68326  0.52220  Biso   1.000  C
  C16      1.0000 0.70660  0.31674  0.02220  Biso   1.000  C
  C17      1.0000 0.29890  0.23953  0.61650  Biso   1.000  C
  C18      1.0000 0.70110  0.76047  0.11650  Biso   1.000  C
  C19      1.0000 0.29890  0.76047  0.38350  Biso   1.000  C
  C20      1.0000 0.70110  0.23953  0.88350  Biso   1.000  C
  C21      1.0000 0.79890  0.73953  0.61650  Biso   1.000  C
  C22      1.0000 0.20110  0.26047  0.11650  Biso   1.000  C
  C23      1.0000 0.79890  0.26047  0.38350  Biso   1.000  C
  C24      1.0000 0.20110  0.73953  0.88350  Biso   1.000  C
  C25      1.0000 0.70110  0.76047  0.38350  Biso   1.000  C
  C26      1.0000 0.29890  0.23953  0.88350  Biso   1.000  C
  C27      1.0000 0.70110  0.23953  0.61650  Biso   1.000  C
  C28      1.0000 0.29890  0.76047  0.11650  Biso   1.000  C
  C29      1.0000 0.20110  0.26047  0.38350  Biso   1.000  C
  C30      1.0000 0.79890  0.73953  0.88350  Biso   1.000  C
  C31      1.0000 0.20110  0.73953  0.61650  Biso   1.000  C
  C32      1.0000 0.79890  0.26047  0.11650  Biso   1.000  C
  C33      1.0000 0.18380  0.14285  0.53970  Biso   1.000  C
  C34      1.0000 0.81620  0.85715  0.03970  Biso   1.000  C
  C35      1.0000 0.18380  0.85715  0.46030  Biso   1.000  C
  C36      1.0000 0.81620  0.14285  0.96030  Biso   1.000  C
  C37      1.0000 0.68380  0.64285  0.53970  Biso   1.000  C
  C38      1.0000 0.31620  0.35715  0.03970  Biso   1.000  C
  C39      1.0000 0.68380  0.35715  0.46030  Biso   1.000  C
  C40      1.0000 0.31620  0.64285  0.96030  Biso   1.000  C
  C41      1.0000 0.81620  0.85715  0.46030  Biso   1.000  C
  C42      1.0000 0.18380  0.14285  0.96030  Biso   1.000  C
  C43      1.0000 0.81620  0.14285  0.53970  Biso   1.000  C
  C44      1.0000 0.18380  0.85715  0.03970  Biso   1.000  C
  C45      1.0000 0.31620  0.35715  0.46030  Biso   1.000  C
  C46      1.0000 0.68380  0.64285  0.96030  Biso   1.000  C
  C47      1.0000 0.31620  0.64285  0.53970  Biso   1.000  C
  C48      1.0000 0.68380  0.35715  0.03970  Biso   1.000  C
  C49      1.0000 0.32620  0.22992  0.68540  Biso   1.000  C
  C50      1.0000 0.67380  0.77008  0.18540  Biso   1.000  C
  C51      1.0000 0.32620  0.77008  0.31460  Biso   1.000  C
  C52      1.0000 0.67380  0.22992  0.81460  Biso   1.000  C
  C53      1.0000 0.82620  0.72992  0.68540  Biso   1.000  C
  C54      1.0000 0.17380  0.27008  0.18540  Biso   1.000  C
  C55      1.0000 0.82620  0.27008  0.31460  Biso   1.000  C
  C56      1.0000 0.17380  0.72992  0.81460  Biso   1.000  C
  C57      1.0000 0.67380  0.77008  0.31460  Biso   1.000  C
  C58      1.0000 0.32620  0.22992  0.81460  Biso   1.000  C
  C59      1.0000 0.67380  0.22992  0.68540  Biso   1.000  C
  C60      1.0000 0.32620  0.77008  0.18540  Biso   1.000  C
  C61      1.0000 0.17380  0.27008  0.31460  Biso   1.000  C
  C62      1.0000 0.82620  0.72992  0.81460  Biso   1.000  C
  C63      1.0000 0.17380  0.72992  0.68540  Biso   1.000  C
  C64      1.0000 0.82620  0.27008  0.18540  Biso   1.000  C
  C65      1.0000 0.21100  0.10875  0.51870  Biso   1.000  C
  C66      1.0000 0.78900  0.89125  0.01870  Biso   1.000  C
  C67      1.0000 0.21100  0.89125  0.48130  Biso   1.000  C
  C68      1.0000 0.78900  0.10875  0.98130  Biso   1.000  C
  C69      1.0000 0.71100  0.60875  0.51870  Biso   1.000  C
  C70      1.0000 0.28900  0.39125  0.01870  Biso   1.000  C
  C71      1.0000 0.71100  0.39125  0.48130  Biso   1.000  C
  C72      1.0000 0.28900  0.60875  0.98130  Biso   1.000  C
  C73      1.0000 0.78900  0.89125  0.48130  Biso   1.000  C
  C74      1.0000 0.21100  0.10875  0.98130  Biso   1.000  C
  C75      1.0000 0.78900  0.10875  0.51870  Biso   1.000  C
  C76      1.0000 0.21100  0.89125  0.01870  Biso   1.000  C
  C77      1.0000 0.28900  0.39125  0.48130  Biso   1.000  C
  C78      1.0000 0.71100  0.60875  0.98130  Biso   1.000  C
  C79      1.0000 0.28900  0.60875  0.51870  Biso   1.000  C
  C80      1.0000 0.71100  0.39125  0.01870  Biso   1.000  C
  C81      1.0000 0.13910  0.14085  0.58380  Biso   1.000  C
  C82      1.0000 0.86090  0.85915  0.08380  Biso   1.000  C
  C83      1.0000 0.13910  0.85915  0.41620  Biso   1.000  C
  C84      1.0000 0.86090  0.14085  0.91620  Biso   1.000  C
  C85      1.0000 0.63910  0.64085  0.58380  Biso   1.000  C
  C86      1.0000 0.36090  0.35915  0.08380  Biso   1.000  C
  C87      1.0000 0.63910  0.35915  0.41620  Biso   1.000  C
  C88      1.0000 0.36090  0.64085  0.91620  Biso   1.000  C
  C89      1.0000 0.86090  0.85915  0.41620  Biso   1.000  C
  C90      1.0000 0.13910  0.14085  0.91620  Biso   1.000  C
  C91      1.0000 0.86090  0.14085  0.58380  Biso   1.000  C
  C92      1.0000 0.13910  0.85915  0.08380  Biso   1.000  C
  C93      1.0000 0.36090  0.35915  0.41620  Biso   1.000  C
  C94      1.0000 0.63910  0.64085  0.91620  Biso   1.000  C
  C95      1.0000 0.36090  0.64085  0.58380  Biso   1.000  C
  C96      1.0000 0.63910  0.35915  0.08380  Biso   1.000  C
  C97      1.0000 0.30180  0.24090  0.75000  Biso   1.000  C
  C98      1.0000 0.69820  0.75910  0.25000  Biso   1.000  C
  C99      1.0000 0.30180  0.75910  0.25000  Biso   1.000  C
  C100     1.0000 0.69820  0.24090  0.75000  Biso   1.000  C
  C101     1.0000 0.80180  0.74090  0.75000  Biso   1.000  C
  C102     1.0000 0.19820  0.25910  0.25000  Biso   1.000  C
  C103     1.0000 0.80180  0.25910  0.25000  Biso   1.000  C
  C104     1.0000 0.19820  0.74090  0.75000  Biso   1.000  C
  C105     1.0000 0.37500  0.20890  0.68590  Biso   1.000  C
  C106     1.0000 0.62500  0.79110  0.18590  Biso   1.000  C
  C107     1.0000 0.37500  0.79110  0.31410  Biso   1.000  C
  C108     1.0000 0.62500  0.20890  0.81410  Biso   1.000  C
  C109     1.0000 0.87500  0.70890  0.68590  Biso   1.000  C
  C110     1.0000 0.12500  0.29110  0.18590  Biso   1.000  C
  C111     1.0000 0.87500  0.29110  0.31410  Biso   1.000  C
  C112     1.0000 0.12500  0.70890  0.81410  Biso   1.000  C
  C113     1.0000 0.62500  0.79110  0.31410  Biso   1.000  C
  C114     1.0000 0.37500  0.20890  0.81410  Biso   1.000  C
  C115     1.0000 0.62500  0.20890  0.68590  Biso   1.000  C
  C116     1.0000 0.37500  0.79110  0.18590  Biso   1.000  C
  C117     1.0000 0.12500  0.29110  0.31410  Biso   1.000  C
  C118     1.0000 0.87500  0.70890  0.81410  Biso   1.000  C
  C119     1.0000 0.12500  0.70890  0.68590  Biso   1.000  C
  C120     1.0000 0.87500  0.29110  0.18590  Biso   1.000  C
  H1       1.0000 0.24210  0.11060  0.49100  Biso   1.000  H
  H2       1.0000 0.75790  0.88940  0.99100  Biso   1.000  H
  H3       1.0000 0.24210  0.88940  0.50900  Biso   1.000  H
  H4       1.0000 0.75790  0.11060  0.00900  Biso   1.000  H
  H5       1.0000 0.74210  0.61060  0.49100  Biso   1.000  H
  H6       1.0000 0.25790  0.38940  0.99100  Biso   1.000  H
  H7       1.0000 0.74210  0.38940  0.50900  Biso   1.000  H
  H8       1.0000 0.25790  0.61060  0.00900  Biso   1.000  H
  H9       1.0000 0.75790  0.88940  0.50900  Biso   1.000  H
  H10      1.0000 0.24210  0.11060  0.00900  Biso   1.000  H
  H11      1.0000 0.75790  0.11060  0.49100  Biso   1.000  H
  H12      1.0000 0.24210  0.88940  0.99100  Biso   1.000  H
  H13      1.0000 0.25790  0.38940  0.50900  Biso   1.000  H
  H14      1.0000 0.74210  0.61060  0.00900  Biso   1.000  H
  H15      1.0000 0.25790  0.61060  0.49100  Biso   1.000  H
  H16      1.0000 0.74210  0.38940  0.99100  Biso   1.000  H
  C121     1.0000 0.19100  0.07135  0.53980  Biso   1.000  C
  C122     1.0000 0.80900  0.92865  0.03980  Biso   1.000  C
  C123     1.0000 0.19100  0.92865  0.46020  Biso   1.000  C
  C124     1.0000 0.80900  0.07135  0.96020  Biso   1.000  C
  C125     1.0000 0.69100  0.57135  0.53980  Biso   1.000  C
  C126     1.0000 0.30900  0.42865  0.03980  Biso   1.000  C
  C127     1.0000 0.69100  0.42865  0.46020  Biso   1.000  C
  C128     1.0000 0.30900  0.57135  0.96020  Biso   1.000  C
  C129     1.0000 0.80900  0.92865  0.46020  Biso   1.000  C
  C130     1.0000 0.19100  0.07135  0.96020  Biso   1.000  C
  C131     1.0000 0.80900  0.07135  0.53980  Biso   1.000  C
  C132     1.0000 0.19100  0.92865  0.03980  Biso   1.000  C
  C133     1.0000 0.30900  0.42865  0.46020  Biso   1.000  C
  C134     1.0000 0.69100  0.57135  0.96020  Biso   1.000  C
  C135     1.0000 0.30900  0.57135  0.53980  Biso   1.000  C
  C136     1.0000 0.69100  0.42865  0.03980  Biso   1.000  C
  H17      1.0000 0.12210  0.16410  0.59880  Biso   1.000  H
  H18      1.0000 0.87790  0.83590  0.09880  Biso   1.000  H
  H19      1.0000 0.12210  0.83590  0.40120  Biso   1.000  H
  H20      1.0000 0.87790  0.16410  0.90120  Biso   1.000  H
  H21      1.0000 0.62210  0.66410  0.59880  Biso   1.000  H
  H22      1.0000 0.37790  0.33590  0.09880  Biso   1.000  H
  H23      1.0000 0.62210  0.33590  0.40120  Biso   1.000  H
  H24      1.0000 0.37790  0.66410  0.90120  Biso   1.000  H
  H25      1.0000 0.87790  0.83590  0.40120  Biso   1.000  H
  H26      1.0000 0.12210  0.16410  0.90120  Biso   1.000  H
  H27      1.0000 0.87790  0.16410  0.59880  Biso   1.000  H
  H28      1.0000 0.12210  0.83590  0.09880  Biso   1.000  H
  H29      1.0000 0.37790  0.33590  0.40120  Biso   1.000  H
  H30      1.0000 0.62210  0.66410  0.90120  Biso   1.000  H
  H31      1.0000 0.37790  0.66410  0.59880  Biso   1.000  H
  H32      1.0000 0.62210  0.33590  0.09880  Biso   1.000  H
  C137     1.0000 0.11970  0.10429  0.60560  Biso   1.000  C
  C138     1.0000 0.88030  0.89571  0.10560  Biso   1.000  C
  C139     1.0000 0.11970  0.89571  0.39440  Biso   1.000  C
  C140     1.0000 0.88030  0.10429  0.89440  Biso   1.000  C
  C141     1.0000 0.61970  0.60429  0.60560  Biso   1.000  C
  C142     1.0000 0.38030  0.39571  0.10560  Biso   1.000  C
  C143     1.0000 0.61970  0.39571  0.39440  Biso   1.000  C
  C144     1.0000 0.38030  0.60429  0.89440  Biso   1.000  C
  C145     1.0000 0.88030  0.89571  0.39440  Biso   1.000  C
  C146     1.0000 0.11970  0.10429  0.89440  Biso   1.000  C
  C147     1.0000 0.88030  0.10429  0.60560  Biso   1.000  C
  C148     1.0000 0.11970  0.89571  0.10560  Biso   1.000  C
  C149     1.0000 0.38030  0.39571  0.39440  Biso   1.000  C
  C150     1.0000 0.61970  0.60429  0.89440  Biso   1.000  C
  C151     1.0000 0.38030  0.60429  0.60560  Biso   1.000  C
  C152     1.0000 0.61970  0.39571  0.10560  Biso   1.000  C
  H33      1.0000 0.26970  0.25520  0.75000  Biso   1.000  H
  H34      1.0000 0.73030  0.74480  0.25000  Biso   1.000  H
  H35      1.0000 0.26970  0.74480  0.25000  Biso   1.000  H
  H36      1.0000 0.73030  0.25520  0.75000  Biso   1.000  H
  H37      1.0000 0.76970  0.75520  0.75000  Biso   1.000  H
  H38      1.0000 0.23030  0.24480  0.25000  Biso   1.000  H
  H39      1.0000 0.76970  0.24480  0.25000  Biso   1.000  H
  H40      1.0000 0.23030  0.75520  0.75000  Biso   1.000  H
  C153     1.0000 0.40000  0.19810  0.75000  Biso   1.000  C
  C154     1.0000 0.60000  0.80190  0.25000  Biso   1.000  C
  C155     1.0000 0.40000  0.80190  0.25000  Biso   1.000  C
  C156     1.0000 0.60000  0.19810  0.75000  Biso   1.000  C
  C157     1.0000 0.90000  0.69810  0.75000  Biso   1.000  C
  C158     1.0000 0.10000  0.30190  0.25000  Biso   1.000  C
  C159     1.0000 0.90000  0.30190  0.25000  Biso   1.000  C
  C160     1.0000 0.10000  0.69810  0.75000  Biso   1.000  C
  H41      1.0000 0.39100  0.20190  0.64260  Biso   1.000  H
  H42      1.0000 0.60900  0.79810  0.14260  Biso   1.000  H
  H43      1.0000 0.39100  0.79810  0.35740  Biso   1.000  H
  H44      1.0000 0.60900  0.20190  0.85740  Biso   1.000  H
  H45      1.0000 0.89100  0.70190  0.64260  Biso   1.000  H
  H46      1.0000 0.10900  0.29810  0.14260  Biso   1.000  H
  H47      1.0000 0.89100  0.29810  0.35740  Biso   1.000  H
  H48      1.0000 0.10900  0.70190  0.85740  Biso   1.000  H
  H49      1.0000 0.60900  0.79810  0.35740  Biso   1.000  H
  H50      1.0000 0.39100  0.20190  0.85740  Biso   1.000  H
  H51      1.0000 0.60900  0.20190  0.64260  Biso   1.000  H
  H52      1.0000 0.39100  0.79810  0.14260  Biso   1.000  H
  H53      1.0000 0.10900  0.29810  0.35740  Biso   1.000  H
  H54      1.0000 0.89100  0.70190  0.85740  Biso   1.000  H
  H55      1.0000 0.10900  0.70190  0.64260  Biso   1.000  H
  H56      1.0000 0.89100  0.29810  0.14260  Biso   1.000  H
  C161     1.0000 0.22070  0.03441  0.51890  Biso   1.000  C
  C162     1.0000 0.77930  0.96559  0.01890  Biso   1.000  C
  C163     1.0000 0.22070  0.96559  0.48110  Biso   1.000  C
  C164     1.0000 0.77930  0.03441  0.98110  Biso   1.000  C
  C165     1.0000 0.72070  0.53441  0.51890  Biso   1.000  C
  C166     1.0000 0.27930  0.46559  0.01890  Biso   1.000  C
  C167     1.0000 0.72070  0.46559  0.48110  Biso   1.000  C
  C168     1.0000 0.27930  0.53441  0.98110  Biso   1.000  C
  C169     1.0000 0.77930  0.96559  0.48110  Biso   1.000  C
  C170     1.0000 0.22070  0.03441  0.98110  Biso   1.000  C
  C171     1.0000 0.77930  0.03441  0.51890  Biso   1.000  C
  C172     1.0000 0.22070  0.96559  0.01890  Biso   1.000  C
  C173     1.0000 0.27930  0.46559  0.48110  Biso   1.000  C
  C174     1.0000 0.72070  0.53441  0.98110  Biso   1.000  C
  C175     1.0000 0.27930  0.53441  0.51890  Biso   1.000  C
  C176     1.0000 0.72070  0.46559  0.01890  Biso   1.000  C
  C177     1.0000 0.14640  0.06953  0.58310  Biso   1.000  C
  C178     1.0000 0.85360  0.93047  0.08310  Biso   1.000  C
  C179     1.0000 0.14640  0.93047  0.41690  Biso   1.000  C
  C180     1.0000 0.85360  0.06953  0.91690  Biso   1.000  C
  C181     1.0000 0.64640  0.56953  0.58310  Biso   1.000  C
  C182     1.0000 0.35360  0.43047  0.08310  Biso   1.000  C
  C183     1.0000 0.64640  0.43047  0.41690  Biso   1.000  C
  C184     1.0000 0.35360  0.56953  0.91690  Biso   1.000  C
  C185     1.0000 0.85360  0.93047  0.41690  Biso   1.000  C
  C186     1.0000 0.14640  0.06953  0.91690  Biso   1.000  C
  C187     1.0000 0.85360  0.06953  0.58310  Biso   1.000  C
  C188     1.0000 0.14640  0.93047  0.08310  Biso   1.000  C
  C189     1.0000 0.35360  0.43047  0.41690  Biso   1.000  C
  C190     1.0000 0.64640  0.56953  0.91690  Biso   1.000  C
  C191     1.0000 0.35360  0.56953  0.58310  Biso   1.000  C
  C192     1.0000 0.64640  0.43047  0.08310  Biso   1.000  C
  C193     1.0000 0.07290  0.10310  0.65750  Biso   1.000  C
  C194     1.0000 0.92710  0.89690  0.15750  Biso   1.000  C
  C195     1.0000 0.07290  0.89690  0.34250  Biso   1.000  C
  C196     1.0000 0.92710  0.10310  0.84250  Biso   1.000  C
  C197     1.0000 0.57290  0.60310  0.65750  Biso   1.000  C
  C198     1.0000 0.42710  0.39690  0.15750  Biso   1.000  C
  C199     1.0000 0.57290  0.39690  0.34250  Biso   1.000  C
  C200     1.0000 0.42710  0.60310  0.84250  Biso   1.000  C
  C201     1.0000 0.92710  0.89690  0.34250  Biso   1.000  C
  C202     1.0000 0.07290  0.10310  0.84250  Biso   1.000  C
  C203     1.0000 0.92710  0.10310  0.65750  Biso   1.000  C
  C204     1.0000 0.07290  0.89690  0.15750  Biso   1.000  C
  C205     1.0000 0.42710  0.39690  0.34250  Biso   1.000  C
  C206     1.0000 0.57290  0.60310  0.84250  Biso   1.000  C
  C207     1.0000 0.42710  0.60310  0.65750  Biso   1.000  C
  C208     1.0000 0.57290  0.39690  0.15750  Biso   1.000  C
  C209     1.0000 0.45280  0.17540  0.75000  Biso   1.000  C
  C210     1.0000 0.54720  0.82460  0.25000  Biso   1.000  C
  C211     1.0000 0.45280  0.82460  0.25000  Biso   1.000  C
  C212     1.0000 0.54720  0.17540  0.75000  Biso   1.000  C
  C213     1.0000 0.95280  0.67540  0.75000  Biso   1.000  C
  C214     1.0000 0.04720  0.32460  0.25000  Biso   1.000  C
  C215     1.0000 0.95280  0.32460  0.25000  Biso   1.000  C
  C216     1.0000 0.04720  0.67540  0.75000  Biso   1.000  C
  C217     1.0000 0.19230  0.00000  0.50000  Biso   1.000  C
  C218     1.0000 0.80770  0.00000  0.00000  Biso   1.000  C
  C219     1.0000 0.69230  0.50000  0.50000  Biso   1.000  C
  C220     1.0000 0.30770  0.50000  0.00000  Biso   1.000  C
  C221     1.0000 0.80770  0.00000  0.50000  Biso   1.000  C
  C222     1.0000 0.19230  0.00000  0.00000  Biso   1.000  C
  C223     1.0000 0.30770  0.50000  0.50000  Biso   1.000  C
  C224     1.0000 0.69230  0.50000  0.00000  Biso   1.000  C
  C225     1.0000 0.27760  0.03370  0.51950  Biso   1.000  C
  C226     1.0000 0.72240  0.96630  0.01950  Biso   1.000  C
  C227     1.0000 0.27760  0.96630  0.48050  Biso   1.000  C
  C228     1.0000 0.72240  0.03370  0.98050  Biso   1.000  C
  C229     1.0000 0.77760  0.53370  0.51950  Biso   1.000  C
  C230     1.0000 0.22240  0.46630  0.01950  Biso   1.000  C
  C231     1.0000 0.77760  0.46630  0.48050  Biso   1.000  C
  C232     1.0000 0.22240  0.53370  0.98050  Biso   1.000  C
  C233     1.0000 0.72240  0.96630  0.48050  Biso   1.000  C
  C234     1.0000 0.27760  0.03370  0.98050  Biso   1.000  C
  C235     1.0000 0.72240  0.03370  0.51950  Biso   1.000  C
  C236     1.0000 0.27760  0.96630  0.01950  Biso   1.000  C
  C237     1.0000 0.22240  0.46630  0.48050  Biso   1.000  C
  C238     1.0000 0.77760  0.53370  0.98050  Biso   1.000  C
  C239     1.0000 0.22240  0.53370  0.51950  Biso   1.000  C
  C240     1.0000 0.77760  0.46630  0.01950  Biso   1.000  C
  H57      1.0000 0.13350  0.04480  0.59780  Biso   1.000  H
  H58      1.0000 0.86650  0.95520  0.09780  Biso   1.000  H
  H59      1.0000 0.13350  0.95520  0.40220  Biso   1.000  H
  H60      1.0000 0.86650  0.04480  0.90220  Biso   1.000  H
  H61      1.0000 0.63350  0.54480  0.59780  Biso   1.000  H
  H62      1.0000 0.36650  0.45520  0.09780  Biso   1.000  H
  H63      1.0000 0.63350  0.45520  0.40220  Biso   1.000  H
  H64      1.0000 0.36650  0.54480  0.90220  Biso   1.000  H
  H65      1.0000 0.86650  0.95520  0.40220  Biso   1.000  H
  H66      1.0000 0.13350  0.04480  0.90220  Biso   1.000  H
  H67      1.0000 0.86650  0.04480  0.59780  Biso   1.000  H
  H68      1.0000 0.13350  0.95520  0.09780  Biso   1.000  H
  H69      1.0000 0.36650  0.45520  0.40220  Biso   1.000  H
  H70      1.0000 0.63350  0.54480  0.90220  Biso   1.000  H
  H71      1.0000 0.36650  0.54480  0.59780  Biso   1.000  H
  H72      1.0000 0.63350  0.45520  0.09780  Biso   1.000  H
  O81      1.0000 0.05608  0.06915  0.67580  Biso   1.000  O
  O82      1.0000 0.94392  0.93085  0.17580  Biso   1.000  O
  O83      1.0000 0.05608  0.93085  0.32420  Biso   1.000  O
  O84      1.0000 0.94392  0.06915  0.82420  Biso   1.000  O
  O85      1.0000 0.55608  0.56915  0.67580  Biso   1.000  O
  O86      1.0000 0.44392  0.43085  0.17580  Biso   1.000  O
  O87      1.0000 0.55608  0.43085  0.32420  Biso   1.000  O
  O88      1.0000 0.44392  0.56915  0.82420  Biso   1.000  O
  O89      1.0000 0.94392  0.93085  0.32420  Biso   1.000  O
  O90      1.0000 0.05608  0.06915  0.82420  Biso   1.000  O
  O91      1.0000 0.94392  0.06915  0.67580  Biso   1.000  O
  O92      1.0000 0.05608  0.93085  0.17580  Biso   1.000  O
  O93      1.0000 0.44392  0.43085  0.32420  Biso   1.000  O
  O94      1.0000 0.55608  0.56915  0.82420  Biso   1.000  O
  O95      1.0000 0.44392  0.56915  0.67580  Biso   1.000  O
  O96      1.0000 0.55608  0.43085  0.17580  Biso   1.000  O
  O97      1.0000 0.05472  0.13562  0.67590  Biso   1.000  O
  O98      1.0000 0.94528  0.86438  0.17590  Biso   1.000  O
  O99      1.0000 0.05472  0.86438  0.32410  Biso   1.000  O
  O100     1.0000 0.94528  0.13562  0.82410  Biso   1.000  O
  O101     1.0000 0.55472  0.63562  0.67590  Biso   1.000  O
  O102     1.0000 0.44528  0.36438  0.17590  Biso   1.000  O
  O103     1.0000 0.55472  0.36438  0.32410  Biso   1.000  O
  O104     1.0000 0.44528  0.63562  0.82410  Biso   1.000  O
  O105     1.0000 0.94528  0.86438  0.32410  Biso   1.000  O
  O106     1.0000 0.05472  0.13562  0.82410  Biso   1.000  O
  O107     1.0000 0.94528  0.13562  0.67590  Biso   1.000  O
  O108     1.0000 0.05472  0.86438  0.17590  Biso   1.000  O
  O109     1.0000 0.44528  0.36438  0.32410  Biso   1.000  O
  O110     1.0000 0.55472  0.63562  0.82410  Biso   1.000  O
  O111     1.0000 0.44528  0.63562  0.67590  Biso   1.000  O
  O112     1.0000 0.55472  0.36438  0.17590  Biso   1.000  O
  C241     1.0000 0.50000  0.19370  0.75000  Biso   1.000  C
  C242     1.0000 0.50000  0.80630  0.25000  Biso   1.000  C
  C243     1.0000 0.00000  0.69370  0.75000  Biso   1.000  C
  C244     1.0000 0.00000  0.30630  0.25000  Biso   1.000  C
  C245     1.0000 0.45200  0.13650  0.70290  Biso   1.000  C
  C246     1.0000 0.54800  0.86350  0.20290  Biso   1.000  C
  C247     1.0000 0.45200  0.86350  0.29710  Biso   1.000  C
  C248     1.0000 0.54800  0.13650  0.79710  Biso   1.000  C
  C249     1.0000 0.95200  0.63650  0.70290  Biso   1.000  C
  C250     1.0000 0.04800  0.36350  0.20290  Biso   1.000  C
  C251     1.0000 0.95200  0.36350  0.29710  Biso   1.000  C
  C252     1.0000 0.04800  0.63650  0.79710  Biso   1.000  C
  C253     1.0000 0.54800  0.86350  0.29710  Biso   1.000  C
  C254     1.0000 0.45200  0.13650  0.79710  Biso   1.000  C
  C255     1.0000 0.54800  0.13650  0.70290  Biso   1.000  C
  C256     1.0000 0.45200  0.86350  0.20290  Biso   1.000  C
  C257     1.0000 0.04800  0.36350  0.29710  Biso   1.000  C
  C258     1.0000 0.95200  0.63650  0.79710  Biso   1.000  C
  C259     1.0000 0.04800  0.63650  0.70290  Biso   1.000  C
  C260     1.0000 0.95200  0.36350  0.20290  Biso   1.000  C
  H73      1.0000 0.15480  0.00000  0.50000  Biso   1.000  H
  H74      1.0000 0.84520  0.00000  0.00000  Biso   1.000  H
  H75      1.0000 0.65480  0.50000  0.50000  Biso   1.000  H
  H76      1.0000 0.34520  0.50000  0.00000  Biso   1.000  H
  H77      1.0000 0.84520  0.00000  0.50000  Biso   1.000  H
  H78      1.0000 0.15480  0.00000  0.00000  Biso   1.000  H
  H79      1.0000 0.34520  0.50000  0.50000  Biso   1.000  H
  H80      1.0000 0.65480  0.50000  0.00000  Biso   1.000  H
  C261     1.0000 0.30380  0.00000  0.50000  Biso   1.000  C
  C262     1.0000 0.69620  0.00000  0.00000  Biso   1.000  C
  C263     1.0000 0.80380  0.50000  0.50000  Biso   1.000  C
  C264     1.0000 0.19620  0.50000  0.00000  Biso   1.000  C
  C265     1.0000 0.69620  0.00000  0.50000  Biso   1.000  C
  C266     1.0000 0.30380  0.00000  0.00000  Biso   1.000  C
  C267     1.0000 0.19620  0.50000  0.50000  Biso   1.000  C
  C268     1.0000 0.80380  0.50000  0.00000  Biso   1.000  C
  H81      1.0000 0.29690  0.05630  0.53300  Biso   1.000  H
  H82      1.0000 0.70310  0.94370  0.03300  Biso   1.000  H
  H83      1.0000 0.29690  0.94370  0.46700  Biso   1.000  H
  H84      1.0000 0.70310  0.05630  0.96700  Biso   1.000  H
  H85      1.0000 0.79690  0.55630  0.53300  Biso   1.000  H
  H86      1.0000 0.20310  0.44370  0.03300  Biso   1.000  H
  H87      1.0000 0.79690  0.44370  0.46700  Biso   1.000  H
  H88      1.0000 0.20310  0.55630  0.96700  Biso   1.000  H
  H89      1.0000 0.70310  0.94370  0.46700  Biso   1.000  H
  H90      1.0000 0.29690  0.05630  0.96700  Biso   1.000  H
  H91      1.0000 0.70310  0.05630  0.53300  Biso   1.000  H
  H92      1.0000 0.29690  0.94370  0.03300  Biso   1.000  H
  H93      1.0000 0.20310  0.44370  0.46700  Biso   1.000  H
  H94      1.0000 0.79690  0.55630  0.96700  Biso   1.000  H
  H95      1.0000 0.20310  0.55630  0.53300  Biso   1.000  H
  H96      1.0000 0.79690  0.44370  0.03300  Biso   1.000  H
  Cu17     1.0000 0.00000  0.06236  0.75000  Biso   1.000  Cu
  Cu18     1.0000 0.00000  0.93764  0.25000  Biso   1.000  Cu
  Cu19     1.0000 0.50000  0.56236  0.75000  Biso   1.000  Cu
  Cu20     1.0000 0.50000  0.43764  0.25000  Biso   1.000  Cu
  Cu21     1.0000 0.00000  0.14132  0.75000  Biso   1.000  Cu
  Cu22     1.0000 0.00000  0.85868  0.25000  Biso   1.000  Cu
  Cu23     1.0000 0.50000  0.64132  0.75000  Biso   1.000  Cu
  Cu24     1.0000 0.50000  0.35868  0.25000  Biso   1.000  Cu
  H97      1.0000 0.50000  0.22150  0.75000  Biso   1.000  H
  H98      1.0000 0.50000  0.77850  0.25000  Biso   1.000  H
  H99      1.0000 0.00000  0.72150  0.75000  Biso   1.000  H
  H100     1.0000 0.00000  0.27850  0.25000  Biso   1.000  H
  C269     1.0000 0.50000  0.10380  0.66500  Biso   1.000  C
  C270     1.0000 0.50000  0.89620  0.16500  Biso   1.000  C
  C271     1.0000 0.50000  0.89620  0.33500  Biso   1.000  C
  C272     1.0000 0.50000  0.10380  0.83500  Biso   1.000  C
  C273     1.0000 0.00000  0.60380  0.66500  Biso   1.000  C
  C274     1.0000 0.00000  0.39620  0.16500  Biso   1.000  C
  C275     1.0000 0.00000  0.39620  0.33500  Biso   1.000  C
  C276     1.0000 0.00000  0.60380  0.83500  Biso   1.000  C
  H101     1.0000 0.41580  0.13120  0.68400  Biso   1.000  H
  H102     1.0000 0.58420  0.86880  0.18400  Biso   1.000  H
  H103     1.0000 0.41580  0.86880  0.31600  Biso   1.000  H
  H104     1.0000 0.58420  0.13120  0.81600  Biso   1.000  H
  H105     1.0000 0.91580  0.63120  0.68400  Biso   1.000  H
  H106     1.0000 0.08420  0.36880  0.18400  Biso   1.000  H
  H107     1.0000 0.91580  0.36880  0.31600  Biso   1.000  H
  H108     1.0000 0.08420  0.63120  0.81600  Biso   1.000  H
  H109     1.0000 0.58420  0.86880  0.31600  Biso   1.000  H
  H110     1.0000 0.41580  0.13120  0.81600  Biso   1.000  H
  H111     1.0000 0.58420  0.13120  0.68400  Biso   1.000  H
  H112     1.0000 0.41580  0.86880  0.18400  Biso   1.000  H
  H113     1.0000 0.08420  0.36880  0.31600  Biso   1.000  H
  H114     1.0000 0.91580  0.63120  0.81600  Biso   1.000  H
  H115     1.0000 0.08420  0.63120  0.68400  Biso   1.000  H
  H116     1.0000 0.91580  0.36880  0.18400  Biso   1.000  H
  N1       1.0000 0.36260  0.00000  0.50000  Biso   1.000  N
  N2       1.0000 0.63740  0.00000  0.00000  Biso   1.000  N
  N3       1.0000 0.86260  0.50000  0.50000  Biso   1.000  N
  N4       1.0000 0.13740  0.50000  0.00000  Biso   1.000  N
  N5       1.0000 0.63740  0.00000  0.50000  Biso   1.000  N
  N6       1.0000 0.36260  0.00000  0.00000  Biso   1.000  N
  N7       1.0000 0.13740  0.50000  0.50000  Biso   1.000  N
  N8       1.0000 0.86260  0.50000  0.00000  Biso   1.000  N
  O113     1.0000 0.00000  0.99840  0.75000  Biso   1.000  O
  O114     1.0000 0.00000  0.00160  0.25000  Biso   1.000  O
  O115     1.0000 0.50000  0.49840  0.75000  Biso   1.000  O
  O116     1.0000 0.50000  0.50160  0.25000  Biso   1.000  O
  O117     1.0000 0.00000  0.20640  0.75000  Biso   1.000  O
  O118     1.0000 0.00000  0.79360  0.25000  Biso   1.000  O
  O119     1.0000 0.50000  0.70640  0.75000  Biso   1.000  O
  O120     1.0000 0.50000  0.29360  0.25000  Biso   1.000  O
  N9       1.0000 0.50000  0.06710  0.61700  Biso   1.000  N
  N10      1.0000 0.50000  0.93290  0.11700  Biso   1.000  N
  N11      1.0000 0.50000  0.93290  0.38300  Biso   1.000  N
  N12      1.0000 0.50000  0.06710  0.88300  Biso   1.000  N
  N13      1.0000 0.00000  0.56710  0.61700  Biso   1.000  N
  N14      1.0000 0.00000  0.43290  0.11700  Biso   1.000  N
  N15      1.0000 0.00000  0.43290  0.38300  Biso   1.000  N
  N16      1.0000 0.00000  0.56710  0.88300  Biso   1.000  N
