data_image0
_cell_length_a       7.621
_cell_length_b       10.4049
_cell_length_c       13.155
_cell_angle_alpha    68.003
_cell_angle_beta     85.642
_cell_angle_gamma    78.651

_symmetry_space_group_name_H-M    "P 1"
_symmetry_int_tables_number       1

loop_
  _symmetry_equiv_pos_as_xyz
  'x, y, z'

loop_
  _atom_site_label
  _atom_site_occupancy
  _atom_site_fract_x
  _atom_site_fract_y
  _atom_site_fract_z
  _atom_site_thermal_displace_type
  _atom_site_B_iso_or_equiv
  _atom_site_type_symbol
  Cu1      1.0000 0.76994  0.77409  0.72318  Biso   1.000  Cu
  Cu2      1.0000 0.23006  0.22591  0.27682  Biso   1.000  Cu
  S1       1.0000 0.58731  0.58494  0.13375  Biso   1.000  S
  S2       1.0000 0.41269  0.41506  0.86625  Biso   1.000  S
  N1       1.0000 0.68780  0.69287  0.62238  Biso   1.000  N
  N2       1.0000 0.31220  0.30713  0.37762  Biso   1.000  N
  N3       1.0000 0.84780  0.84690  0.83112  Biso   1.000  N
  N4       1.0000 0.15220  0.15310  0.16888  Biso   1.000  N
  O1       1.0000 0.74440  0.96274  0.60200  Biso   1.000  O
  O2       1.0000 0.25560  0.03726  0.39800  Biso   1.000  O
  O3       1.0000 0.45960  0.82690  0.78229  Biso   1.000  O
  O4       1.0000 0.54040  0.17310  0.21771  Biso   1.000  O
  O5       1.0000 0.78900  0.58623  0.84677  Biso   1.000  O
  O6       1.0000 0.21100  0.41377  0.15323  Biso   1.000  O
  O7       1.0000 0.06810  0.73480  0.65960  Biso   1.000  O
  O8       1.0000 0.93190  0.26520  0.34040  Biso   1.000  O
  O9       1.0000 0.08130  0.86271  0.37104  Biso   1.000  O
  O10      1.0000 0.91870  0.13729  0.62896  Biso   1.000  O
  O11      1.0000 0.81420  0.99364  0.38042  Biso   1.000  O
  O12      1.0000 0.18580  0.00636  0.61958  Biso   1.000  O
  O13      1.0000 0.66280  0.43680  0.18504  Biso   1.000  O
  O14      1.0000 0.33720  0.56320  0.81496  Biso   1.000  O
  O15      1.0000 0.63680  0.64520  0.02050  Biso   1.000  O
  O16      1.0000 0.36320  0.35480  0.97950  Biso   1.000  O
  O17      1.0000 0.39530  0.61210  0.15093  Biso   1.000  O
  O18      1.0000 0.60470  0.38790  0.84907  Biso   1.000  O
  C1       1.0000 0.52230  0.73700  0.58109  Biso   1.000  C
  C2       1.0000 0.47770  0.26300  0.41891  Biso   1.000  C
  H1       1.0000 0.45590  0.82000  0.58530  Biso   1.000  H
  H2       1.0000 0.54410  0.18000  0.41470  Biso   1.000  H
  C3       1.0000 0.44550  0.66520  0.53262  Biso   1.000  C
  C4       1.0000 0.55450  0.33480  0.46738  Biso   1.000  C
  H3       1.0000 0.32940  0.69970  0.50560  Biso   1.000  H
  H4       1.0000 0.67060  0.30030  0.49440  Biso   1.000  H
  C5       1.0000 0.54030  0.54160  0.52382  Biso   1.000  C
  C6       1.0000 0.45970  0.45840  0.47618  Biso   1.000  C
  C7       1.0000 0.71620  0.49990  0.56200  Biso   1.000  C
  C8       1.0000 0.28380  0.50010  0.43800  Biso   1.000  C
  H5       1.0000 0.78760  0.41990  0.55540  Biso   1.000  H
  H6       1.0000 0.21240  0.58010  0.44460  Biso   1.000  H
  C9       1.0000 0.78360  0.57740  0.60930  Biso   1.000  C
  C10      1.0000 0.21640  0.42260  0.39070  Biso   1.000  C
  H7       1.0000 0.90160  0.54820  0.63350  Biso   1.000  H
  H8       1.0000 0.09840  0.45180  0.36650  Biso   1.000  H
  C11      1.0000 0.74290  0.94930  0.85670  Biso   1.000  C
  C12      1.0000 0.25710  0.05070  0.14330  Biso   1.000  C
  H9       1.0000 0.62730  0.98070  0.82860  Biso   1.000  H
  H10      1.0000 0.37270  0.01930  0.17140  Biso   1.000  H
  C13      1.0000 0.79600  0.01060  0.92220  Biso   1.000  C
  C14      1.0000 0.20400  0.98940  0.07780  Biso   1.000  C
  H11      1.0000 0.71730  0.08210  0.93690  Biso   1.000  H
  H12      1.0000 0.28270  0.91790  0.06310  Biso   1.000  H
  C15      1.0000 0.96770  0.96620  0.96678  Biso   1.000  C
  C16      1.0000 0.03230  0.03380  0.03322  Biso   1.000  C
  C17      1.0000 0.07300  0.85450  0.94410  Biso   1.000  C
  C18      1.0000 0.92700  0.14550  0.05590  Biso   1.000  C
  H13      1.0000 0.18690  0.81750  0.97420  Biso   1.000  H
  H14      1.0000 0.81310  0.18250  0.02580  Biso   1.000  H
  C19      1.0000 0.00980  0.79850  0.87770  Biso   1.000  C
  C20      1.0000 0.99020  0.20150  0.12230  Biso   1.000  C
  H15      1.0000 0.08290  0.72360  0.86450  Biso   1.000  H
  H16      1.0000 0.91710  0.27640  0.13550  Biso   1.000  H
  C21      1.0000 0.91610  0.89720  0.35564  Biso   1.000  C
  C22      1.0000 0.08390  0.10280  0.64436  Biso   1.000  C
  C23      1.0000 0.83210  0.81850  0.30192  Biso   1.000  C
  C24      1.0000 0.16790  0.18150  0.69808  Biso   1.000  C
  C25      1.0000 0.64820  0.82500  0.30432  Biso   1.000  C
  C26      1.0000 0.35180  0.17500  0.69568  Biso   1.000  C
  H17      1.0000 0.57520  0.87900  0.33910  Biso   1.000  H
  H18      1.0000 0.42480  0.12100  0.66090  Biso   1.000  H
  C27      1.0000 0.57240  0.75210  0.25545  Biso   1.000  C
  C28      1.0000 0.42760  0.24790  0.74455  Biso   1.000  C
  H19      1.0000 0.44930  0.75530  0.25880  Biso   1.000  H
  H20      1.0000 0.55070  0.24470  0.74120  Biso   1.000  H
  C29      1.0000 0.68050  0.67430  0.20165  Biso   1.000  C
  C30      1.0000 0.31950  0.32570  0.79835  Biso   1.000  C
  C31      1.0000 0.86530  0.66750  0.19750  Biso   1.000  C
  C32      1.0000 0.13470  0.33250  0.80250  Biso   1.000  C
  H21      1.0000 0.93770  0.61580  0.16080  Biso   1.000  H
  H22      1.0000 0.06230  0.38420  0.83920  Biso   1.000  H
  C33      1.0000 0.93930  0.73820  0.24840  Biso   1.000  C
  C34      1.0000 0.06070  0.26180  0.75160  Biso   1.000  C
  H23      1.0000 0.06280  0.73240  0.24700  Biso   1.000  H
  H24      1.0000 0.93720  0.26760  0.75300  Biso   1.000  H
  H25      1.0000 0.80400  0.01700  0.61200  Biso   1.000  H
  H26      1.0000 0.19600  0.98300  0.38800  Biso   1.000  H
  H27      1.0000 0.76600  0.96300  0.53840  Biso   1.000  H
  H28      1.0000 0.23400  0.03700  0.46160  Biso   1.000  H
  H29      1.0000 0.38000  0.88100  0.73700  Biso   1.000  H
  H30      1.0000 0.62000  0.11900  0.26300  Biso   1.000  H
  H31      1.0000 0.42700  0.74780  0.80800  Biso   1.000  H
  H32      1.0000 0.57300  0.25220  0.19200  Biso   1.000  H
  H33      1.0000 0.73700  0.52400  0.84400  Biso   1.000  H
  H34      1.0000 0.26300  0.47600  0.15600  Biso   1.000  H
  H35      1.0000 0.75500  0.59800  0.90560  Biso   1.000  H
  H36      1.0000 0.24500  0.40200  0.09440  Biso   1.000  H
  H37      1.0000 0.14300  0.67900  0.70750  Biso   1.000  H
  H38      1.0000 0.85700  0.32100  0.29250  Biso   1.000  H
  H39      1.0000 0.10100  0.81360  0.63700  Biso   1.000  H
  H40      1.0000 0.89900  0.18640  0.36300  Biso   1.000  H
