data_image0
_cell_length_a       26.547
_cell_length_b       9.141
_cell_length_c       21.0208
_cell_angle_alpha    90
_cell_angle_beta     127.87
_cell_angle_gamma    90

_symmetry_space_group_name_H-M    "P 1"
_symmetry_int_tables_number       1

loop_
  _symmetry_equiv_pos_as_xyz
  'x, y, z'

loop_
  _atom_site_label
  _atom_site_occupancy
  _atom_site_fract_x
  _atom_site_fract_y
  _atom_site_fract_z
  _atom_site_thermal_displace_type
  _atom_site_B_iso_or_equiv
  _atom_site_type_symbol
  Cu1      1.0000 0.19881  0.86392  0.67117  Biso   1.000  Cu
  Cu2      1.0000 0.69881  0.36392  0.67117  Biso   1.000  Cu
  Cu3      1.0000 0.80120  0.86392  0.82883  Biso   1.000  Cu
  Cu4      1.0000 0.30120  0.36392  0.82883  Biso   1.000  Cu
  Cu5      1.0000 0.80120  0.13608  0.32883  Biso   1.000  Cu
  Cu6      1.0000 0.30120  0.63608  0.32883  Biso   1.000  Cu
  Cu7      1.0000 0.19881  0.13608  0.17117  Biso   1.000  Cu
  Cu8      1.0000 0.69881  0.63608  0.17117  Biso   1.000  Cu
  O1       1.0000 0.23707  0.62402  0.69796  Biso   1.000  O
  O2       1.0000 0.73707  0.12402  0.69796  Biso   1.000  O
  O3       1.0000 0.76293  0.62402  0.80204  Biso   1.000  O
  O4       1.0000 0.26293  0.12402  0.80204  Biso   1.000  O
  O5       1.0000 0.76293  0.37598  0.30204  Biso   1.000  O
  O6       1.0000 0.26293  0.87598  0.30204  Biso   1.000  O
  O7       1.0000 0.23707  0.37598  0.19796  Biso   1.000  O
  O8       1.0000 0.73707  0.87598  0.19796  Biso   1.000  O
  O9       1.0000 0.21575  0.41561  0.73317  Biso   1.000  O
  O10      1.0000 0.71575  0.91561  0.73317  Biso   1.000  O
  O11      1.0000 0.78425  0.41561  0.76683  Biso   1.000  O
  O12      1.0000 0.28425  0.91561  0.76683  Biso   1.000  O
  O13      1.0000 0.78425  0.58439  0.26683  Biso   1.000  O
  O14      1.0000 0.28425  0.08439  0.26683  Biso   1.000  O
  O15      1.0000 0.21575  0.58439  0.23317  Biso   1.000  O
  O16      1.0000 0.71575  0.08439  0.23317  Biso   1.000  O
  C1       1.0000 0.19972  0.52690  0.68730  Biso   1.000  C
  C2       1.0000 0.69972  0.02690  0.68730  Biso   1.000  C
  C3       1.0000 0.80028  0.52690  0.81270  Biso   1.000  C
  C4       1.0000 0.30028  0.02690  0.81270  Biso   1.000  C
  C5       1.0000 0.80028  0.47310  0.31270  Biso   1.000  C
  C6       1.0000 0.30028  0.97310  0.31270  Biso   1.000  C
  C7       1.0000 0.19972  0.47310  0.18730  Biso   1.000  C
  C8       1.0000 0.69972  0.97310  0.18730  Biso   1.000  C
  C9       1.0000 0.12925  0.53420  0.61640  Biso   1.000  C
  C10      1.0000 0.62925  0.03420  0.61640  Biso   1.000  C
  C11      1.0000 0.87075  0.53420  0.88360  Biso   1.000  C
  C12      1.0000 0.37075  0.03420  0.88360  Biso   1.000  C
  C13      1.0000 0.87075  0.46580  0.38360  Biso   1.000  C
  C14      1.0000 0.37075  0.96580  0.38360  Biso   1.000  C
  C15      1.0000 0.12925  0.46580  0.11640  Biso   1.000  C
  C16      1.0000 0.62925  0.96580  0.11640  Biso   1.000  C
  H1       1.0000 0.10540  0.56130  0.63680  Biso   1.000  H
  H2       1.0000 0.60540  0.06130  0.63680  Biso   1.000  H
  H3       1.0000 0.89460  0.56130  0.86320  Biso   1.000  H
  H4       1.0000 0.39460  0.06130  0.86320  Biso   1.000  H
  H5       1.0000 0.89460  0.43870  0.36320  Biso   1.000  H
  H6       1.0000 0.39460  0.93870  0.36320  Biso   1.000  H
  H7       1.0000 0.10540  0.43870  0.13680  Biso   1.000  H
  H8       1.0000 0.60540  0.93870  0.13680  Biso   1.000  H
  H9       1.0000 0.11490  0.43540  0.59240  Biso   1.000  H
  H10      1.0000 0.61490  0.93540  0.59240  Biso   1.000  H
  H11      1.0000 0.88510  0.43540  0.90760  Biso   1.000  H
  H12      1.0000 0.38510  0.93540  0.90760  Biso   1.000  H
  H13      1.0000 0.88510  0.56460  0.40760  Biso   1.000  H
  H14      1.0000 0.38510  0.06460  0.40760  Biso   1.000  H
  H15      1.0000 0.11490  0.56460  0.09240  Biso   1.000  H
  H16      1.0000 0.61490  0.06460  0.09240  Biso   1.000  H
  C17      1.0000 0.11168  0.64170  0.55016  Biso   1.000  C
  C18      1.0000 0.61168  0.14170  0.55016  Biso   1.000  C
  C19      1.0000 0.88832  0.64170  0.94984  Biso   1.000  C
  C20      1.0000 0.38832  0.14170  0.94984  Biso   1.000  C
  C21      1.0000 0.88832  0.35830  0.44984  Biso   1.000  C
  C22      1.0000 0.38832  0.85830  0.44984  Biso   1.000  C
  C23      1.0000 0.11168  0.35830  0.05016  Biso   1.000  C
  C24      1.0000 0.61168  0.85830  0.05016  Biso   1.000  C
  H17      1.0000 0.14180  0.62780  0.53770  Biso   1.000  H
  H18      1.0000 0.64180  0.12780  0.53770  Biso   1.000  H
  H19      1.0000 0.85820  0.62780  0.96230  Biso   1.000  H
  H20      1.0000 0.35820  0.12780  0.96230  Biso   1.000  H
  H21      1.0000 0.85820  0.37220  0.46230  Biso   1.000  H
  H22      1.0000 0.35820  0.87220  0.46230  Biso   1.000  H
  H23      1.0000 0.14180  0.37220  0.03770  Biso   1.000  H
  H24      1.0000 0.64180  0.87220  0.03770  Biso   1.000  H
  H25      1.0000 0.06850  0.61690  0.50100  Biso   1.000  H
  H26      1.0000 0.56850  0.11690  0.50100  Biso   1.000  H
  H27      1.0000 0.93150  0.61690  0.99900  Biso   1.000  H
  H28      1.0000 0.43150  0.11690  0.99900  Biso   1.000  H
  H29      1.0000 0.93150  0.38310  0.49900  Biso   1.000  H
  H30      1.0000 0.43150  0.88310  0.49900  Biso   1.000  H
  H31      1.0000 0.06850  0.38310  0.00100  Biso   1.000  H
  H32      1.0000 0.56850  0.88310  0.00100  Biso   1.000  H
  N1       1.0000 0.11232  0.80039  0.56917  Biso   1.000  N
  N2       1.0000 0.61232  0.30039  0.56917  Biso   1.000  N
  N3       1.0000 0.88768  0.80039  0.93083  Biso   1.000  N
  N4       1.0000 0.38768  0.30039  0.93083  Biso   1.000  N
  N5       1.0000 0.88768  0.19961  0.43083  Biso   1.000  N
  N6       1.0000 0.38768  0.69961  0.43083  Biso   1.000  N
  N7       1.0000 0.11232  0.19961  0.06917  Biso   1.000  N
  N8       1.0000 0.61232  0.69961  0.06917  Biso   1.000  N
  C25      1.0000 0.06408  0.83270  0.58162  Biso   1.000  C
  C26      1.0000 0.56408  0.33270  0.58162  Biso   1.000  C
  C27      1.0000 0.93592  0.83270  0.91838  Biso   1.000  C
  C28      1.0000 0.43592  0.33270  0.91838  Biso   1.000  C
  C29      1.0000 0.93592  0.16730  0.41838  Biso   1.000  C
  C30      1.0000 0.43592  0.66730  0.41838  Biso   1.000  C
  C31      1.0000 0.06408  0.16730  0.08162  Biso   1.000  C
  C32      1.0000 0.56408  0.66730  0.08162  Biso   1.000  C
  H33      1.0000 0.02700  0.76660  0.54780  Biso   1.000  H
  H34      1.0000 0.52700  0.26660  0.54780  Biso   1.000  H
  H35      1.0000 0.97300  0.76660  0.95220  Biso   1.000  H
  H36      1.0000 0.47300  0.26660  0.95220  Biso   1.000  H
  H37      1.0000 0.97300  0.23340  0.45220  Biso   1.000  H
  H38      1.0000 0.47300  0.73340  0.45220  Biso   1.000  H
  H39      1.0000 0.02700  0.23340  0.04780  Biso   1.000  H
  H40      1.0000 0.52700  0.73340  0.04780  Biso   1.000  H
  H41      1.0000 0.04890  0.93470  0.56520  Biso   1.000  H
  H42      1.0000 0.54890  0.43470  0.56520  Biso   1.000  H
  H43      1.0000 0.95110  0.93470  0.93480  Biso   1.000  H
  H44      1.0000 0.45110  0.43470  0.93480  Biso   1.000  H
  H45      1.0000 0.95110  0.06530  0.43480  Biso   1.000  H
  H46      1.0000 0.45110  0.56530  0.43480  Biso   1.000  H
  H47      1.0000 0.04890  0.06530  0.06520  Biso   1.000  H
  H48      1.0000 0.54890  0.56530  0.06520  Biso   1.000  H
  C33      1.0000 0.09295  0.81190  0.66924  Biso   1.000  C
  C34      1.0000 0.59295  0.31190  0.66924  Biso   1.000  C
  C35      1.0000 0.90705  0.81190  0.83076  Biso   1.000  C
  C36      1.0000 0.40705  0.31190  0.83076  Biso   1.000  C
  C37      1.0000 0.90705  0.18810  0.33076  Biso   1.000  C
  C38      1.0000 0.40705  0.68810  0.33076  Biso   1.000  C
  C39      1.0000 0.09295  0.18810  0.16924  Biso   1.000  C
  C40      1.0000 0.59295  0.68810  0.16924  Biso   1.000  C
  N9       1.0000 0.15676  0.82947  0.72229  Biso   1.000  N
  N10      1.0000 0.65676  0.32947  0.72229  Biso   1.000  N
  N11      1.0000 0.84324  0.82947  0.77771  Biso   1.000  N
  N12      1.0000 0.34324  0.32947  0.77771  Biso   1.000  N
  N13      1.0000 0.84324  0.17053  0.27771  Biso   1.000  N
  N14      1.0000 0.34324  0.67053  0.27771  Biso   1.000  N
  N15      1.0000 0.15676  0.17053  0.22229  Biso   1.000  N
  N16      1.0000 0.65676  0.67053  0.22229  Biso   1.000  N
  C41      1.0000 0.18619  0.81060  0.80174  Biso   1.000  C
  C42      1.0000 0.68619  0.31060  0.80174  Biso   1.000  C
  C43      1.0000 0.81381  0.81060  0.69826  Biso   1.000  C
  C44      1.0000 0.31381  0.31060  0.69826  Biso   1.000  C
  C45      1.0000 0.81381  0.18940  0.19826  Biso   1.000  C
  C46      1.0000 0.31381  0.68940  0.19826  Biso   1.000  C
  C47      1.0000 0.18619  0.18940  0.30174  Biso   1.000  C
  C48      1.0000 0.68619  0.68940  0.30174  Biso   1.000  C
  H49      1.0000 0.23120  0.82240  0.83910  Biso   1.000  H
  H50      1.0000 0.73120  0.32240  0.83910  Biso   1.000  H
  H51      1.0000 0.76880  0.82240  0.66090  Biso   1.000  H
  H52      1.0000 0.26880  0.32240  0.66090  Biso   1.000  H
  H53      1.0000 0.76880  0.17760  0.16090  Biso   1.000  H
  H54      1.0000 0.26880  0.67760  0.16090  Biso   1.000  H
  H55      1.0000 0.23120  0.17760  0.33910  Biso   1.000  H
  H56      1.0000 0.73120  0.67760  0.33910  Biso   1.000  H
  C49      1.0000 0.15277  0.77460  0.83018  Biso   1.000  C
  C50      1.0000 0.65277  0.27460  0.83018  Biso   1.000  C
  C51      1.0000 0.84723  0.77460  0.66982  Biso   1.000  C
  C52      1.0000 0.34723  0.27460  0.66982  Biso   1.000  C
  C53      1.0000 0.84723  0.22540  0.16982  Biso   1.000  C
  C54      1.0000 0.34723  0.72540  0.16982  Biso   1.000  C
  C55      1.0000 0.15277  0.22540  0.33018  Biso   1.000  C
  C56      1.0000 0.65277  0.72540  0.33018  Biso   1.000  C
  H57      1.0000 0.17440  0.76180  0.88630  Biso   1.000  H
  H58      1.0000 0.67440  0.26180  0.88630  Biso   1.000  H
  H59      1.0000 0.82560  0.76180  0.61370  Biso   1.000  H
  H60      1.0000 0.32560  0.26180  0.61370  Biso   1.000  H
  H61      1.0000 0.82560  0.23820  0.11370  Biso   1.000  H
  H62      1.0000 0.32560  0.73820  0.11370  Biso   1.000  H
  H63      1.0000 0.17440  0.23820  0.38630  Biso   1.000  H
  H64      1.0000 0.67440  0.73820  0.38630  Biso   1.000  H
  C57      1.0000 0.08694  0.75750  0.77555  Biso   1.000  C
  C58      1.0000 0.58694  0.25750  0.77555  Biso   1.000  C
  C59      1.0000 0.91306  0.75750  0.72445  Biso   1.000  C
  C60      1.0000 0.41306  0.25750  0.72445  Biso   1.000  C
  C61      1.0000 0.91306  0.24250  0.22445  Biso   1.000  C
  C62      1.0000 0.41306  0.74250  0.22445  Biso   1.000  C
  C63      1.0000 0.08694  0.24250  0.27555  Biso   1.000  C
  C64      1.0000 0.58694  0.74250  0.27555  Biso   1.000  C
  H65      1.0000 0.06300  0.73300  0.79390  Biso   1.000  H
  H66      1.0000 0.56300  0.23300  0.79390  Biso   1.000  H
  H67      1.0000 0.93700  0.73300  0.70610  Biso   1.000  H
  H68      1.0000 0.43700  0.23300  0.70610  Biso   1.000  H
  H69      1.0000 0.93700  0.26700  0.20610  Biso   1.000  H
  H70      1.0000 0.43700  0.76700  0.20610  Biso   1.000  H
  H71      1.0000 0.06300  0.26700  0.29390  Biso   1.000  H
  H72      1.0000 0.56300  0.76700  0.29390  Biso   1.000  H
  C65      1.0000 0.05654  0.77670  0.69384  Biso   1.000  C
  C66      1.0000 0.55654  0.27670  0.69384  Biso   1.000  C
  C67      1.0000 0.94346  0.77670  0.80616  Biso   1.000  C
  C68      1.0000 0.44346  0.27670  0.80616  Biso   1.000  C
  C69      1.0000 0.94346  0.22330  0.30616  Biso   1.000  C
  C70      1.0000 0.44346  0.72330  0.30616  Biso   1.000  C
  C71      1.0000 0.05654  0.22330  0.19384  Biso   1.000  C
  C72      1.0000 0.55654  0.72330  0.19384  Biso   1.000  C
  H73      1.0000 0.01160  0.76590  0.65550  Biso   1.000  H
  H74      1.0000 0.51160  0.26590  0.65550  Biso   1.000  H
  H75      1.0000 0.98840  0.76590  0.84450  Biso   1.000  H
  H76      1.0000 0.48840  0.26590  0.84450  Biso   1.000  H
  H77      1.0000 0.98840  0.23410  0.34450  Biso   1.000  H
  H78      1.0000 0.48840  0.73410  0.34450  Biso   1.000  H
  H79      1.0000 0.01160  0.23410  0.15550  Biso   1.000  H
  H80      1.0000 0.51160  0.73410  0.15550  Biso   1.000  H
  C73      1.0000 0.10227  0.88840  0.50264  Biso   1.000  C
  C74      1.0000 0.60227  0.38840  0.50264  Biso   1.000  C
  C75      1.0000 0.89773  0.88840  0.99736  Biso   1.000  C
  C76      1.0000 0.39773  0.38840  0.99736  Biso   1.000  C
  C77      1.0000 0.89773  0.11160  0.49736  Biso   1.000  C
  C78      1.0000 0.39773  0.61160  0.49736  Biso   1.000  C
  C79      1.0000 0.10227  0.11160  0.00264  Biso   1.000  C
  C80      1.0000 0.60227  0.61160  0.00264  Biso   1.000  C
  H81      1.0000 0.08560  0.98630  0.50100  Biso   1.000  H
  H82      1.0000 0.58560  0.48630  0.50100  Biso   1.000  H
  H83      1.0000 0.91440  0.98630  0.99900  Biso   1.000  H
  H84      1.0000 0.41440  0.48630  0.99900  Biso   1.000  H
  H85      1.0000 0.91440  0.01370  0.49900  Biso   1.000  H
  H86      1.0000 0.41440  0.51370  0.49900  Biso   1.000  H
  H87      1.0000 0.08560  0.01370  0.00100  Biso   1.000  H
  H88      1.0000 0.58560  0.51370  0.00100  Biso   1.000  H
  H89      1.0000 0.07060  0.83950  0.45040  Biso   1.000  H
  H90      1.0000 0.57060  0.33950  0.45040  Biso   1.000  H
  H91      1.0000 0.92940  0.83950  0.04960  Biso   1.000  H
  H92      1.0000 0.42940  0.33950  0.04960  Biso   1.000  H
  H93      1.0000 0.92940  0.16050  0.54960  Biso   1.000  H
  H94      1.0000 0.42940  0.66050  0.54960  Biso   1.000  H
  H95      1.0000 0.07060  0.16050  0.95040  Biso   1.000  H
  H96      1.0000 0.57060  0.66050  0.95040  Biso   1.000  H
  C81      1.0000 0.16468  0.90400  0.51627  Biso   1.000  C
  C82      1.0000 0.66468  0.40400  0.51627  Biso   1.000  C
  C83      1.0000 0.83532  0.90400  0.98373  Biso   1.000  C
  C84      1.0000 0.33532  0.40400  0.98373  Biso   1.000  C
  C85      1.0000 0.83532  0.09600  0.48373  Biso   1.000  C
  C86      1.0000 0.33532  0.59600  0.48373  Biso   1.000  C
  C87      1.0000 0.16468  0.09600  0.01627  Biso   1.000  C
  C88      1.0000 0.66468  0.59600  0.01627  Biso   1.000  C
  N17      1.0000 0.21721  0.90282  0.59413  Biso   1.000  N
  N18      1.0000 0.71721  0.40282  0.59413  Biso   1.000  N
  N19      1.0000 0.78279  0.90282  0.90587  Biso   1.000  N
  N20      1.0000 0.28279  0.40282  0.90587  Biso   1.000  N
  N21      1.0000 0.78279  0.09718  0.40587  Biso   1.000  N
  N22      1.0000 0.28279  0.59718  0.40587  Biso   1.000  N
  N23      1.0000 0.21721  0.09718  0.09413  Biso   1.000  N
  N24      1.0000 0.71721  0.59718  0.09413  Biso   1.000  N
  C89      1.0000 0.27466  0.92230  0.61214  Biso   1.000  C
  C90      1.0000 0.77466  0.42230  0.61214  Biso   1.000  C
  C91      1.0000 0.72534  0.92230  0.88786  Biso   1.000  C
  C92      1.0000 0.22534  0.42230  0.88786  Biso   1.000  C
  C93      1.0000 0.72534  0.07770  0.38786  Biso   1.000  C
  C94      1.0000 0.22534  0.57770  0.38786  Biso   1.000  C
  C95      1.0000 0.27466  0.07770  0.11214  Biso   1.000  C
  C96      1.0000 0.77466  0.57770  0.11214  Biso   1.000  C
  H97      1.0000 0.31140  0.92090  0.66710  Biso   1.000  H
  H98      1.0000 0.81140  0.42090  0.66710  Biso   1.000  H
  H99      1.0000 0.68860  0.92090  0.83290  Biso   1.000  H
  H100     1.0000 0.18860  0.42090  0.83290  Biso   1.000  H
  H101     1.0000 0.68860  0.07910  0.33290  Biso   1.000  H
  H102     1.0000 0.18860  0.57910  0.33290  Biso   1.000  H
  H103     1.0000 0.31140  0.07910  0.16710  Biso   1.000  H
  H104     1.0000 0.81140  0.57910  0.16710  Biso   1.000  H
  C97      1.0000 0.28238  0.94430  0.55347  Biso   1.000  C
  C98      1.0000 0.78238  0.44430  0.55347  Biso   1.000  C
  C99      1.0000 0.71762  0.94430  0.94653  Biso   1.000  C
  C100     1.0000 0.21762  0.44430  0.94653  Biso   1.000  C
  C101     1.0000 0.71762  0.05570  0.44653  Biso   1.000  C
  C102     1.0000 0.21762  0.55570  0.44653  Biso   1.000  C
  C103     1.0000 0.28238  0.05570  0.05347  Biso   1.000  C
  C104     1.0000 0.78238  0.55570  0.05347  Biso   1.000  C
  H105     1.0000 0.32360  0.95860  0.56770  Biso   1.000  H
  H106     1.0000 0.82360  0.45860  0.56770  Biso   1.000  H
  H107     1.0000 0.67640  0.95860  0.93230  Biso   1.000  H
  H108     1.0000 0.17640  0.45860  0.93230  Biso   1.000  H
  H109     1.0000 0.67640  0.04140  0.43230  Biso   1.000  H
  H110     1.0000 0.17640  0.54140  0.43230  Biso   1.000  H
  H111     1.0000 0.32360  0.04140  0.06770  Biso   1.000  H
  H112     1.0000 0.82360  0.54140  0.06770  Biso   1.000  H
  C105     1.0000 0.22875  0.94500  0.47368  Biso   1.000  C
  C106     1.0000 0.72875  0.44500  0.47368  Biso   1.000  C
  C107     1.0000 0.77125  0.94500  0.02632  Biso   1.000  C
  C108     1.0000 0.27125  0.44500  0.02632  Biso   1.000  C
  C109     1.0000 0.77125  0.05500  0.52632  Biso   1.000  C
  C110     1.0000 0.27125  0.55500  0.52632  Biso   1.000  C
  C111     1.0000 0.22875  0.05500  0.97368  Biso   1.000  C
  C112     1.0000 0.72875  0.55500  0.97368  Biso   1.000  C
  H113     1.0000 0.23270  0.95910  0.43210  Biso   1.000  H
  H114     1.0000 0.73270  0.45910  0.43210  Biso   1.000  H
  H115     1.0000 0.76730  0.95910  0.06790  Biso   1.000  H
  H116     1.0000 0.26730  0.45910  0.06790  Biso   1.000  H
  H117     1.0000 0.76730  0.04090  0.56790  Biso   1.000  H
  H118     1.0000 0.26730  0.54090  0.56790  Biso   1.000  H
  H119     1.0000 0.23270  0.04090  0.93210  Biso   1.000  H
  H120     1.0000 0.73270  0.54090  0.93210  Biso   1.000  H
  C113     1.0000 0.16914  0.92480  0.45470  Biso   1.000  C
  C114     1.0000 0.66914  0.42480  0.45470  Biso   1.000  C
  C115     1.0000 0.83086  0.92480  0.04530  Biso   1.000  C
  C116     1.0000 0.33086  0.42480  0.04530  Biso   1.000  C
  C117     1.0000 0.83086  0.07520  0.54530  Biso   1.000  C
  C118     1.0000 0.33086  0.57520  0.54530  Biso   1.000  C
  C119     1.0000 0.16914  0.07520  0.95470  Biso   1.000  C
  C120     1.0000 0.66914  0.57520  0.95470  Biso   1.000  C
  H121     1.0000 0.13180  0.92530  0.40010  Biso   1.000  H
  H122     1.0000 0.63180  0.42530  0.40010  Biso   1.000  H
  H123     1.0000 0.86820  0.92530  0.09990  Biso   1.000  H
  H124     1.0000 0.36820  0.42530  0.09990  Biso   1.000  H
  H125     1.0000 0.86820  0.07470  0.59990  Biso   1.000  H
  H126     1.0000 0.36820  0.57470  0.59990  Biso   1.000  H
  H127     1.0000 0.13180  0.07470  0.90010  Biso   1.000  H
  H128     1.0000 0.63180  0.57470  0.90010  Biso   1.000  H
  N25      1.0000 0.11803  0.32260  0.47698  Biso   1.000  N
  N26      1.0000 0.61803  0.82260  0.47698  Biso   1.000  N
  N27      1.0000 0.88197  0.32260  0.02302  Biso   1.000  N
  N28      1.0000 0.38197  0.82260  0.02302  Biso   1.000  N
  N29      1.0000 0.88197  0.67740  0.52302  Biso   1.000  N
  N30      1.0000 0.38197  0.17740  0.52302  Biso   1.000  N
  N31      1.0000 0.11803  0.67740  0.97698  Biso   1.000  N
  N32      1.0000 0.61803  0.17740  0.97698  Biso   1.000  N
  O17      1.0000 0.08593  0.24061  0.48776  Biso   1.000  O
  O18      1.0000 0.58593  0.74061  0.48776  Biso   1.000  O
  O19      1.0000 0.91407  0.24061  0.01224  Biso   1.000  O
  O20      1.0000 0.41407  0.74061  0.01224  Biso   1.000  O
  O21      1.0000 0.91407  0.75939  0.51224  Biso   1.000  O
  O22      1.0000 0.41407  0.25939  0.51224  Biso   1.000  O
  O23      1.0000 0.08593  0.75939  0.98776  Biso   1.000  O
  O24      1.0000 0.58593  0.25939  0.98776  Biso   1.000  O
  O25      1.0000 0.17644  0.33170  0.53079  Biso   1.000  O
  O26      1.0000 0.67644  0.83170  0.53079  Biso   1.000  O
  O27      1.0000 0.82356  0.33170  0.96921  Biso   1.000  O
  O28      1.0000 0.32356  0.83170  0.96921  Biso   1.000  O
  O29      1.0000 0.82356  0.66830  0.46921  Biso   1.000  O
  O30      1.0000 0.32356  0.16830  0.46921  Biso   1.000  O
  O31      1.0000 0.17644  0.66830  0.03079  Biso   1.000  O
  O32      1.0000 0.67644  0.16830  0.03079  Biso   1.000  O
  O33      1.0000 0.09088  0.39701  0.41461  Biso   1.000  O
  O34      1.0000 0.59088  0.89701  0.41461  Biso   1.000  O
  O35      1.0000 0.90912  0.39701  0.08539  Biso   1.000  O
  O36      1.0000 0.40912  0.89701  0.08539  Biso   1.000  O
  O37      1.0000 0.90912  0.60299  0.58539  Biso   1.000  O
  O38      1.0000 0.40912  0.10299  0.58539  Biso   1.000  O
  O39      1.0000 0.09088  0.60299  0.91461  Biso   1.000  O
  O40      1.0000 0.59088  0.10299  0.91461  Biso   1.000  O
  O41      1.0000 0.15110  0.12133  0.64341  Biso   1.000  O
  O42      1.0000 0.65110  0.62133  0.64341  Biso   1.000  O
  O43      1.0000 0.84890  0.12133  0.85659  Biso   1.000  O
  O44      1.0000 0.34890  0.62133  0.85659  Biso   1.000  O
  O45      1.0000 0.84890  0.87867  0.35659  Biso   1.000  O
  O46      1.0000 0.34890  0.37867  0.35659  Biso   1.000  O
  O47      1.0000 0.15110  0.87867  0.14341  Biso   1.000  O
  O48      1.0000 0.65110  0.37867  0.14341  Biso   1.000  O
  H129     1.0000 0.18260  0.14300  0.68720  Biso   1.000  H
  H130     1.0000 0.68260  0.64300  0.68720  Biso   1.000  H
  H131     1.0000 0.81740  0.14300  0.81280  Biso   1.000  H
  H132     1.0000 0.31740  0.64300  0.81280  Biso   1.000  H
  H133     1.0000 0.81740  0.85700  0.31280  Biso   1.000  H
  H134     1.0000 0.31740  0.35700  0.31280  Biso   1.000  H
  H135     1.0000 0.18260  0.85700  0.18720  Biso   1.000  H
  H136     1.0000 0.68260  0.35700  0.18720  Biso   1.000  H
  H137     1.0000 0.15160  0.16300  0.61040  Biso   1.000  H
  H138     1.0000 0.65160  0.66300  0.61040  Biso   1.000  H
  H139     1.0000 0.84840  0.16300  0.88960  Biso   1.000  H
  H140     1.0000 0.34840  0.66300  0.88960  Biso   1.000  H
  H141     1.0000 0.84840  0.83700  0.38960  Biso   1.000  H
  H142     1.0000 0.34840  0.33700  0.38960  Biso   1.000  H
  H143     1.0000 0.15160  0.83700  0.11040  Biso   1.000  H
  H144     1.0000 0.65160  0.33700  0.11040  Biso   1.000  H
  O49      1.0000 0.04019  0.75910  0.11333  Biso   1.000  O
  O50      1.0000 0.54019  0.25910  0.11333  Biso   1.000  O
  O51      1.0000 0.95981  0.75910  0.38667  Biso   1.000  O
  O52      1.0000 0.45981  0.25910  0.38667  Biso   1.000  O
  O53      1.0000 0.95981  0.24090  0.88667  Biso   1.000  O
  O54      1.0000 0.45981  0.74090  0.88667  Biso   1.000  O
  O55      1.0000 0.04019  0.24090  0.61333  Biso   1.000  O
  O56      1.0000 0.54019  0.74090  0.61333  Biso   1.000  O
  H145     1.0000 0.07450  0.79380  0.12600  Biso   1.000  H
  H146     1.0000 0.57450  0.29380  0.12600  Biso   1.000  H
  H147     1.0000 0.92550  0.79380  0.37400  Biso   1.000  H
  H148     1.0000 0.42550  0.29380  0.37400  Biso   1.000  H
  H149     1.0000 0.92550  0.20620  0.87400  Biso   1.000  H
  H150     1.0000 0.42550  0.70620  0.87400  Biso   1.000  H
  H151     1.0000 0.07450  0.20620  0.62600  Biso   1.000  H
  H152     1.0000 0.57450  0.70620  0.62600  Biso   1.000  H
  C121     1.0000 0.05140  0.69100  0.18090  Biso   1.000  C
  C122     1.0000 0.55140  0.19100  0.18090  Biso   1.000  C
  C123     1.0000 0.94860  0.69100  0.31910  Biso   1.000  C
  C124     1.0000 0.44860  0.19100  0.31910  Biso   1.000  C
  C125     1.0000 0.94860  0.30900  0.81910  Biso   1.000  C
  C126     1.0000 0.44860  0.80900  0.81910  Biso   1.000  C
  C127     1.0000 0.05140  0.30900  0.68090  Biso   1.000  C
  C128     1.0000 0.55140  0.80900  0.68090  Biso   1.000  C
  H153     1.0000 0.08360  0.61310  0.20020  Biso   1.000  H
  H154     1.0000 0.58360  0.11310  0.20020  Biso   1.000  H
  H155     1.0000 0.91640  0.61310  0.29980  Biso   1.000  H
  H156     1.0000 0.41640  0.11310  0.29980  Biso   1.000  H
  H157     1.0000 0.91640  0.38690  0.79980  Biso   1.000  H
  H158     1.0000 0.41640  0.88690  0.79980  Biso   1.000  H
  H159     1.0000 0.08360  0.38690  0.70020  Biso   1.000  H
  H160     1.0000 0.58360  0.88690  0.70020  Biso   1.000  H
  H161     1.0000 0.01140  0.64420  0.16460  Biso   1.000  H
  H162     1.0000 0.51140  0.14420  0.16460  Biso   1.000  H
  H163     1.0000 0.98860  0.64420  0.33540  Biso   1.000  H
  H164     1.0000 0.48860  0.14420  0.33540  Biso   1.000  H
  H165     1.0000 0.98860  0.35580  0.83540  Biso   1.000  H
  H166     1.0000 0.48860  0.85580  0.83540  Biso   1.000  H
  H167     1.0000 0.01140  0.35580  0.66460  Biso   1.000  H
  H168     1.0000 0.51140  0.85580  0.66460  Biso   1.000  H
  C129     1.0000 0.07430  0.79570  0.24900  Biso   1.000  C
  C130     1.0000 0.57430  0.29570  0.24900  Biso   1.000  C
  C131     1.0000 0.92570  0.79570  0.25100  Biso   1.000  C
  C132     1.0000 0.42570  0.29570  0.25100  Biso   1.000  C
  C133     1.0000 0.92570  0.20430  0.75100  Biso   1.000  C
  C134     1.0000 0.42570  0.70430  0.75100  Biso   1.000  C
  C135     1.0000 0.07430  0.20430  0.74900  Biso   1.000  C
  C136     1.0000 0.57430  0.70430  0.74900  Biso   1.000  C
  H169     1.0000 0.08120  0.74250  0.29420  Biso   1.000  H
  H170     1.0000 0.58120  0.24250  0.29420  Biso   1.000  H
  H171     1.0000 0.91880  0.74250  0.20580  Biso   1.000  H
  H172     1.0000 0.41880  0.24250  0.20580  Biso   1.000  H
  H173     1.0000 0.91880  0.25750  0.70580  Biso   1.000  H
  H174     1.0000 0.41880  0.75750  0.70580  Biso   1.000  H
  H175     1.0000 0.08120  0.25750  0.79420  Biso   1.000  H
  H176     1.0000 0.58120  0.75750  0.79420  Biso   1.000  H
  H177     1.0000 0.04210  0.87200  0.23070  Biso   1.000  H
  H178     1.0000 0.54210  0.37200  0.23070  Biso   1.000  H
  H179     1.0000 0.95790  0.87200  0.26930  Biso   1.000  H
  H180     1.0000 0.45790  0.37200  0.26930  Biso   1.000  H
  H181     1.0000 0.95790  0.12800  0.76930  Biso   1.000  H
  H182     1.0000 0.45790  0.62800  0.76930  Biso   1.000  H
  H183     1.0000 0.04210  0.12800  0.73070  Biso   1.000  H
  H184     1.0000 0.54210  0.62800  0.73070  Biso   1.000  H
  H185     1.0000 0.11440  0.84070  0.26630  Biso   1.000  H
  H186     1.0000 0.61440  0.34070  0.26630  Biso   1.000  H
  H187     1.0000 0.88560  0.84070  0.23370  Biso   1.000  H
  H188     1.0000 0.38560  0.34070  0.23370  Biso   1.000  H
  H189     1.0000 0.88560  0.15930  0.73370  Biso   1.000  H
  H190     1.0000 0.38560  0.65930  0.73370  Biso   1.000  H
  H191     1.0000 0.11440  0.15930  0.76630  Biso   1.000  H
  H192     1.0000 0.61440  0.65930  0.76630  Biso   1.000  H
  O57      1.0000 0.04430  0.80920  0.13030  Biso   1.000  O
  O58      1.0000 0.54430  0.30920  0.13030  Biso   1.000  O
  O59      1.0000 0.95570  0.80920  0.36970  Biso   1.000  O
  O60      1.0000 0.45570  0.30920  0.36970  Biso   1.000  O
  O61      1.0000 0.95570  0.19080  0.86970  Biso   1.000  O
  O62      1.0000 0.45570  0.69080  0.86970  Biso   1.000  O
  O63      1.0000 0.04430  0.19080  0.63030  Biso   1.000  O
  O64      1.0000 0.54430  0.69080  0.63030  Biso   1.000  O
  H193     1.0000 0.07500  0.83990  0.13220  Biso   1.000  H
  H194     1.0000 0.57500  0.33990  0.13220  Biso   1.000  H
  H195     1.0000 0.92500  0.83990  0.36780  Biso   1.000  H
  H196     1.0000 0.42500  0.33990  0.36780  Biso   1.000  H
  H197     1.0000 0.92500  0.16010  0.86780  Biso   1.000  H
  H198     1.0000 0.42500  0.66010  0.86780  Biso   1.000  H
  H199     1.0000 0.07500  0.16010  0.63220  Biso   1.000  H
  H200     1.0000 0.57500  0.66010  0.63220  Biso   1.000  H
  C137     1.0000 0.06370  0.79470  0.20910  Biso   1.000  C
  C138     1.0000 0.56370  0.29470  0.20910  Biso   1.000  C
  C139     1.0000 0.93630  0.79470  0.29090  Biso   1.000  C
  C140     1.0000 0.43630  0.29470  0.29090  Biso   1.000  C
  C141     1.0000 0.93630  0.20530  0.79090  Biso   1.000  C
  C142     1.0000 0.43630  0.70530  0.79090  Biso   1.000  C
  C143     1.0000 0.06370  0.20530  0.70910  Biso   1.000  C
  C144     1.0000 0.56370  0.70530  0.70910  Biso   1.000  C
  H201     1.0000 0.04110  0.86820  0.21780  Biso   1.000  H
  H202     1.0000 0.54110  0.36820  0.21780  Biso   1.000  H
  H203     1.0000 0.95890  0.86820  0.28220  Biso   1.000  H
  H204     1.0000 0.45890  0.36820  0.28220  Biso   1.000  H
  H205     1.0000 0.95890  0.13180  0.78220  Biso   1.000  H
  H206     1.0000 0.45890  0.63180  0.78220  Biso   1.000  H
  H207     1.0000 0.04110  0.13180  0.71780  Biso   1.000  H
  H208     1.0000 0.54110  0.63180  0.71780  Biso   1.000  H
  H209     1.0000 0.11000  0.81460  0.24820  Biso   1.000  H
  H210     1.0000 0.61000  0.31460  0.24820  Biso   1.000  H
  H211     1.0000 0.89000  0.81460  0.25180  Biso   1.000  H
  H212     1.0000 0.39000  0.31460  0.25180  Biso   1.000  H
  H213     1.0000 0.89000  0.18540  0.75180  Biso   1.000  H
  H214     1.0000 0.39000  0.68540  0.75180  Biso   1.000  H
  H215     1.0000 0.11000  0.18540  0.74820  Biso   1.000  H
  H216     1.0000 0.61000  0.68540  0.74820  Biso   1.000  H
  C145     1.0000 0.05000  0.64350  0.22430  Biso   1.000  C
  C146     1.0000 0.55000  0.14350  0.22430  Biso   1.000  C
  C147     1.0000 0.95000  0.64350  0.27570  Biso   1.000  C
  C148     1.0000 0.45000  0.14350  0.27570  Biso   1.000  C
  C149     1.0000 0.95000  0.35650  0.77570  Biso   1.000  C
  C150     1.0000 0.45000  0.85650  0.77570  Biso   1.000  C
  C151     1.0000 0.05000  0.35650  0.72430  Biso   1.000  C
  C152     1.0000 0.55000  0.85650  0.72430  Biso   1.000  C
  H217     1.0000 0.06410  0.63770  0.27960  Biso   1.000  H
  H218     1.0000 0.56410  0.13770  0.27960  Biso   1.000  H
  H219     1.0000 0.93590  0.63770  0.22040  Biso   1.000  H
  H220     1.0000 0.43590  0.13770  0.22040  Biso   1.000  H
  H221     1.0000 0.93590  0.36230  0.72040  Biso   1.000  H
  H222     1.0000 0.43590  0.86230  0.72040  Biso   1.000  H
  H223     1.0000 0.06410  0.36230  0.77960  Biso   1.000  H
  H224     1.0000 0.56410  0.86230  0.77960  Biso   1.000  H
  H225     1.0000 0.07290  0.57060  0.21670  Biso   1.000  H
  H226     1.0000 0.57290  0.07060  0.21670  Biso   1.000  H
  H227     1.0000 0.92710  0.57060  0.28330  Biso   1.000  H
  H228     1.0000 0.42710  0.07060  0.28330  Biso   1.000  H
  H229     1.0000 0.92710  0.42940  0.78330  Biso   1.000  H
  H230     1.0000 0.42710  0.92940  0.78330  Biso   1.000  H
  H231     1.0000 0.07290  0.42940  0.71670  Biso   1.000  H
  H232     1.0000 0.57290  0.92940  0.71670  Biso   1.000  H
  H233     1.0000 0.00400  0.62420  0.18630  Biso   1.000  H
  H234     1.0000 0.50400  0.12420  0.18630  Biso   1.000  H
  H235     1.0000 0.99600  0.62420  0.31370  Biso   1.000  H
  H236     1.0000 0.49600  0.12420  0.31370  Biso   1.000  H
  H237     1.0000 0.99600  0.37580  0.81370  Biso   1.000  H
  H238     1.0000 0.49600  0.87580  0.81370  Biso   1.000  H
  H239     1.0000 0.00400  0.37580  0.68630  Biso   1.000  H
  H240     1.0000 0.50400  0.87580  0.68630  Biso   1.000  H
