data_image0
_cell_length_a       6.42
_cell_length_b       8.6707
_cell_length_c       12.9072
_cell_angle_alpha    85.11
_cell_angle_beta     88.215
_cell_angle_gamma    83.692

_symmetry_space_group_name_H-M    "P 1"
_symmetry_int_tables_number       1

loop_
  _symmetry_equiv_pos_as_xyz
  'x, y, z'

loop_
  _atom_site_label
  _atom_site_occupancy
  _atom_site_fract_x
  _atom_site_fract_y
  _atom_site_fract_z
  _atom_site_thermal_displace_type
  _atom_site_B_iso_or_equiv
  _atom_site_type_symbol
  O1       1.0000 0.31250  0.82460  0.40760  Biso   1.000  O
  O2       1.0000 0.68750  0.17540  0.59240  Biso   1.000  O
  O3       1.0000 0.17710  0.56480  0.12819  Biso   1.000  O
  O4       1.0000 0.82290  0.43520  0.87181  Biso   1.000  O
  N1       1.0000 0.74140  0.91330  0.91178  Biso   1.000  N
  N2       1.0000 0.25860  0.08670  0.08822  Biso   1.000  N
  O5       1.0000 0.34510  0.73330  0.02434  Biso   1.000  O
  O6       1.0000 0.65490  0.26670  0.97566  Biso   1.000  O
  O7       1.0000 0.29290  0.08060  0.42811  Biso   1.000  O
  O8       1.0000 0.70710  0.91940  0.57189  Biso   1.000  O
  N3       1.0000 0.65300  0.90560  0.12917  Biso   1.000  N
  N4       1.0000 0.34700  0.09440  0.87083  Biso   1.000  N
  C1       1.0000 0.18590  0.69430  0.06534  Biso   1.000  C
  C2       1.0000 0.81410  0.30570  0.93466  Biso   1.000  C
  C3       1.0000 0.58180  0.91150  0.23001  Biso   1.000  C
  C4       1.0000 0.41820  0.08850  0.76999  Biso   1.000  C
  C5       1.0000 0.73560  0.83260  0.30030  Biso   1.000  C
  C6       1.0000 0.26440  0.16740  0.69970  Biso   1.000  C
  C7       1.0000 0.97410  0.78390  0.04860  Biso   1.000  C
  C8       1.0000 0.02590  0.21610  0.95140  Biso   1.000  C
  C9       1.0000 0.38900  0.98670  0.26050  Biso   1.000  C
  C10      1.0000 0.61100  0.01330  0.73950  Biso   1.000  C
  C11      1.0000 0.89820  0.77640  0.24240  Biso   1.000  C
  C12      1.0000 0.10180  0.22360  0.75760  Biso   1.000  C
  C13      1.0000 0.84670  0.81960  0.13459  Biso   1.000  C
  C14      1.0000 0.15330  0.18040  0.86541  Biso   1.000  C
  C15      1.0000 0.24460  0.79480  0.51580  Biso   1.000  C
  C16      1.0000 0.75540  0.20520  0.48420  Biso   1.000  C
  H1       1.0000 0.12900  0.87070  0.53300  Biso   1.000  H
  H2       1.0000 0.87100  0.12930  0.46700  Biso   1.000  H
  H3       1.0000 0.35900  0.80170  0.56200  Biso   1.000  H
  H4       1.0000 0.64100  0.19830  0.43800  Biso   1.000  H
  C17      1.0000 0.92430  0.82870  0.94513  Biso   1.000  C
  C18      1.0000 0.07570  0.17130  0.05487  Biso   1.000  C
  C19      1.0000 0.95490  0.85270  0.77110  Biso   1.000  C
  C20      1.0000 0.04510  0.14730  0.22890  Biso   1.000  C
  C21      1.0000 0.40910  0.45990  0.26530  Biso   1.000  C
  C22      1.0000 0.59090  0.54010  0.73470  Biso   1.000  C
  H5       1.0000 0.53740  0.39540  0.28090  Biso   1.000  H
  H6       1.0000 0.46260  0.60460  0.71910  Biso   1.000  H
  H7       1.0000 0.29420  0.41480  0.30110  Biso   1.000  H
  H8       1.0000 0.70580  0.58520  0.69890  Biso   1.000  H
  H9       1.0000 0.41730  0.56190  0.28750  Biso   1.000  H
  H10      1.0000 0.58270  0.43810  0.71250  Biso   1.000  H
  C23      1.0000 0.05540  0.79000  0.85640  Biso   1.000  C
  C24      1.0000 0.94460  0.21000  0.14360  Biso   1.000  C
  C25      1.0000 0.32860  0.97310  0.37424  Biso   1.000  C
  C26      1.0000 0.67140  0.02690  0.62576  Biso   1.000  C
  C27      1.0000 0.37580  0.47150  0.15220  Biso   1.000  C
  C28      1.0000 0.62420  0.52850  0.84780  Biso   1.000  C
  H11      1.0000 0.48980  0.51940  0.11590  Biso   1.000  H
  H12      1.0000 0.51020  0.48060  0.88410  Biso   1.000  H
  H13      1.0000 0.37400  0.36820  0.12900  Biso   1.000  H
  H14      1.0000 0.62600  0.63180  0.87100  Biso   1.000  H
  C29      1.0000 0.17780  0.63640  0.52730  Biso   1.000  C
  C30      1.0000 0.82220  0.36360  0.47270  Biso   1.000  C
  H15      1.0000 0.07110  0.62910  0.47800  Biso   1.000  H
  H16      1.0000 0.92890  0.37090  0.52200  Biso   1.000  H
  H17      1.0000 0.12300  0.61560  0.59650  Biso   1.000  H
  H18      1.0000 0.87700  0.38440  0.40350  Biso   1.000  H
  H19      1.0000 0.29580  0.56180  0.51480  Biso   1.000  H
  H20      1.0000 0.70420  0.43820  0.48520  Biso   1.000  H
  Cu1      1.0000 0.50000  0.00000  0.00000  Biso   1.000  Cu
  C31      1.0000 0.75840  0.93020  0.80544  Biso   1.000  C
  C32      1.0000 0.24160  0.06980  0.19456  Biso   1.000  C
  H21      1.0000 0.02000  0.72200  0.26500  Biso   1.000  H
  H22      1.0000 0.98000  0.27800  0.73500  Biso   1.000  H
  H23      1.0000 0.00000  0.85100  0.70400  Biso   1.000  H
  H24      1.0000 0.00000  0.14900  0.29600  Biso   1.000  H
  H25      1.0000 0.18200  0.73300  0.86300  Biso   1.000  H
  H26      1.0000 0.81800  0.26700  0.13700  Biso   1.000  H
  H27      1.0000 0.72300  0.83000  0.37300  Biso   1.000  H
  H28      1.0000 0.27700  0.17000  0.62700  Biso   1.000  H
