data_image0
_cell_length_a       8.2771
_cell_length_b       20.8384
_cell_length_c       14.998
_cell_angle_alpha    90
_cell_angle_beta     98.548
_cell_angle_gamma    90

_symmetry_space_group_name_H-M    "P 1"
_symmetry_int_tables_number       1

loop_
  _symmetry_equiv_pos_as_xyz
  'x, y, z'

loop_
  _atom_site_label
  _atom_site_occupancy
  _atom_site_fract_x
  _atom_site_fract_y
  _atom_site_fract_z
  _atom_site_thermal_displace_type
  _atom_site_B_iso_or_equiv
  _atom_site_type_symbol
  Cu1      1.0000 0.57044  0.22119  0.78307  Biso   1.000  Cu
  Cu2      1.0000 0.92956  0.72119  0.71693  Biso   1.000  Cu
  Cu3      1.0000 0.42956  0.77881  0.21693  Biso   1.000  Cu
  Cu4      1.0000 0.07044  0.27881  0.28307  Biso   1.000  Cu
  Cu5      1.0000 0.06290  0.05273  0.57158  Biso   1.000  Cu
  Cu6      1.0000 0.43710  0.55273  0.92842  Biso   1.000  Cu
  Cu7      1.0000 0.93710  0.94727  0.42842  Biso   1.000  Cu
  Cu8      1.0000 0.56290  0.44727  0.07158  Biso   1.000  Cu
  Cl1      1.0000 0.82133  0.25226  0.87254  Biso   1.000  Cl
  Cl2      1.0000 0.67867  0.75226  0.62746  Biso   1.000  Cl
  Cl3      1.0000 0.17867  0.74774  0.12746  Biso   1.000  Cl
  Cl4      1.0000 0.32133  0.24774  0.37254  Biso   1.000  Cl
  Cl5      1.0000 0.09055  0.15840  0.59461  Biso   1.000  Cl
  Cl6      1.0000 0.40945  0.65840  0.90539  Biso   1.000  Cl
  Cl7      1.0000 0.90945  0.84160  0.40539  Biso   1.000  Cl
  Cl8      1.0000 0.59055  0.34160  0.09461  Biso   1.000  Cl
  P1       1.0000 0.85539  0.03404  0.72254  Biso   1.000  P
  P2       1.0000 0.64461  0.53404  0.77746  Biso   1.000  P
  P3       1.0000 0.14461  0.96596  0.27746  Biso   1.000  P
  P4       1.0000 0.35539  0.46596  0.22254  Biso   1.000  P
  P5       1.0000 0.32859  0.41371  0.86324  Biso   1.000  P
  P6       1.0000 0.17141  0.91371  0.63676  Biso   1.000  P
  P7       1.0000 0.67141  0.58629  0.13676  Biso   1.000  P
  P8       1.0000 0.82859  0.08629  0.36324  Biso   1.000  P
  O1       1.0000 0.75180  0.97875  0.74230  Biso   1.000  O
  O2       1.0000 0.74820  0.47875  0.75770  Biso   1.000  O
  O3       1.0000 0.24820  0.02125  0.25770  Biso   1.000  O
  O4       1.0000 0.25180  0.52125  0.24230  Biso   1.000  O
  O5       1.0000 0.86240  0.04408  0.62270  Biso   1.000  O
  O6       1.0000 0.63760  0.54408  0.87730  Biso   1.000  O
  O7       1.0000 0.13760  0.95592  0.37730  Biso   1.000  O
  O8       1.0000 0.36240  0.45592  0.12270  Biso   1.000  O
  O9       1.0000 0.03250  0.03030  0.77670  Biso   1.000  O
  O10      1.0000 0.46750  0.53030  0.72330  Biso   1.000  O
  O11      1.0000 0.96750  0.96970  0.22330  Biso   1.000  O
  O12      1.0000 0.53250  0.46970  0.27670  Biso   1.000  O
  O13      1.0000 0.19500  0.38219  0.90970  Biso   1.000  O
  O14      1.0000 0.30500  0.88219  0.59030  Biso   1.000  O
  O15      1.0000 0.80500  0.61781  0.09030  Biso   1.000  O
  O16      1.0000 0.69500  0.11781  0.40970  Biso   1.000  O
  O17      1.0000 0.43200  0.45730  0.93040  Biso   1.000  O
  O18      1.0000 0.06800  0.95730  0.56960  Biso   1.000  O
  O19      1.0000 0.56800  0.54270  0.06960  Biso   1.000  O
  O20      1.0000 0.93200  0.04270  0.43040  Biso   1.000  O
  O21      1.0000 0.26430  0.44655  0.77620  Biso   1.000  O
  O22      1.0000 0.23570  0.94655  0.72380  Biso   1.000  O
  O23      1.0000 0.73570  0.55345  0.22380  Biso   1.000  O
  O24      1.0000 0.76430  0.05345  0.27620  Biso   1.000  O
  N1       1.0000 0.61620  0.12850  0.74470  Biso   1.000  N
  N2       1.0000 0.88380  0.62850  0.75530  Biso   1.000  N
  N3       1.0000 0.38380  0.87150  0.25530  Biso   1.000  N
  N4       1.0000 0.11620  0.37150  0.24470  Biso   1.000  N
  N5       1.0000 0.59970  0.24730  0.65540  Biso   1.000  N
  N6       1.0000 0.90030  0.74730  0.84460  Biso   1.000  N
  N7       1.0000 0.40030  0.75270  0.34460  Biso   1.000  N
  N8       1.0000 0.09970  0.25270  0.15540  Biso   1.000  N
  N9       1.0000 0.40950  0.29800  0.77750  Biso   1.000  N
  N10      1.0000 0.09050  0.79800  0.72250  Biso   1.000  N
  N11      1.0000 0.59050  0.70200  0.22250  Biso   1.000  N
  N12      1.0000 0.90950  0.20200  0.27750  Biso   1.000  N
  N13      1.0000 0.43190  0.18050  0.86970  Biso   1.000  N
  N14      1.0000 0.06810  0.68050  0.63030  Biso   1.000  N
  N15      1.0000 0.56810  0.81950  0.13030  Biso   1.000  N
  N16      1.0000 0.93190  0.31950  0.36970  Biso   1.000  N
  C1       1.0000 0.55420  0.13030  0.64740  Biso   1.000  C
  C2       1.0000 0.94580  0.63030  0.85260  Biso   1.000  C
  C3       1.0000 0.44580  0.86970  0.35260  Biso   1.000  C
  C4       1.0000 0.05420  0.36970  0.14740  Biso   1.000  C
  H1       1.0000 0.58180  0.09010  0.61920  Biso   1.000  H
  H2       1.0000 0.91820  0.59010  0.88080  Biso   1.000  H
  H3       1.0000 0.41820  0.90990  0.38080  Biso   1.000  H
  H4       1.0000 0.08180  0.40990  0.11920  Biso   1.000  H
  H5       1.0000 0.43490  0.13450  0.63820  Biso   1.000  H
  H6       1.0000 0.06510  0.63450  0.86180  Biso   1.000  H
  H7       1.0000 0.56510  0.86550  0.36180  Biso   1.000  H
  H8       1.0000 0.93490  0.36550  0.13820  Biso   1.000  H
  C5       1.0000 0.62600  0.18440  0.60530  Biso   1.000  C
  C6       1.0000 0.87400  0.68440  0.89470  Biso   1.000  C
  C7       1.0000 0.37400  0.81560  0.39470  Biso   1.000  C
  C8       1.0000 0.12600  0.31560  0.10530  Biso   1.000  C
  H9       1.0000 0.57560  0.18800  0.54210  Biso   1.000  H
  H10      1.0000 0.92440  0.68800  0.95790  Biso   1.000  H
  H11      1.0000 0.42440  0.81200  0.45790  Biso   1.000  H
  H12      1.0000 0.07560  0.31200  0.04210  Biso   1.000  H
  H13      1.0000 0.74330  0.17700  0.60670  Biso   1.000  H
  H14      1.0000 0.75670  0.67700  0.89330  Biso   1.000  H
  H15      1.0000 0.25670  0.82300  0.39330  Biso   1.000  H
  H16      1.0000 0.24330  0.32300  0.10670  Biso   1.000  H
  C9       1.0000 0.44540  0.27680  0.61850  Biso   1.000  C
  C10      1.0000 0.05460  0.77680  0.88150  Biso   1.000  C
  C11      1.0000 0.55460  0.72320  0.38150  Biso   1.000  C
  C12      1.0000 0.94540  0.22320  0.11850  Biso   1.000  C
  H17      1.0000 0.36000  0.24390  0.60850  Biso   1.000  H
  H18      1.0000 0.14000  0.74390  0.89150  Biso   1.000  H
  H19      1.0000 0.64000  0.75610  0.39150  Biso   1.000  H
  H20      1.0000 0.86000  0.25610  0.10850  Biso   1.000  H
  H21      1.0000 0.45500  0.29660  0.56020  Biso   1.000  H
  H22      1.0000 0.04500  0.79660  0.93980  Biso   1.000  H
  H23      1.0000 0.54500  0.70340  0.43980  Biso   1.000  H
  H24      1.0000 0.95500  0.20340  0.06020  Biso   1.000  H
  C13      1.0000 0.40010  0.32540  0.68000  Biso   1.000  C
  C14      1.0000 0.09990  0.82540  0.82000  Biso   1.000  C
  C15      1.0000 0.59990  0.67460  0.32000  Biso   1.000  C
  C16      1.0000 0.90010  0.17460  0.18000  Biso   1.000  C
  H25      1.0000 0.28870  0.34030  0.65880  Biso   1.000  H
  H26      1.0000 0.21130  0.84030  0.84120  Biso   1.000  H
  H27      1.0000 0.71130  0.65970  0.34120  Biso   1.000  H
  H28      1.0000 0.78870  0.15970  0.15880  Biso   1.000  H
  H29      1.0000 0.47380  0.36230  0.68070  Biso   1.000  H
  H30      1.0000 0.02620  0.86230  0.81930  Biso   1.000  H
  H31      1.0000 0.52620  0.63770  0.31930  Biso   1.000  H
  H32      1.0000 0.97380  0.13770  0.18070  Biso   1.000  H
  C17      1.0000 0.25610  0.26680  0.79090  Biso   1.000  C
  C18      1.0000 0.24390  0.76680  0.70910  Biso   1.000  C
  C19      1.0000 0.74390  0.73320  0.20910  Biso   1.000  C
  C20      1.0000 0.75610  0.23320  0.29090  Biso   1.000  C
  H33      1.0000 0.17260  0.29930  0.79650  Biso   1.000  H
  H34      1.0000 0.32740  0.79930  0.70350  Biso   1.000  H
  H35      1.0000 0.82740  0.70070  0.20350  Biso   1.000  H
  H36      1.0000 0.67260  0.20070  0.29650  Biso   1.000  H
  H37      1.0000 0.21680  0.23940  0.73900  Biso   1.000  H
  H38      1.0000 0.28320  0.73940  0.76100  Biso   1.000  H
  H39      1.0000 0.78320  0.76060  0.26100  Biso   1.000  H
  H40      1.0000 0.71680  0.26060  0.23900  Biso   1.000  H
  C21      1.0000 0.28610  0.22820  0.87270  Biso   1.000  C
  C22      1.0000 0.21390  0.72820  0.62730  Biso   1.000  C
  C23      1.0000 0.71390  0.77180  0.12730  Biso   1.000  C
  C24      1.0000 0.78610  0.27180  0.37270  Biso   1.000  C
  H41      1.0000 0.18730  0.20390  0.87950  Biso   1.000  H
  H42      1.0000 0.31270  0.70390  0.62050  Biso   1.000  H
  H43      1.0000 0.81270  0.79610  0.12050  Biso   1.000  H
  H44      1.0000 0.68730  0.29610  0.37950  Biso   1.000  H
  H45      1.0000 0.31110  0.25660  0.92510  Biso   1.000  H
  H46      1.0000 0.18890  0.75660  0.57490  Biso   1.000  H
  H47      1.0000 0.68890  0.74340  0.07490  Biso   1.000  H
  H48      1.0000 0.81110  0.24340  0.42510  Biso   1.000  H
  C25      1.0000 0.37180  0.12210  0.82330  Biso   1.000  C
  C26      1.0000 0.12820  0.62210  0.67670  Biso   1.000  C
  C27      1.0000 0.62820  0.87790  0.17670  Biso   1.000  C
  C28      1.0000 0.87180  0.37790  0.32330  Biso   1.000  C
  H49      1.0000 0.29150  0.13290  0.77070  Biso   1.000  H
  H50      1.0000 0.20850  0.63290  0.72930  Biso   1.000  H
  H51      1.0000 0.70850  0.86710  0.22930  Biso   1.000  H
  H52      1.0000 0.79150  0.36710  0.27070  Biso   1.000  H
  H53      1.0000 0.31750  0.09530  0.86380  Biso   1.000  H
  H54      1.0000 0.18250  0.59530  0.63620  Biso   1.000  H
  H55      1.0000 0.68250  0.90470  0.13620  Biso   1.000  H
  H56      1.0000 0.81750  0.40470  0.36380  Biso   1.000  H
  C29      1.0000 0.50950  0.08580  0.79410  Biso   1.000  C
  C30      1.0000 0.99050  0.58580  0.70590  Biso   1.000  C
  C31      1.0000 0.49050  0.91420  0.20590  Biso   1.000  C
  C32      1.0000 0.00950  0.41420  0.29410  Biso   1.000  C
  H57      1.0000 0.46570  0.05060  0.75430  Biso   1.000  H
  H58      1.0000 0.03430  0.55060  0.74570  Biso   1.000  H
  H59      1.0000 0.53430  0.94940  0.24570  Biso   1.000  H
  H60      1.0000 0.96570  0.44940  0.25430  Biso   1.000  H
  H61      1.0000 0.57640  0.06700  0.84700  Biso   1.000  H
  H62      1.0000 0.92360  0.56700  0.65300  Biso   1.000  H
  H63      1.0000 0.42360  0.93300  0.15300  Biso   1.000  H
  H64      1.0000 0.07640  0.43300  0.34700  Biso   1.000  H
  C33      1.0000 0.79120  0.10930  0.76690  Biso   1.000  C
  C34      1.0000 0.70880  0.60930  0.73310  Biso   1.000  C
  C35      1.0000 0.20880  0.89070  0.23310  Biso   1.000  C
  C36      1.0000 0.29120  0.39070  0.26690  Biso   1.000  C
  H65      1.0000 0.81830  0.10770  0.83270  Biso   1.000  H
  H66      1.0000 0.68170  0.60770  0.66730  Biso   1.000  H
  H67      1.0000 0.18170  0.89230  0.16730  Biso   1.000  H
  H68      1.0000 0.31830  0.39230  0.33270  Biso   1.000  H
  H69      1.0000 0.85740  0.14360  0.74590  Biso   1.000  H
  H70      1.0000 0.64260  0.64360  0.75410  Biso   1.000  H
  H71      1.0000 0.14260  0.85640  0.25410  Biso   1.000  H
  H72      1.0000 0.35740  0.35640  0.24590  Biso   1.000  H
  C37      1.0000 0.46440  0.34890  0.84650  Biso   1.000  C
  C38      1.0000 0.03560  0.84890  0.65350  Biso   1.000  C
  C39      1.0000 0.53560  0.65110  0.15350  Biso   1.000  C
  C40      1.0000 0.96440  0.15110  0.34650  Biso   1.000  C
  H73      1.0000 0.56460  0.36790  0.83060  Biso   1.000  H
  H74      1.0000 0.93540  0.86790  0.66940  Biso   1.000  H
  H75      1.0000 0.43540  0.63210  0.16940  Biso   1.000  H
  H76      1.0000 0.06460  0.13210  0.33060  Biso   1.000  H
  H77      1.0000 0.49410  0.32730  0.90460  Biso   1.000  H
  H78      1.0000 0.00590  0.82730  0.59540  Biso   1.000  H
  H79      1.0000 0.50590  0.67270  0.09540  Biso   1.000  H
  H80      1.0000 0.99410  0.17270  0.40460  Biso   1.000  H
  C41      1.0000 0.73740  0.29060  0.64650  Biso   1.000  C
  C42      1.0000 0.76260  0.79060  0.85350  Biso   1.000  C
  C43      1.0000 0.26260  0.70940  0.35350  Biso   1.000  C
  C44      1.0000 0.23740  0.20940  0.14650  Biso   1.000  C
  H81      1.0000 0.73330  0.30290  0.58380  Biso   1.000  H
  H82      1.0000 0.76670  0.80290  0.91620  Biso   1.000  H
  H83      1.0000 0.26670  0.69710  0.41620  Biso   1.000  H
  H84      1.0000 0.23330  0.19710  0.08380  Biso   1.000  H
  H85      1.0000 0.83960  0.26880  0.66690  Biso   1.000  H
  H86      1.0000 0.66040  0.76880  0.83310  Biso   1.000  H
  H87      1.0000 0.16040  0.73120  0.33310  Biso   1.000  H
  H88      1.0000 0.33960  0.23120  0.16690  Biso   1.000  H
  H89      1.0000 0.72970  0.32870  0.68280  Biso   1.000  H
  H90      1.0000 0.77030  0.82870  0.81720  Biso   1.000  H
  H91      1.0000 0.27030  0.67130  0.31720  Biso   1.000  H
  H92      1.0000 0.22970  0.17130  0.18280  Biso   1.000  H
  C45      1.0000 0.51750  0.16880  0.96200  Biso   1.000  C
  C46      1.0000 0.98250  0.66880  0.53800  Biso   1.000  C
  C47      1.0000 0.48250  0.83120  0.03800  Biso   1.000  C
  C48      1.0000 0.01750  0.33120  0.46200  Biso   1.000  C
  H93      1.0000 0.44650  0.14490  0.99600  Biso   1.000  H
  H94      1.0000 0.05350  0.64490  0.50400  Biso   1.000  H
  H95      1.0000 0.55350  0.85510  0.00400  Biso   1.000  H
  H96      1.0000 0.94650  0.35510  0.49600  Biso   1.000  H
  H97      1.0000 0.54590  0.20950  0.99160  Biso   1.000  H
  H98      1.0000 0.95410  0.70950  0.50840  Biso   1.000  H
  H99      1.0000 0.45410  0.79050  0.00840  Biso   1.000  H
  H100     1.0000 0.04590  0.29050  0.49160  Biso   1.000  H
  H101     1.0000 0.61610  0.14430  0.95910  Biso   1.000  H
  H102     1.0000 0.88390  0.64430  0.54090  Biso   1.000  H
  H103     1.0000 0.38390  0.85570  0.04090  Biso   1.000  H
  H104     1.0000 0.11610  0.35570  0.45910  Biso   1.000  H
  O25      1.0000 0.27250  0.04300  0.52060  Biso   1.000  O
  O26      1.0000 0.22750  0.54300  0.97940  Biso   1.000  O
  O27      1.0000 0.72750  0.95700  0.47940  Biso   1.000  O
  O28      1.0000 0.77250  0.45700  0.02060  Biso   1.000  O
  O29      1.0000 0.97980  0.42370  0.65060  Biso   1.000  O
  O30      1.0000 0.52020  0.92370  0.84940  Biso   1.000  O
  O31      1.0000 0.02020  0.57630  0.34940  Biso   1.000  O
  O32      1.0000 0.47980  0.07630  0.15060  Biso   1.000  O
  O33      1.0000 0.88680  0.39640  0.88280  Biso   1.000  O
  O34      1.0000 0.61320  0.89640  0.61720  Biso   1.000  O
  O35      1.0000 0.11320  0.60360  0.11720  Biso   1.000  O
  O36      1.0000 0.38680  0.10360  0.38280  Biso   1.000  O
  O37      1.0000 0.20900  0.96220  0.00280  Biso   1.000  O
  O38      1.0000 0.29100  0.46220  0.49720  Biso   1.000  O
  O39      1.0000 0.79100  0.03780  0.99720  Biso   1.000  O
  O40      1.0000 0.70900  0.53780  0.50280  Biso   1.000  O
  C49      1.0000 0.08600  0.98670  0.99960  Biso   1.000  C
  C50      1.0000 0.41400  0.48670  0.50040  Biso   1.000  C
  C51      1.0000 0.91400  0.01330  0.00040  Biso   1.000  C
  C52      1.0000 0.58600  0.51330  0.49960  Biso   1.000  C
  C53      1.0000 0.05600  0.05820  0.01230  Biso   1.000  C
  C54      1.0000 0.44400  0.55820  0.48770  Biso   1.000  C
  C55      1.0000 0.94400  0.94180  0.98770  Biso   1.000  C
  C56      1.0000 0.55600  0.44180  0.51230  Biso   1.000  C
  O41      1.0000 0.58740  0.00880  0.00690  Biso   1.000  O
  O42      1.0000 0.91260  0.50880  0.49310  Biso   1.000  O
  O43      1.0000 0.41260  0.99120  0.99310  Biso   1.000  O
  O44      1.0000 0.08740  0.49120  0.50690  Biso   1.000  O
  H105     1.0000 0.08300  0.43100  0.70000  Biso   1.000  H
  H106     1.0000 0.41700  0.93100  0.80000  Biso   1.000  H
  H107     1.0000 0.91700  0.56900  0.30000  Biso   1.000  H
  H108     1.0000 0.58300  0.06900  0.20000  Biso   1.000  H
  H109     1.0000 0.91400  0.43900  0.68300  Biso   1.000  H
  H110     1.0000 0.58600  0.93900  0.81700  Biso   1.000  H
  H111     1.0000 0.08600  0.56100  0.31700  Biso   1.000  H
  H112     1.0000 0.41400  0.06100  0.18300  Biso   1.000  H
  H113     1.0000 0.85200  0.42000  0.84900  Biso   1.000  H
  H114     1.0000 0.64800  0.92000  0.65100  Biso   1.000  H
  H115     1.0000 0.14800  0.58000  0.15100  Biso   1.000  H
  H116     1.0000 0.35200  0.08000  0.34900  Biso   1.000  H
  H117     1.0000 0.84600  0.36000  0.86600  Biso   1.000  H
  H118     1.0000 0.65400  0.86000  0.63400  Biso   1.000  H
  H119     1.0000 0.15400  0.64000  0.13400  Biso   1.000  H
  H120     1.0000 0.34600  0.14000  0.36600  Biso   1.000  H
  H121     1.0000 0.11200  0.40100  0.90100  Biso   1.000  H
  H122     1.0000 0.38800  0.90100  0.59900  Biso   1.000  H
  H123     1.0000 0.88800  0.59900  0.09900  Biso   1.000  H
  H124     1.0000 0.61200  0.09900  0.40100  Biso   1.000  H
  H125     1.0000 0.08600  0.00400  0.76700  Biso   1.000  H
  H126     1.0000 0.41400  0.50400  0.73300  Biso   1.000  H
  H127     1.0000 0.91400  0.99600  0.23300  Biso   1.000  H
  H128     1.0000 0.58600  0.49600  0.26700  Biso   1.000  H
  H129     1.0000 0.22600  0.01000  0.49200  Biso   1.000  H
  H130     1.0000 0.27400  0.51000  0.00800  Biso   1.000  H
  H131     1.0000 0.77400  0.99000  0.50800  Biso   1.000  H
  H132     1.0000 0.72600  0.49000  0.99200  Biso   1.000  H
  H133     1.0000 0.29500  0.08100  0.48000  Biso   1.000  H
  H134     1.0000 0.20500  0.58100  0.02000  Biso   1.000  H
  H135     1.0000 0.70500  0.91900  0.52000  Biso   1.000  H
  H136     1.0000 0.79500  0.41900  0.98000  Biso   1.000  H
