data_image0
_cell_length_a       15.515
_cell_length_b       9.338
_cell_length_c       12.66
_cell_angle_alpha    90
_cell_angle_beta     95.33
_cell_angle_gamma    90

_symmetry_space_group_name_H-M    "P 1"
_symmetry_int_tables_number       1

loop_
  _symmetry_equiv_pos_as_xyz
  'x, y, z'

loop_
  _atom_site_label
  _atom_site_occupancy
  _atom_site_fract_x
  _atom_site_fract_y
  _atom_site_fract_z
  _atom_site_thermal_displace_type
  _atom_site_B_iso_or_equiv
  _atom_site_type_symbol
  Cu1      1.0000 0.11140  0.14770  0.02340  Biso   1.000  Cu
  Cu2      1.0000 0.38860  0.64770  0.97660  Biso   1.000  Cu
  Cu3      1.0000 0.88860  0.85230  0.97660  Biso   1.000  Cu
  Cu4      1.0000 0.61140  0.35230  0.02340  Biso   1.000  Cu
  O1       1.0000 0.11070  0.12550  0.17450  Biso   1.000  O
  O2       1.0000 0.38930  0.62550  0.82550  Biso   1.000  O
  O3       1.0000 0.88930  0.87450  0.82550  Biso   1.000  O
  O4       1.0000 0.61070  0.37450  0.17450  Biso   1.000  O
  O5       1.0000 0.14590  0.09280  0.37510  Biso   1.000  O
  O6       1.0000 0.35410  0.59280  0.62490  Biso   1.000  O
  O7       1.0000 0.85410  0.90720  0.62490  Biso   1.000  O
  O8       1.0000 0.64590  0.40720  0.37510  Biso   1.000  O
  N1       1.0000 0.29430  0.81880  0.96260  Biso   1.000  N
  N2       1.0000 0.20570  0.31880  0.03740  Biso   1.000  N
  N3       1.0000 0.70570  0.18120  0.03740  Biso   1.000  N
  N4       1.0000 0.79430  0.68120  0.96260  Biso   1.000  N
  N5       1.0000 0.19560  0.98730  0.99480  Biso   1.000  N
  N6       1.0000 0.30440  0.48730  0.00520  Biso   1.000  N
  N7       1.0000 0.80440  0.01270  0.00520  Biso   1.000  N
  N8       1.0000 0.69560  0.51270  0.99480  Biso   1.000  N
  N9       1.0000 0.08390  0.13720  0.86790  Biso   1.000  N
  N10      1.0000 0.41610  0.63720  0.13210  Biso   1.000  N
  N11      1.0000 0.91610  0.86280  0.13210  Biso   1.000  N
  N12      1.0000 0.58390  0.36280  0.86790  Biso   1.000  N
  N13      1.0000 0.00010  0.24910  0.00430  Biso   1.000  N
  N14      1.0000 0.49990  0.74910  0.99570  Biso   1.000  N
  N15      1.0000 0.99990  0.75090  0.99570  Biso   1.000  N
  N16      1.0000 0.50010  0.25090  0.00430  Biso   1.000  N
  C1       1.0000 0.25870  0.90270  0.03650  Biso   1.000  C
  C2       1.0000 0.24130  0.40270  0.96350  Biso   1.000  C
  C3       1.0000 0.74130  0.09730  0.96350  Biso   1.000  C
  C4       1.0000 0.75870  0.59730  0.03650  Biso   1.000  C
  C5       1.0000 0.24930  0.85430  0.86890  Biso   1.000  C
  C6       1.0000 0.25070  0.35430  0.13110  Biso   1.000  C
  C7       1.0000 0.75070  0.14570  0.13110  Biso   1.000  C
  C8       1.0000 0.74930  0.64570  0.86890  Biso   1.000  C
  C9       1.0000 0.18950  0.95840  0.88640  Biso   1.000  C
  C10      1.0000 0.31050  0.45840  0.11360  Biso   1.000  C
  C11      1.0000 0.81050  0.04160  0.11360  Biso   1.000  C
  C12      1.0000 0.68950  0.54160  0.88640  Biso   1.000  C
  C13      1.0000 0.12580  0.03760  0.82210  Biso   1.000  C
  C14      1.0000 0.37420  0.53760  0.17790  Biso   1.000  C
  C15      1.0000 0.87420  0.96240  0.17790  Biso   1.000  C
  C16      1.0000 0.62580  0.46240  0.82210  Biso   1.000  C
  C17      1.0000 0.01630  0.22720  0.82460  Biso   1.000  C
  C18      1.0000 0.48370  0.72720  0.17540  Biso   1.000  C
  C19      1.0000 0.98370  0.77280  0.17540  Biso   1.000  C
  C20      1.0000 0.51630  0.27280  0.82460  Biso   1.000  C
  C21      1.0000 0.98700  0.21850  0.71110  Biso   1.000  C
  C22      1.0000 0.51300  0.71850  0.28890  Biso   1.000  C
  C23      1.0000 0.01300  0.78150  0.28890  Biso   1.000  C
  C24      1.0000 0.48700  0.28150  0.71110  Biso   1.000  C
  C25      1.0000 0.91130  0.30660  0.68150  Biso   1.000  C
  C26      1.0000 0.58870  0.80660  0.31850  Biso   1.000  C
  C27      1.0000 0.08870  0.69340  0.31850  Biso   1.000  C
  C28      1.0000 0.41130  0.19340  0.68150  Biso   1.000  C
  C29      1.0000 0.86020  0.34330  0.74830  Biso   1.000  C
  C30      1.0000 0.63980  0.84330  0.25170  Biso   1.000  C
  C31      1.0000 0.13980  0.65670  0.25170  Biso   1.000  C
  C32      1.0000 0.36020  0.15670  0.74830  Biso   1.000  C
  C33      1.0000 0.89020  0.35460  0.86470  Biso   1.000  C
  C34      1.0000 0.60980  0.85460  0.13530  Biso   1.000  C
  C35      1.0000 0.10980  0.64540  0.13530  Biso   1.000  C
  C36      1.0000 0.39020  0.14540  0.86470  Biso   1.000  C
  C37      1.0000 0.96340  0.25200  0.89040  Biso   1.000  C
  C38      1.0000 0.53660  0.75200  0.10960  Biso   1.000  C
  C39      1.0000 0.03660  0.74800  0.10960  Biso   1.000  C
  C40      1.0000 0.46340  0.24800  0.89040  Biso   1.000  C
  C41      1.0000 0.95810  0.29220  0.08490  Biso   1.000  C
  C42      1.0000 0.54190  0.79220  0.91510  Biso   1.000  C
  C43      1.0000 0.04190  0.70780  0.91510  Biso   1.000  C
  C44      1.0000 0.45810  0.20780  0.08490  Biso   1.000  C
  C45      1.0000 0.98560  0.27390  0.19530  Biso   1.000  C
  C46      1.0000 0.51440  0.77390  0.80470  Biso   1.000  C
  C47      1.0000 0.01440  0.72610  0.80470  Biso   1.000  C
  C48      1.0000 0.48560  0.22610  0.19530  Biso   1.000  C
  C49      1.0000 0.93340  0.33620  0.26570  Biso   1.000  C
  C50      1.0000 0.56660  0.83620  0.73430  Biso   1.000  C
  C51      1.0000 0.06660  0.66380  0.73430  Biso   1.000  C
  C52      1.0000 0.43340  0.16380  0.26570  Biso   1.000  C
  C53      1.0000 0.95210  0.32140  0.37040  Biso   1.000  C
  C54      1.0000 0.54790  0.82140  0.62960  Biso   1.000  C
  C55      1.0000 0.04790  0.67860  0.62960  Biso   1.000  C
  C56      1.0000 0.45210  0.17860  0.37040  Biso   1.000  C
  C57      1.0000 0.02360  0.24250  0.40930  Biso   1.000  C
  C58      1.0000 0.47640  0.74250  0.59070  Biso   1.000  C
  C59      1.0000 0.97640  0.75750  0.59070  Biso   1.000  C
  C60      1.0000 0.52360  0.25750  0.40930  Biso   1.000  C
  C61      1.0000 0.07540  0.17570  0.34380  Biso   1.000  C
  C62      1.0000 0.42460  0.67570  0.65620  Biso   1.000  C
  C63      1.0000 0.92460  0.82430  0.65620  Biso   1.000  C
  C64      1.0000 0.57540  0.32430  0.34380  Biso   1.000  C
  C65      1.0000 0.05820  0.19010  0.23310  Biso   1.000  C
  C66      1.0000 0.44180  0.69010  0.76690  Biso   1.000  C
  C67      1.0000 0.94180  0.80990  0.76690  Biso   1.000  C
  C68      1.0000 0.55820  0.30990  0.23310  Biso   1.000  C
  C69      1.0000 0.16320  0.06060  0.48250  Biso   1.000  C
  C70      1.0000 0.33680  0.56060  0.51750  Biso   1.000  C
  C71      1.0000 0.83680  0.93940  0.51750  Biso   1.000  C
  C72      1.0000 0.66320  0.43940  0.48250  Biso   1.000  C
  C73      1.0000 0.23600  0.95970  0.49600  Biso   1.000  C
  C74      1.0000 0.26400  0.45970  0.50400  Biso   1.000  C
  C75      1.0000 0.76400  0.04030  0.50400  Biso   1.000  C
  C76      1.0000 0.73600  0.54030  0.49600  Biso   1.000  C
  H1       1.0000 0.28200  0.89400  0.12200  Biso   1.000  H
  H2       1.0000 0.21800  0.39400  0.87800  Biso   1.000  H
  H3       1.0000 0.71800  0.10600  0.87800  Biso   1.000  H
  H4       1.0000 0.78200  0.60600  0.12200  Biso   1.000  H
  H5       1.0000 0.26600  0.80200  0.79300  Biso   1.000  H
  H6       1.0000 0.23400  0.30200  0.20700  Biso   1.000  H
  H7       1.0000 0.73400  0.19800  0.20700  Biso   1.000  H
  H8       1.0000 0.76600  0.69800  0.79300  Biso   1.000  H
  H9       1.0000 0.10500  0.02400  0.74500  Biso   1.000  H
  H10      1.0000 0.39500  0.52400  0.25500  Biso   1.000  H
  H11      1.0000 0.89500  0.97600  0.25500  Biso   1.000  H
  H12      1.0000 0.60500  0.47600  0.74500  Biso   1.000  H
  H13      1.0000 0.96200  0.12900  0.70300  Biso   1.000  H
  H14      1.0000 0.53800  0.62900  0.29700  Biso   1.000  H
  H15      1.0000 0.03800  0.87100  0.29700  Biso   1.000  H
  H16      1.0000 0.46200  0.37100  0.70300  Biso   1.000  H
  H17      1.0000 0.02100  0.23900  0.68400  Biso   1.000  H
  H18      1.0000 0.47900  0.73900  0.31600  Biso   1.000  H
  H19      1.0000 0.97900  0.76100  0.31600  Biso   1.000  H
  H20      1.0000 0.52100  0.26100  0.68400  Biso   1.000  H
  H21      1.0000 0.89900  0.33000  0.62700  Biso   1.000  H
  H22      1.0000 0.60100  0.83000  0.37300  Biso   1.000  H
  H23      1.0000 0.10100  0.67000  0.37300  Biso   1.000  H
  H24      1.0000 0.39900  0.17000  0.62700  Biso   1.000  H
  H25      1.0000 0.81800  0.35000  0.72600  Biso   1.000  H
  H26      1.0000 0.68200  0.85000  0.27400  Biso   1.000  H
  H27      1.0000 0.18200  0.65000  0.27400  Biso   1.000  H
  H28      1.0000 0.31800  0.15000  0.72600  Biso   1.000  H
  H29      1.0000 0.85300  0.33200  0.89400  Biso   1.000  H
  H30      1.0000 0.64700  0.83200  0.10600  Biso   1.000  H
  H31      1.0000 0.14700  0.66800  0.10600  Biso   1.000  H
  H32      1.0000 0.35300  0.16800  0.89400  Biso   1.000  H
  H33      1.0000 0.91500  0.43600  0.86500  Biso   1.000  H
  H34      1.0000 0.58500  0.93600  0.13500  Biso   1.000  H
  H35      1.0000 0.08500  0.56400  0.13500  Biso   1.000  H
  H36      1.0000 0.41500  0.06400  0.86500  Biso   1.000  H
  H37      1.0000 0.90700  0.35200  0.07100  Biso   1.000  H
  H38      1.0000 0.59300  0.85200  0.92900  Biso   1.000  H
  H39      1.0000 0.09300  0.64800  0.92900  Biso   1.000  H
  H40      1.0000 0.40700  0.14800  0.07100  Biso   1.000  H
  H41      1.0000 0.87600  0.40000  0.23700  Biso   1.000  H
  H42      1.0000 0.62400  0.90000  0.76300  Biso   1.000  H
  H43      1.0000 0.12400  0.60000  0.76300  Biso   1.000  H
  H44      1.0000 0.37600  0.10000  0.23700  Biso   1.000  H
  H45      1.0000 0.91200  0.36600  0.41300  Biso   1.000  H
  H46      1.0000 0.58800  0.86600  0.58700  Biso   1.000  H
  H47      1.0000 0.08800  0.63400  0.58700  Biso   1.000  H
  H48      1.0000 0.41200  0.13400  0.41300  Biso   1.000  H
  H49      1.0000 0.05100  0.23700  0.48600  Biso   1.000  H
  H50      1.0000 0.44900  0.73700  0.51400  Biso   1.000  H
  H51      1.0000 0.94900  0.76300  0.51400  Biso   1.000  H
  H52      1.0000 0.55100  0.26300  0.48600  Biso   1.000  H
  H53      1.0000 0.12500  0.00900  0.49700  Biso   1.000  H
  H54      1.0000 0.37500  0.50900  0.50300  Biso   1.000  H
  H55      1.0000 0.87500  0.99100  0.50300  Biso   1.000  H
  H56      1.0000 0.62500  0.49100  0.49700  Biso   1.000  H
  H57      1.0000 0.18500  0.16100  0.52500  Biso   1.000  H
  H58      1.0000 0.31500  0.66100  0.47500  Biso   1.000  H
  H59      1.0000 0.81500  0.83900  0.47500  Biso   1.000  H
  H60      1.0000 0.68500  0.33900  0.52500  Biso   1.000  H
  H61      1.0000 0.25700  0.93100  0.57000  Biso   1.000  H
  H62      1.0000 0.24300  0.43100  0.43000  Biso   1.000  H
  H63      1.0000 0.74300  0.06900  0.43000  Biso   1.000  H
  H64      1.0000 0.75700  0.56900  0.57000  Biso   1.000  H
  H65      1.0000 0.21700  0.86100  0.43500  Biso   1.000  H
  H66      1.0000 0.28300  0.36100  0.56500  Biso   1.000  H
  H67      1.0000 0.78300  0.13900  0.56500  Biso   1.000  H
  H68      1.0000 0.71700  0.63900  0.43500  Biso   1.000  H
  H69      1.0000 0.27800  0.99200  0.46700  Biso   1.000  H
  H70      1.0000 0.22200  0.49200  0.53300  Biso   1.000  H
  H71      1.0000 0.72200  0.00800  0.53300  Biso   1.000  H
  H72      1.0000 0.77800  0.50800  0.46700  Biso   1.000  H
