data_image0
_cell_length_a       7.6722
_cell_length_b       10.6
_cell_length_c       13.271
_cell_angle_alpha    72.81
_cell_angle_beta     84.64
_cell_angle_gamma    87.28

_symmetry_space_group_name_H-M    "P 1"
_symmetry_int_tables_number       1

loop_
  _symmetry_equiv_pos_as_xyz
  'x, y, z'

loop_
  _atom_site_label
  _atom_site_occupancy
  _atom_site_fract_x
  _atom_site_fract_y
  _atom_site_fract_z
  _atom_site_thermal_displace_type
  _atom_site_B_iso_or_equiv
  _atom_site_type_symbol
  Cu1      1.0000 0.56253  0.11710  0.30374  Biso   1.000  Cu
  Cu2      1.0000 0.43747  0.88290  0.69626  Biso   1.000  Cu
  O1       1.0000 0.31470  0.07790  0.41850  Biso   1.000  O
  O2       1.0000 0.68530  0.92210  0.58150  Biso   1.000  O
  H1       1.0000 0.21100  0.09900  0.40300  Biso   1.000  H
  H2       1.0000 0.78900  0.90100  0.59700  Biso   1.000  H
  H3       1.0000 0.32400  0.07100  0.48300  Biso   1.000  H
  H4       1.0000 0.67600  0.92900  0.51700  Biso   1.000  H
  O3       1.0000 0.99690  0.29250  0.97030  Biso   1.000  O
  O4       1.0000 0.00310  0.70750  0.02970  Biso   1.000  O
  H5       1.0000 0.95360  0.24950  0.03080  Biso   1.000  H
  H6       1.0000 0.04640  0.75050  0.96920  Biso   1.000  H
  H7       1.0000 0.10060  0.26190  0.97030  Biso   1.000  H
  H8       1.0000 0.89940  0.73810  0.02970  Biso   1.000  H
  O5       1.0000 0.86020  0.15860  0.16440  Biso   1.000  O
  O6       1.0000 0.13980  0.84140  0.83560  Biso   1.000  O
  H9       1.0000 0.85100  0.07660  0.17100  Biso   1.000  H
  H10      1.0000 0.14900  0.92340  0.82900  Biso   1.000  H
  H11      1.0000 0.90900  0.16700  0.21700  Biso   1.000  H
  H12      1.0000 0.09100  0.83300  0.78300  Biso   1.000  H
  O7       1.0000 0.07810  0.47230  0.15050  Biso   1.000  O
  O8       1.0000 0.92190  0.52770  0.84950  Biso   1.000  O
  H13      1.0000 0.05900  0.54700  0.10700  Biso   1.000  H
  H14      1.0000 0.94100  0.45300  0.89300  Biso   1.000  H
  O9       1.0000 0.33960  0.16650  0.93180  Biso   1.000  O
  O10      1.0000 0.66040  0.83350  0.06820  Biso   1.000  O
  H15      1.0000 0.31000  0.12900  0.88700  Biso   1.000  H
  H16      1.0000 0.69000  0.87100  0.11300  Biso   1.000  H
  O11      1.0000 0.68820  0.18970  0.39670  Biso   1.000  O
  O12      1.0000 0.31180  0.81030  0.60330  Biso   1.000  O
  O13      1.0000 0.96780  0.13380  0.36100  Biso   1.000  O
  O14      1.0000 0.03220  0.86620  0.63900  Biso   1.000  O
  O15      1.0000 0.78840  0.31460  0.53880  Biso   1.000  O
  O16      1.0000 0.21160  0.68540  0.46120  Biso   1.000  O
  O17      1.0000 0.65310  0.93570  0.36790  Biso   1.000  O
  O18      1.0000 0.34690  0.06430  0.63210  Biso   1.000  O
  O19      1.0000 0.78290  0.89890  0.22120  Biso   1.000  O
  O20      1.0000 0.21710  0.10110  0.77880  Biso   1.000  O
  N1       1.0000 0.48050  0.30460  0.23270  Biso   1.000  N
  N2       1.0000 0.51950  0.69540  0.76730  Biso   1.000  N
  N3       1.0000 0.43070  0.05090  0.20410  Biso   1.000  N
  N4       1.0000 0.56930  0.94910  0.79590  Biso   1.000  N
  C1       1.0000 0.31190  0.33230  0.21730  Biso   1.000  C
  C2       1.0000 0.68810  0.66770  0.78270  Biso   1.000  C
  H17      1.0000 0.23160  0.26490  0.24360  Biso   1.000  H
  H18      1.0000 0.76840  0.73510  0.75640  Biso   1.000  H
  C3       1.0000 0.25110  0.45710  0.16390  Biso   1.000  C
  C4       1.0000 0.74890  0.54290  0.83610  Biso   1.000  C
  C5       1.0000 0.37060  0.55750  0.12760  Biso   1.000  C
  C6       1.0000 0.62940  0.44250  0.87240  Biso   1.000  C
  H19      1.0000 0.33480  0.64290  0.09210  Biso   1.000  H
  H20      1.0000 0.66520  0.35710  0.90790  Biso   1.000  H
  C7       1.0000 0.54380  0.52810  0.14510  Biso   1.000  C
  C8       1.0000 0.45620  0.47190  0.85490  Biso   1.000  C
  H21      1.0000 0.62620  0.59430  0.12160  Biso   1.000  H
  H22      1.0000 0.37380  0.40570  0.87840  Biso   1.000  H
  C9       1.0000 0.59600  0.40140  0.19730  Biso   1.000  C
  C10      1.0000 0.40400  0.59860  0.80270  Biso   1.000  C
  H23      1.0000 0.71370  0.38290  0.20800  Biso   1.000  H
  H24      1.0000 0.28630  0.61710  0.79200  Biso   1.000  H
  C11      1.0000 0.42890  0.11810  0.10170  Biso   1.000  C
  C12      1.0000 0.57110  0.88190  0.89830  Biso   1.000  C
  H25      1.0000 0.49710  0.19290  0.07580  Biso   1.000  H
  H26      1.0000 0.50290  0.80710  0.92420  Biso   1.000  H
  C13      1.0000 0.33230  0.08310  0.03270  Biso   1.000  C
  C14      1.0000 0.66770  0.91690  0.96730  Biso   1.000  C
  C15      1.0000 0.23370  0.97040  0.06980  Biso   1.000  C
  C16      1.0000 0.76630  0.02960  0.93020  Biso   1.000  C
  H27      1.0000 0.16740  0.94360  0.02490  Biso   1.000  H
  H28      1.0000 0.83260  0.05640  0.97510  Biso   1.000  H
  C17      1.0000 0.23580  0.89880  0.17460  Biso   1.000  C
  C18      1.0000 0.76420  0.10120  0.82540  Biso   1.000  C
  H29      1.0000 0.17080  0.82240  0.20140  Biso   1.000  H
  H30      1.0000 0.82920  0.17760  0.79860  Biso   1.000  H
  C19      1.0000 0.33530  0.94070  0.24030  Biso   1.000  C
  C20      1.0000 0.66470  0.05930  0.75970  Biso   1.000  C
  H31      1.0000 0.33620  0.89150  0.31100  Biso   1.000  H
  H32      1.0000 0.66380  0.10850  0.68900  Biso   1.000  H
  C21      1.0000 0.84830  0.18150  0.41120  Biso   1.000  C
  C22      1.0000 0.15170  0.81850  0.58880  Biso   1.000  C
  C23      1.0000 0.90770  0.23050  0.49910  Biso   1.000  C
  C24      1.0000 0.09230  0.76950  0.50090  Biso   1.000  C
  H33      1.0000 0.93380  0.15410  0.55770  Biso   1.000  H
  H34      1.0000 0.06620  0.84590  0.44230  Biso   1.000  H
  H35      1.0000 0.01610  0.27730  0.47310  Biso   1.000  H
  H36      1.0000 0.98390  0.72270  0.52690  Biso   1.000  H
  C25      1.0000 0.78100  0.44500  0.48090  Biso   1.000  C
  C26      1.0000 0.21900  0.55500  0.51910  Biso   1.000  C
  C27      1.0000 0.68170  0.52890  0.52980  Biso   1.000  C
  C28      1.0000 0.31830  0.47110  0.47020  Biso   1.000  C
  H37      1.0000 0.62950  0.49500  0.59810  Biso   1.000  H
  H38      1.0000 0.37050  0.50500  0.40190  Biso   1.000  H
  C29      1.0000 0.85870  0.49690  0.37990  Biso   1.000  C
  C30      1.0000 0.14130  0.50310  0.62010  Biso   1.000  C
  H39      1.0000 0.92440  0.44240  0.34670  Biso   1.000  H
  H40      1.0000 0.07560  0.55760  0.65330  Biso   1.000  H
  C31      1.0000 0.83920  0.63030  0.32770  Biso   1.000  C
  C32      1.0000 0.16080  0.36970  0.67230  Biso   1.000  C
  H41      1.0000 0.89270  0.66410  0.25970  Biso   1.000  H
  H42      1.0000 0.10730  0.33590  0.74030  Biso   1.000  H
  C33      1.0000 0.66120  0.66150  0.47690  Biso   1.000  C
  C34      1.0000 0.33880  0.33850  0.52310  Biso   1.000  C
  H43      1.0000 0.59360  0.71580  0.50950  Biso   1.000  H
  H44      1.0000 0.40640  0.28420  0.49050  Biso   1.000  H
  C35      1.0000 0.74100  0.71500  0.37490  Biso   1.000  C
  C36      1.0000 0.25900  0.28500  0.62510  Biso   1.000  C
  C37      1.0000 0.72560  0.85860  0.31720  Biso   1.000  C
  C38      1.0000 0.27440  0.14140  0.68280  Biso   1.000  C
