data_image0
_cell_length_a       13.4837
_cell_length_b       13.7172
_cell_length_c       18.9414
_cell_angle_alpha    90
_cell_angle_beta     87.155
_cell_angle_gamma    90

_symmetry_space_group_name_H-M    "P 1"
_symmetry_int_tables_number       1

loop_
  _symmetry_equiv_pos_as_xyz
  'x, y, z'

loop_
  _atom_site_label
  _atom_site_occupancy
  _atom_site_fract_x
  _atom_site_fract_y
  _atom_site_fract_z
  _atom_site_thermal_displace_type
  _atom_site_B_iso_or_equiv
  _atom_site_type_symbol
  Cu1      1.0000 0.96200  0.40574  0.27089  Biso   1.000  Cu
  Cu2      1.0000 0.03800  0.90574  0.22911  Biso   1.000  Cu
  Cu3      1.0000 0.03800  0.59426  0.72911  Biso   1.000  Cu
  Cu4      1.0000 0.96200  0.09426  0.77089  Biso   1.000  Cu
  Cu5      1.0000 0.96310  0.40994  0.04413  Biso   1.000  Cu
  Cu6      1.0000 0.03690  0.90994  0.45587  Biso   1.000  Cu
  Cu7      1.0000 0.03690  0.59006  0.95587  Biso   1.000  Cu
  Cu8      1.0000 0.96310  0.09006  0.54413  Biso   1.000  Cu
  V1       1.0000 0.97312  0.66650  0.46234  Biso   1.000  V
  V2       1.0000 0.02688  0.16650  0.03766  Biso   1.000  V
  V3       1.0000 0.02688  0.33350  0.53766  Biso   1.000  V
  V4       1.0000 0.97312  0.83350  0.96234  Biso   1.000  V
  P1       1.0000 0.07959  0.47066  0.40272  Biso   1.000  P
  P2       1.0000 0.92041  0.97066  0.09728  Biso   1.000  P
  P3       1.0000 0.92041  0.52934  0.59728  Biso   1.000  P
  P4       1.0000 0.07959  0.02934  0.90272  Biso   1.000  P
  P5       1.0000 0.89353  0.66505  0.07137  Biso   1.000  P
  P6       1.0000 0.10647  0.16505  0.42863  Biso   1.000  P
  P7       1.0000 0.10647  0.33495  0.92863  Biso   1.000  P
  P8       1.0000 0.89353  0.83495  0.57137  Biso   1.000  P
  P9       1.0000 0.10705  0.32566  0.14736  Biso   1.000  P
  P10      1.0000 0.89295  0.82566  0.35264  Biso   1.000  P
  P11      1.0000 0.89295  0.67434  0.85264  Biso   1.000  P
  P12      1.0000 0.10705  0.17434  0.64736  Biso   1.000  P
  O1       1.0000 0.03650  0.39061  0.35699  Biso   1.000  O
  O2       1.0000 0.96350  0.89061  0.14301  Biso   1.000  O
  O3       1.0000 0.96350  0.60939  0.64301  Biso   1.000  O
  O4       1.0000 0.03650  0.10939  0.85699  Biso   1.000  O
  O5       1.0000 0.01902  0.56311  0.39590  Biso   1.000  O
  O6       1.0000 0.98098  0.06311  0.10410  Biso   1.000  O
  O7       1.0000 0.98098  0.43689  0.60410  Biso   1.000  O
  O8       1.0000 0.01902  0.93689  0.89590  Biso   1.000  O
  O9       1.0000 0.08560  0.43671  0.47880  Biso   1.000  O
  O10      1.0000 0.91440  0.93671  0.02120  Biso   1.000  O
  O11      1.0000 0.91440  0.56329  0.52120  Biso   1.000  O
  O12      1.0000 0.08560  0.06329  0.97880  Biso   1.000  O
  O13      1.0000 0.07671  0.70531  0.48750  Biso   1.000  O
  O14      1.0000 0.92329  0.20531  0.01250  Biso   1.000  O
  O15      1.0000 0.92329  0.29469  0.51250  Biso   1.000  O
  O16      1.0000 0.07671  0.79469  0.98750  Biso   1.000  O
  O17      1.0000 0.88019  0.74549  0.01810  Biso   1.000  O
  O18      1.0000 0.11981  0.24549  0.48190  Biso   1.000  O
  O19      1.0000 0.11981  0.25451  0.98190  Biso   1.000  O
  O20      1.0000 0.88019  0.75451  0.51810  Biso   1.000  O
  O21      1.0000 0.94700  0.70510  0.13751  Biso   1.000  O
  O22      1.0000 0.05300  0.20510  0.36249  Biso   1.000  O
  O23      1.0000 0.05300  0.29490  0.86249  Biso   1.000  O
  O24      1.0000 0.94700  0.79490  0.63751  Biso   1.000  O
  O25      1.0000 0.95168  0.57700  0.04360  Biso   1.000  O
  O26      1.0000 0.04832  0.07700  0.45640  Biso   1.000  O
  O27      1.0000 0.04832  0.42300  0.95640  Biso   1.000  O
  O28      1.0000 0.95168  0.92300  0.54360  Biso   1.000  O
  O29      1.0000 0.08040  0.40752  0.09781  Biso   1.000  O
  O30      1.0000 0.91960  0.90752  0.40219  Biso   1.000  O
  O31      1.0000 0.91960  0.59248  0.90219  Biso   1.000  O
  O32      1.0000 0.08040  0.09248  0.59781  Biso   1.000  O
  O33      1.0000 0.07559  0.34620  0.22360  Biso   1.000  O
  O34      1.0000 0.92441  0.84620  0.27640  Biso   1.000  O
  O35      1.0000 0.92441  0.65380  0.77640  Biso   1.000  O
  O36      1.0000 0.07559  0.15380  0.72360  Biso   1.000  O
  O37      1.0000 0.06689  0.22700  0.12400  Biso   1.000  O
  O38      1.0000 0.93311  0.72700  0.37600  Biso   1.000  O
  O39      1.0000 0.93311  0.77300  0.87600  Biso   1.000  O
  O40      1.0000 0.06689  0.27300  0.62400  Biso   1.000  O
  O41      1.0000 0.98422  0.56759  0.25510  Biso   1.000  O
  O42      1.0000 0.01578  0.06759  0.24490  Biso   1.000  O
  O43      1.0000 0.01578  0.43241  0.74490  Biso   1.000  O
  O44      1.0000 0.98422  0.93241  0.75510  Biso   1.000  O
  N1       1.0000 0.82779  0.41011  0.32982  Biso   1.000  N
  N2       1.0000 0.17221  0.91011  0.17018  Biso   1.000  N
  N3       1.0000 0.17221  0.58989  0.67018  Biso   1.000  N
  N4       1.0000 0.82779  0.08989  0.82982  Biso   1.000  N
  N5       1.0000 0.86673  0.39448  0.19550  Biso   1.000  N
  N6       1.0000 0.13327  0.89448  0.30450  Biso   1.000  N
  N7       1.0000 0.13327  0.60552  0.80450  Biso   1.000  N
  N8       1.0000 0.86673  0.10552  0.69550  Biso   1.000  N
  N9       1.0000 0.86858  0.38659  0.12409  Biso   1.000  N
  N10      1.0000 0.13142  0.88659  0.37591  Biso   1.000  N
  N11      1.0000 0.13142  0.61341  0.87591  Biso   1.000  N
  N12      1.0000 0.86858  0.11341  0.62409  Biso   1.000  N
  N13      1.0000 0.83699  0.39078  0.99071  Biso   1.000  N
  N14      1.0000 0.16301  0.89078  0.50929  Biso   1.000  N
  N15      1.0000 0.16301  0.60922  0.00929  Biso   1.000  N
  N16      1.0000 0.83699  0.10922  0.49071  Biso   1.000  N
  N17      1.0000 0.70997  0.36988  0.16353  Biso   1.000  N
  N18      1.0000 0.29003  0.86988  0.33647  Biso   1.000  N
  N19      1.0000 0.29003  0.63012  0.83647  Biso   1.000  N
  N20      1.0000 0.70997  0.13012  0.66353  Biso   1.000  N
  C1       1.0000 0.81378  0.42388  0.39969  Biso   1.000  C
  C2       1.0000 0.18622  0.92388  0.10031  Biso   1.000  C
  C3       1.0000 0.18622  0.57612  0.60031  Biso   1.000  C
  C4       1.0000 0.81378  0.07612  0.89969  Biso   1.000  C
  H1       1.0000 0.86930  0.43250  0.42620  Biso   1.000  H
  H2       1.0000 0.13070  0.93250  0.07380  Biso   1.000  H
  H3       1.0000 0.13070  0.56750  0.57380  Biso   1.000  H
  H4       1.0000 0.86930  0.06750  0.92620  Biso   1.000  H
  C5       1.0000 0.72145  0.42599  0.43430  Biso   1.000  C
  C6       1.0000 0.27855  0.92599  0.06570  Biso   1.000  C
  C7       1.0000 0.27855  0.57401  0.56570  Biso   1.000  C
  C8       1.0000 0.72145  0.07401  0.93430  Biso   1.000  C
  H5       1.0000 0.71460  0.43680  0.48280  Biso   1.000  H
  H6       1.0000 0.28540  0.93680  0.01720  Biso   1.000  H
  H7       1.0000 0.28540  0.56320  0.51720  Biso   1.000  H
  H8       1.0000 0.71460  0.06320  0.98280  Biso   1.000  H
  C9       1.0000 0.63929  0.41145  0.39459  Biso   1.000  C
  C10      1.0000 0.36071  0.91145  0.10541  Biso   1.000  C
  C11      1.0000 0.36071  0.58855  0.60541  Biso   1.000  C
  C12      1.0000 0.63929  0.08855  0.89459  Biso   1.000  C
  H9       1.0000 0.57590  0.41330  0.41620  Biso   1.000  H
  H10      1.0000 0.42410  0.91330  0.08380  Biso   1.000  H
  H11      1.0000 0.42410  0.58670  0.58380  Biso   1.000  H
  H12      1.0000 0.57590  0.08670  0.91620  Biso   1.000  H
  C13      1.0000 0.65158  0.39414  0.32273  Biso   1.000  C
  C14      1.0000 0.34842  0.89414  0.17727  Biso   1.000  C
  C15      1.0000 0.34842  0.60586  0.67727  Biso   1.000  C
  C16      1.0000 0.65158  0.10586  0.82273  Biso   1.000  C
  H13      1.0000 0.59730  0.38210  0.29560  Biso   1.000  H
  H14      1.0000 0.40270  0.88210  0.20440  Biso   1.000  H
  H15      1.0000 0.40270  0.61790  0.70440  Biso   1.000  H
  H16      1.0000 0.59730  0.11790  0.79560  Biso   1.000  H
  C17      1.0000 0.74679  0.39530  0.29240  Biso   1.000  C
  C18      1.0000 0.25321  0.89530  0.20760  Biso   1.000  C
  C19      1.0000 0.25321  0.60470  0.70760  Biso   1.000  C
  C20      1.0000 0.74679  0.10470  0.79240  Biso   1.000  C
  C21      1.0000 0.77078  0.38330  0.21647  Biso   1.000  C
  C22      1.0000 0.22922  0.88330  0.28353  Biso   1.000  C
  C23      1.0000 0.22922  0.61670  0.78353  Biso   1.000  C
  C24      1.0000 0.77078  0.11670  0.71647  Biso   1.000  C
  C25      1.0000 0.77470  0.37248  0.10761  Biso   1.000  C
  C26      1.0000 0.22530  0.87248  0.39239  Biso   1.000  C
  C27      1.0000 0.22530  0.62752  0.89239  Biso   1.000  C
  C28      1.0000 0.77470  0.12752  0.60761  Biso   1.000  C
  C29      1.0000 0.75566  0.36780  0.03249  Biso   1.000  C
  C30      1.0000 0.24434  0.86780  0.46751  Biso   1.000  C
  C31      1.0000 0.24434  0.63220  0.96751  Biso   1.000  C
  C32      1.0000 0.75566  0.13220  0.53249  Biso   1.000  C
  C33      1.0000 0.66701  0.34285  0.00449  Biso   1.000  C
  C34      1.0000 0.33299  0.84285  0.49551  Biso   1.000  C
  C35      1.0000 0.33299  0.65715  0.99551  Biso   1.000  C
  C36      1.0000 0.66701  0.15715  0.50449  Biso   1.000  C
  H17      1.0000 0.61220  0.32750  0.03410  Biso   1.000  H
  H18      1.0000 0.38780  0.82750  0.46590  Biso   1.000  H
  H19      1.0000 0.38780  0.67250  0.96590  Biso   1.000  H
  H20      1.0000 0.61220  0.17250  0.53410  Biso   1.000  H
  C37      1.0000 0.65991  0.34079  0.93228  Biso   1.000  C
  C38      1.0000 0.34009  0.84079  0.56772  Biso   1.000  C
  C39      1.0000 0.34009  0.65921  0.06772  Biso   1.000  C
  C40      1.0000 0.65991  0.15921  0.43228  Biso   1.000  C
  H21      1.0000 0.60090  0.32270  0.91250  Biso   1.000  H
  H22      1.0000 0.39910  0.82270  0.58750  Biso   1.000  H
  H23      1.0000 0.39910  0.67730  0.08750  Biso   1.000  H
  H24      1.0000 0.60090  0.17730  0.41250  Biso   1.000  H
  C41      1.0000 0.74212  0.36609  0.88982  Biso   1.000  C
  C42      1.0000 0.25788  0.86609  0.61018  Biso   1.000  C
  C43      1.0000 0.25788  0.63391  0.11018  Biso   1.000  C
  C44      1.0000 0.74212  0.13391  0.38982  Biso   1.000  C
  H25      1.0000 0.73860  0.36680  0.84090  Biso   1.000  H
  H26      1.0000 0.26140  0.86680  0.65910  Biso   1.000  H
  H27      1.0000 0.26140  0.63320  0.15910  Biso   1.000  H
  H28      1.0000 0.73860  0.13320  0.34090  Biso   1.000  H
  C45      1.0000 0.82915  0.39018  0.92030  Biso   1.000  C
  C46      1.0000 0.17085  0.89018  0.57970  Biso   1.000  C
  C47      1.0000 0.17085  0.60982  0.07970  Biso   1.000  C
  C48      1.0000 0.82915  0.10982  0.42030  Biso   1.000  C
  H29      1.0000 0.88430  0.40660  0.89130  Biso   1.000  H
  H30      1.0000 0.11570  0.90660  0.60870  Biso   1.000  H
  H31      1.0000 0.11570  0.59340  0.10870  Biso   1.000  H
  H32      1.0000 0.88430  0.09340  0.39130  Biso   1.000  H
  C49      1.0000 0.20460  0.49760  0.37390  Biso   1.000  C
  C50      1.0000 0.79540  0.99760  0.12610  Biso   1.000  C
  C51      1.0000 0.79540  0.50240  0.62610  Biso   1.000  C
  C52      1.0000 0.20460  0.00240  0.87390  Biso   1.000  C
  C53      1.0000 0.23549  0.58869  0.34901  Biso   1.000  C
  C54      1.0000 0.76451  0.08869  0.15099  Biso   1.000  C
  C55      1.0000 0.76451  0.41131  0.65099  Biso   1.000  C
  C56      1.0000 0.23549  0.91131  0.84901  Biso   1.000  C
  H33      1.0000 0.18850  0.63750  0.34410  Biso   1.000  H
  H34      1.0000 0.81150  0.13750  0.15590  Biso   1.000  H
  H35      1.0000 0.81150  0.36250  0.65590  Biso   1.000  H
  H36      1.0000 0.18850  0.86250  0.84410  Biso   1.000  H
  C57      1.0000 0.33383  0.60853  0.33150  Biso   1.000  C
  C58      1.0000 0.66617  0.10853  0.16850  Biso   1.000  C
  C59      1.0000 0.66617  0.39147  0.66850  Biso   1.000  C
  C60      1.0000 0.33383  0.89147  0.83150  Biso   1.000  C
  H37      1.0000 0.35320  0.67050  0.31650  Biso   1.000  H
  H38      1.0000 0.64680  0.17050  0.18350  Biso   1.000  H
  H39      1.0000 0.64680  0.32950  0.68350  Biso   1.000  H
  H40      1.0000 0.35320  0.82950  0.81650  Biso   1.000  H
  C61      1.0000 0.40252  0.53609  0.33650  Biso   1.000  C
  C62      1.0000 0.59748  0.03609  0.16350  Biso   1.000  C
  C63      1.0000 0.59748  0.46391  0.66350  Biso   1.000  C
  C64      1.0000 0.40252  0.96391  0.83650  Biso   1.000  C
  H41      1.0000 0.46880  0.54870  0.32400  Biso   1.000  H
  H42      1.0000 0.53120  0.04870  0.17600  Biso   1.000  H
  H43      1.0000 0.53120  0.45130  0.67600  Biso   1.000  H
  H44      1.0000 0.46880  0.95130  0.82400  Biso   1.000  H
  C65      1.0000 0.37456  0.44370  0.36006  Biso   1.000  C
  C66      1.0000 0.62544  0.94370  0.13994  Biso   1.000  C
  C67      1.0000 0.62544  0.55630  0.63994  Biso   1.000  C
  C68      1.0000 0.37456  0.05630  0.86006  Biso   1.000  C
  H45      1.0000 0.42180  0.39470  0.36330  Biso   1.000  H
  H46      1.0000 0.57820  0.89470  0.13670  Biso   1.000  H
  H47      1.0000 0.57820  0.60530  0.63670  Biso   1.000  H
  H48      1.0000 0.42180  0.10530  0.86330  Biso   1.000  H
  C69      1.0000 0.27737  0.42543  0.37830  Biso   1.000  C
  C70      1.0000 0.72263  0.92543  0.12170  Biso   1.000  C
  C71      1.0000 0.72263  0.57457  0.62170  Biso   1.000  C
  C72      1.0000 0.27737  0.07457  0.87830  Biso   1.000  C
  H49      1.0000 0.25890  0.36350  0.39410  Biso   1.000  H
  H50      1.0000 0.74110  0.86350  0.10590  Biso   1.000  H
  H51      1.0000 0.74110  0.63650  0.60590  Biso   1.000  H
  H52      1.0000 0.25890  0.13650  0.89410  Biso   1.000  H
  C73      1.0000 0.77141  0.63120  0.10408  Biso   1.000  C
  C74      1.0000 0.22859  0.13120  0.39592  Biso   1.000  C
  C75      1.0000 0.22859  0.36880  0.89592  Biso   1.000  C
  C76      1.0000 0.77141  0.86880  0.60408  Biso   1.000  C
  C77      1.0000 0.74210  0.64370  0.17578  Biso   1.000  C
  C78      1.0000 0.25790  0.14370  0.32422  Biso   1.000  C
  C79      1.0000 0.25790  0.35630  0.82422  Biso   1.000  C
  C80      1.0000 0.74210  0.85630  0.67578  Biso   1.000  C
  H53      1.0000 0.78780  0.66470  0.20770  Biso   1.000  H
  H54      1.0000 0.21220  0.16470  0.29230  Biso   1.000  H
  H55      1.0000 0.21220  0.33530  0.79230  Biso   1.000  H
  H56      1.0000 0.78780  0.83530  0.70770  Biso   1.000  H
  C81      1.0000 0.64577  0.62482  0.19857  Biso   1.000  C
  C82      1.0000 0.35423  0.12482  0.30143  Biso   1.000  C
  C83      1.0000 0.35423  0.37518  0.80143  Biso   1.000  C
  C84      1.0000 0.64577  0.87518  0.69857  Biso   1.000  C
  H57      1.0000 0.62640  0.63370  0.24600  Biso   1.000  H
  H58      1.0000 0.37360  0.13370  0.25400  Biso   1.000  H
  H59      1.0000 0.37360  0.36630  0.75400  Biso   1.000  H
  H60      1.0000 0.62640  0.86630  0.74600  Biso   1.000  H
  C85      1.0000 0.57741  0.59290  0.15204  Biso   1.000  C
  C86      1.0000 0.42259  0.09290  0.34796  Biso   1.000  C
  C87      1.0000 0.42259  0.40710  0.84796  Biso   1.000  C
  C88      1.0000 0.57741  0.90710  0.65204  Biso   1.000  C
  H61      1.0000 0.51250  0.57990  0.16810  Biso   1.000  H
  H62      1.0000 0.48750  0.07990  0.33190  Biso   1.000  H
  H63      1.0000 0.48750  0.42010  0.83190  Biso   1.000  H
  H64      1.0000 0.51250  0.92010  0.66810  Biso   1.000  H
  C89      1.0000 0.60541  0.58020  0.08151  Biso   1.000  C
  C90      1.0000 0.39459  0.08020  0.41849  Biso   1.000  C
  C91      1.0000 0.39459  0.41980  0.91849  Biso   1.000  C
  C92      1.0000 0.60541  0.91980  0.58151  Biso   1.000  C
  H65      1.0000 0.55940  0.55800  0.05020  Biso   1.000  H
  H66      1.0000 0.44060  0.05800  0.44980  Biso   1.000  H
  H67      1.0000 0.44060  0.44200  0.94980  Biso   1.000  H
  H68      1.0000 0.55940  0.94200  0.55020  Biso   1.000  H
  C93      1.0000 0.70298  0.60068  0.05709  Biso   1.000  C
  C94      1.0000 0.29702  0.10068  0.44291  Biso   1.000  C
  C95      1.0000 0.29702  0.39932  0.94291  Biso   1.000  C
  C96      1.0000 0.70298  0.89932  0.55709  Biso   1.000  C
  H69      1.0000 0.72150  0.59370  0.00940  Biso   1.000  H
  H70      1.0000 0.27850  0.09370  0.49060  Biso   1.000  H
  H71      1.0000 0.27850  0.40630  0.99060  Biso   1.000  H
  H72      1.0000 0.72150  0.90630  0.50940  Biso   1.000  H
  C97      1.0000 0.24080  0.31399  0.14560  Biso   1.000  C
  C98      1.0000 0.75920  0.81399  0.35440  Biso   1.000  C
  C99      1.0000 0.75920  0.68601  0.85440  Biso   1.000  C
  C100     1.0000 0.24080  0.18601  0.64560  Biso   1.000  C
  C101     1.0000 0.29650  0.37792  0.18265  Biso   1.000  C
  C102     1.0000 0.70350  0.87792  0.31735  Biso   1.000  C
  C103     1.0000 0.70350  0.62208  0.81735  Biso   1.000  C
  C104     1.0000 0.29650  0.12208  0.68265  Biso   1.000  C
  H73      1.0000 0.26490  0.42700  0.20920  Biso   1.000  H
  H74      1.0000 0.73510  0.92700  0.29080  Biso   1.000  H
  H75      1.0000 0.73510  0.57300  0.79080  Biso   1.000  H
  H76      1.0000 0.26490  0.07300  0.70920  Biso   1.000  H
  C105     1.0000 0.39990  0.37069  0.18130  Biso   1.000  C
  C106     1.0000 0.60010  0.87069  0.31870  Biso   1.000  C
  C107     1.0000 0.60010  0.62931  0.81870  Biso   1.000  C
  C108     1.0000 0.39990  0.12931  0.68130  Biso   1.000  C
  H77      1.0000 0.43660  0.41380  0.20750  Biso   1.000  H
  H78      1.0000 0.56340  0.91380  0.29250  Biso   1.000  H
  H79      1.0000 0.56340  0.58620  0.79250  Biso   1.000  H
  H80      1.0000 0.43660  0.08620  0.70750  Biso   1.000  H
  C109     1.0000 0.44715  0.29970  0.14120  Biso   1.000  C
  C110     1.0000 0.55285  0.79970  0.35880  Biso   1.000  C
  C111     1.0000 0.55285  0.70030  0.85880  Biso   1.000  C
  C112     1.0000 0.44715  0.20030  0.64120  Biso   1.000  C
  H81      1.0000 0.51610  0.29560  0.13920  Biso   1.000  H
  H82      1.0000 0.48390  0.79560  0.36080  Biso   1.000  H
  H83      1.0000 0.48390  0.70440  0.86080  Biso   1.000  H
  H84      1.0000 0.51610  0.20440  0.63920  Biso   1.000  H
  C113     1.0000 0.39294  0.23532  0.10444  Biso   1.000  C
  C114     1.0000 0.60706  0.73532  0.39556  Biso   1.000  C
  C115     1.0000 0.60706  0.76468  0.89556  Biso   1.000  C
  C116     1.0000 0.39294  0.26468  0.60444  Biso   1.000  C
  H85      1.0000 0.42490  0.18610  0.07830  Biso   1.000  H
  H86      1.0000 0.57510  0.68610  0.42170  Biso   1.000  H
  H87      1.0000 0.57510  0.81390  0.92170  Biso   1.000  H
  H88      1.0000 0.42490  0.31390  0.57830  Biso   1.000  H
  C117     1.0000 0.28955  0.24277  0.10579  Biso   1.000  C
  C118     1.0000 0.71045  0.74277  0.39421  Biso   1.000  C
  C119     1.0000 0.71045  0.75723  0.89421  Biso   1.000  C
  C120     1.0000 0.28955  0.25723  0.60579  Biso   1.000  C
  H89      1.0000 0.25320  0.19930  0.07960  Biso   1.000  H
  H90      1.0000 0.74680  0.69930  0.42040  Biso   1.000  H
  H91      1.0000 0.74680  0.80070  0.92040  Biso   1.000  H
  H92      1.0000 0.25320  0.30070  0.57960  Biso   1.000  H
