data_image0
_cell_length_a       17.2481
_cell_length_b       26.2681
_cell_length_c       11.0818
_cell_angle_alpha    90
_cell_angle_beta     90
_cell_angle_gamma    90

_symmetry_space_group_name_H-M    "P 1"
_symmetry_int_tables_number       1

loop_
  _symmetry_equiv_pos_as_xyz
  'x, y, z'

loop_
  _atom_site_label
  _atom_site_occupancy
  _atom_site_fract_x
  _atom_site_fract_y
  _atom_site_fract_z
  _atom_site_thermal_displace_type
  _atom_site_B_iso_or_equiv
  _atom_site_type_symbol
  Cu1      1.0000 0.50000  0.00000  0.99461  Biso   1.000  Cu
  Cu2      1.0000 0.75000  0.25000  0.24461  Biso   1.000  Cu
  Cu3      1.0000 0.50000  0.50000  0.49461  Biso   1.000  Cu
  Cu4      1.0000 0.75000  0.75000  0.74461  Biso   1.000  Cu
  Cu5      1.0000 0.00000  0.00000  0.49461  Biso   1.000  Cu
  Cu6      1.0000 0.25000  0.25000  0.74461  Biso   1.000  Cu
  Cu7      1.0000 0.00000  0.50000  0.99461  Biso   1.000  Cu
  Cu8      1.0000 0.25000  0.75000  0.24461  Biso   1.000  Cu
  V1       1.0000 0.27148  0.11271  0.78421  Biso   1.000  V
  V2       1.0000 0.72852  0.88729  0.78421  Biso   1.000  V
  V3       1.0000 0.52148  0.13729  0.03421  Biso   1.000  V
  V4       1.0000 0.97852  0.36271  0.03421  Biso   1.000  V
  V5       1.0000 0.27148  0.61271  0.28421  Biso   1.000  V
  V6       1.0000 0.72852  0.38729  0.28421  Biso   1.000  V
  V7       1.0000 0.52148  0.63729  0.53421  Biso   1.000  V
  V8       1.0000 0.97852  0.86271  0.53421  Biso   1.000  V
  V9       1.0000 0.77148  0.11271  0.28421  Biso   1.000  V
  V10      1.0000 0.22852  0.88729  0.28421  Biso   1.000  V
  V11      1.0000 0.02148  0.13729  0.53421  Biso   1.000  V
  V12      1.0000 0.47852  0.36271  0.53421  Biso   1.000  V
  V13      1.0000 0.77148  0.61271  0.78421  Biso   1.000  V
  V14      1.0000 0.22852  0.38729  0.78421  Biso   1.000  V
  V15      1.0000 0.02148  0.63729  0.03421  Biso   1.000  V
  V16      1.0000 0.47852  0.86271  0.03421  Biso   1.000  V
  P1       1.0000 0.35919  0.08060  0.02815  Biso   1.000  P
  P2       1.0000 0.64081  0.91940  0.02815  Biso   1.000  P
  P3       1.0000 0.60919  0.16940  0.27815  Biso   1.000  P
  P4       1.0000 0.89081  0.33060  0.27815  Biso   1.000  P
  P5       1.0000 0.35919  0.58060  0.52815  Biso   1.000  P
  P6       1.0000 0.64081  0.41940  0.52815  Biso   1.000  P
  P7       1.0000 0.60919  0.66940  0.77815  Biso   1.000  P
  P8       1.0000 0.89081  0.83060  0.77815  Biso   1.000  P
  P9       1.0000 0.85919  0.08060  0.52815  Biso   1.000  P
  P10      1.0000 0.14081  0.91940  0.52815  Biso   1.000  P
  P11      1.0000 0.10919  0.16940  0.77815  Biso   1.000  P
  P12      1.0000 0.39081  0.33060  0.77815  Biso   1.000  P
  P13      1.0000 0.85919  0.58060  0.02815  Biso   1.000  P
  P14      1.0000 0.14081  0.41940  0.02815  Biso   1.000  P
  P15      1.0000 0.10919  0.66940  0.27815  Biso   1.000  P
  P16      1.0000 0.39081  0.83060  0.27815  Biso   1.000  P
  O1       1.0000 0.39812  0.03203  0.99164  Biso   1.000  O
  O2       1.0000 0.60188  0.96797  0.99164  Biso   1.000  O
  O3       1.0000 0.64812  0.21797  0.24164  Biso   1.000  O
  O4       1.0000 0.85188  0.28203  0.24164  Biso   1.000  O
  O5       1.0000 0.39812  0.53203  0.49164  Biso   1.000  O
  O6       1.0000 0.60188  0.46797  0.49164  Biso   1.000  O
  O7       1.0000 0.64812  0.71797  0.74164  Biso   1.000  O
  O8       1.0000 0.85188  0.78203  0.74164  Biso   1.000  O
  O9       1.0000 0.89812  0.03203  0.49164  Biso   1.000  O
  O10      1.0000 0.10188  0.96797  0.49164  Biso   1.000  O
  O11      1.0000 0.14812  0.21797  0.74164  Biso   1.000  O
  O12      1.0000 0.35188  0.28203  0.74164  Biso   1.000  O
  O13      1.0000 0.89812  0.53203  0.99164  Biso   1.000  O
  O14      1.0000 0.10188  0.46797  0.99164  Biso   1.000  O
  O15      1.0000 0.14812  0.71797  0.24164  Biso   1.000  O
  O16      1.0000 0.35188  0.78203  0.24164  Biso   1.000  O
  O17      1.0000 0.29144  0.09354  0.94328  Biso   1.000  O
  O18      1.0000 0.70856  0.90646  0.94328  Biso   1.000  O
  O19      1.0000 0.54144  0.15646  0.19328  Biso   1.000  O
  O20      1.0000 0.95856  0.34354  0.19328  Biso   1.000  O
  O21      1.0000 0.29144  0.59354  0.44328  Biso   1.000  O
  O22      1.0000 0.70856  0.40646  0.44328  Biso   1.000  O
  O23      1.0000 0.54144  0.65646  0.69328  Biso   1.000  O
  O24      1.0000 0.95856  0.84354  0.69328  Biso   1.000  O
  O25      1.0000 0.79144  0.09354  0.44328  Biso   1.000  O
  O26      1.0000 0.20856  0.90646  0.44328  Biso   1.000  O
  O27      1.0000 0.04144  0.15646  0.69328  Biso   1.000  O
  O28      1.0000 0.45856  0.34354  0.69328  Biso   1.000  O
  O29      1.0000 0.79144  0.59354  0.94328  Biso   1.000  O
  O30      1.0000 0.20856  0.40646  0.94328  Biso   1.000  O
  O31      1.0000 0.04144  0.65646  0.19328  Biso   1.000  O
  O32      1.0000 0.45856  0.84354  0.19328  Biso   1.000  O
  O33      1.0000 0.41481  0.12695  0.02868  Biso   1.000  O
  O34      1.0000 0.58519  0.87305  0.02868  Biso   1.000  O
  O35      1.0000 0.66481  0.12305  0.27868  Biso   1.000  O
  O36      1.0000 0.83519  0.37695  0.27868  Biso   1.000  O
  O37      1.0000 0.41481  0.62695  0.52868  Biso   1.000  O
  O38      1.0000 0.58519  0.37305  0.52868  Biso   1.000  O
  O39      1.0000 0.66481  0.62305  0.77868  Biso   1.000  O
  O40      1.0000 0.83519  0.87695  0.77868  Biso   1.000  O
  O41      1.0000 0.91481  0.12695  0.52868  Biso   1.000  O
  O42      1.0000 0.08519  0.87305  0.52868  Biso   1.000  O
  O43      1.0000 0.16481  0.12305  0.77868  Biso   1.000  O
  O44      1.0000 0.33519  0.37695  0.77868  Biso   1.000  O
  O45      1.0000 0.91481  0.62695  0.02868  Biso   1.000  O
  O46      1.0000 0.08519  0.37305  0.02868  Biso   1.000  O
  O47      1.0000 0.16481  0.62305  0.27868  Biso   1.000  O
  O48      1.0000 0.33519  0.87695  0.27868  Biso   1.000  O
  O49      1.0000 0.56370  0.08384  0.99988  Biso   1.000  O
  O50      1.0000 0.43630  0.91616  0.99988  Biso   1.000  O
  O51      1.0000 0.81370  0.16616  0.24988  Biso   1.000  O
  O52      1.0000 0.68630  0.33384  0.24988  Biso   1.000  O
  O53      1.0000 0.56370  0.58384  0.49988  Biso   1.000  O
  O54      1.0000 0.43630  0.41616  0.49988  Biso   1.000  O
  O55      1.0000 0.81370  0.66616  0.74988  Biso   1.000  O
  O56      1.0000 0.68630  0.83384  0.74988  Biso   1.000  O
  O57      1.0000 0.06370  0.08384  0.49988  Biso   1.000  O
  O58      1.0000 0.93630  0.91616  0.49988  Biso   1.000  O
  O59      1.0000 0.31370  0.16616  0.74988  Biso   1.000  O
  O60      1.0000 0.18630  0.33384  0.74988  Biso   1.000  O
  O61      1.0000 0.06370  0.58384  0.99988  Biso   1.000  O
  O62      1.0000 0.93630  0.41616  0.99988  Biso   1.000  O
  O63      1.0000 0.31370  0.66616  0.24988  Biso   1.000  O
  O64      1.0000 0.18630  0.83384  0.24988  Biso   1.000  O
  O65      1.0000 0.29862  0.07034  0.68854  Biso   1.000  O
  O66      1.0000 0.70138  0.92966  0.68854  Biso   1.000  O
  O67      1.0000 0.54862  0.17966  0.93854  Biso   1.000  O
  O68      1.0000 0.95138  0.32034  0.93854  Biso   1.000  O
  O69      1.0000 0.29862  0.57034  0.18854  Biso   1.000  O
  O70      1.0000 0.70138  0.42966  0.18854  Biso   1.000  O
  O71      1.0000 0.54862  0.67966  0.43854  Biso   1.000  O
  O72      1.0000 0.95138  0.82034  0.43854  Biso   1.000  O
  O73      1.0000 0.79862  0.07034  0.18854  Biso   1.000  O
  O74      1.0000 0.20138  0.92966  0.18854  Biso   1.000  O
  O75      1.0000 0.04862  0.17966  0.43854  Biso   1.000  O
  O76      1.0000 0.45138  0.32034  0.43854  Biso   1.000  O
  O77      1.0000 0.79862  0.57034  0.68854  Biso   1.000  O
  O78      1.0000 0.20138  0.42966  0.68854  Biso   1.000  O
  O79      1.0000 0.04862  0.67966  0.93854  Biso   1.000  O
  O80      1.0000 0.45138  0.82034  0.93854  Biso   1.000  O
  N1       1.0000 0.50000  0.00000  0.17660  Biso   1.000  N
  N2       1.0000 0.75000  0.25000  0.42660  Biso   1.000  N
  N3       1.0000 0.50000  0.50000  0.67660  Biso   1.000  N
  N4       1.0000 0.75000  0.75000  0.92660  Biso   1.000  N
  N5       1.0000 0.00000  0.00000  0.67660  Biso   1.000  N
  N6       1.0000 0.25000  0.25000  0.92660  Biso   1.000  N
  N7       1.0000 0.00000  0.50000  0.17660  Biso   1.000  N
  N8       1.0000 0.25000  0.75000  0.42660  Biso   1.000  N
  N9       1.0000 0.50000  0.00000  0.81330  Biso   1.000  N
  N10      1.0000 0.75000  0.25000  0.06330  Biso   1.000  N
  N11      1.0000 0.50000  0.50000  0.31330  Biso   1.000  N
  N12      1.0000 0.75000  0.75000  0.56330  Biso   1.000  N
  N13      1.0000 0.00000  0.00000  0.31330  Biso   1.000  N
  N14      1.0000 0.25000  0.25000  0.56330  Biso   1.000  N
  N15      1.0000 0.00000  0.50000  0.81330  Biso   1.000  N
  N16      1.0000 0.25000  0.75000  0.06330  Biso   1.000  N
  C1       1.0000 0.55609  0.02430  0.23840  Biso   1.000  C
  C2       1.0000 0.44391  0.97570  0.23840  Biso   1.000  C
  C3       1.0000 0.80609  0.22570  0.48840  Biso   1.000  C
  C4       1.0000 0.69391  0.27430  0.48840  Biso   1.000  C
  C5       1.0000 0.55609  0.52430  0.73840  Biso   1.000  C
  C6       1.0000 0.44391  0.47570  0.73840  Biso   1.000  C
  C7       1.0000 0.80609  0.72570  0.98840  Biso   1.000  C
  C8       1.0000 0.69391  0.77430  0.98840  Biso   1.000  C
  C9       1.0000 0.05609  0.02430  0.73840  Biso   1.000  C
  C10      1.0000 0.94391  0.97570  0.73840  Biso   1.000  C
  C11      1.0000 0.30609  0.22570  0.98840  Biso   1.000  C
  C12      1.0000 0.19391  0.27430  0.98840  Biso   1.000  C
  C13      1.0000 0.05609  0.52430  0.23840  Biso   1.000  C
  C14      1.0000 0.94391  0.47570  0.23840  Biso   1.000  C
  C15      1.0000 0.30609  0.72570  0.48840  Biso   1.000  C
  C16      1.0000 0.19391  0.77430  0.48840  Biso   1.000  C
  H1       1.0000 0.59640  0.04080  0.19490  Biso   1.000  H
  H2       1.0000 0.40360  0.95920  0.19490  Biso   1.000  H
  H3       1.0000 0.84640  0.20920  0.44490  Biso   1.000  H
  H4       1.0000 0.65360  0.29080  0.44490  Biso   1.000  H
  H5       1.0000 0.59640  0.54080  0.69490  Biso   1.000  H
  H6       1.0000 0.40360  0.45920  0.69490  Biso   1.000  H
  H7       1.0000 0.84640  0.70920  0.94490  Biso   1.000  H
  H8       1.0000 0.65360  0.79080  0.94490  Biso   1.000  H
  H9       1.0000 0.09640  0.04080  0.69490  Biso   1.000  H
  H10      1.0000 0.90360  0.95920  0.69490  Biso   1.000  H
  H11      1.0000 0.34640  0.20920  0.94490  Biso   1.000  H
  H12      1.0000 0.15360  0.29080  0.94490  Biso   1.000  H
  H13      1.0000 0.09640  0.54080  0.19490  Biso   1.000  H
  H14      1.0000 0.90360  0.45920  0.19490  Biso   1.000  H
  H15      1.0000 0.34640  0.70920  0.44490  Biso   1.000  H
  H16      1.0000 0.15360  0.79080  0.44490  Biso   1.000  H
  C17      1.0000 0.55697  0.02601  0.36300  Biso   1.000  C
  C18      1.0000 0.44303  0.97399  0.36300  Biso   1.000  C
  C19      1.0000 0.80697  0.22399  0.61300  Biso   1.000  C
  C20      1.0000 0.69303  0.27601  0.61300  Biso   1.000  C
  C21      1.0000 0.55697  0.52601  0.86300  Biso   1.000  C
  C22      1.0000 0.44303  0.47399  0.86300  Biso   1.000  C
  C23      1.0000 0.80697  0.72399  0.11300  Biso   1.000  C
  C24      1.0000 0.69303  0.77601  0.11300  Biso   1.000  C
  C25      1.0000 0.05697  0.02601  0.86300  Biso   1.000  C
  C26      1.0000 0.94303  0.97399  0.86300  Biso   1.000  C
  C27      1.0000 0.30697  0.22399  0.11300  Biso   1.000  C
  C28      1.0000 0.19303  0.27601  0.11300  Biso   1.000  C
  C29      1.0000 0.05697  0.52601  0.36300  Biso   1.000  C
  C30      1.0000 0.94303  0.47399  0.36300  Biso   1.000  C
  C31      1.0000 0.30697  0.72399  0.61300  Biso   1.000  C
  C32      1.0000 0.19303  0.77601  0.61300  Biso   1.000  C
  H17      1.0000 0.59600  0.04470  0.40420  Biso   1.000  H
  H18      1.0000 0.40400  0.95530  0.40420  Biso   1.000  H
  H19      1.0000 0.84600  0.20530  0.65420  Biso   1.000  H
  H20      1.0000 0.65400  0.29470  0.65420  Biso   1.000  H
  H21      1.0000 0.59600  0.54470  0.90420  Biso   1.000  H
  H22      1.0000 0.40400  0.45530  0.90420  Biso   1.000  H
  H23      1.0000 0.84600  0.70530  0.15420  Biso   1.000  H
  H24      1.0000 0.65400  0.79470  0.15420  Biso   1.000  H
  H25      1.0000 0.09600  0.04470  0.90420  Biso   1.000  H
  H26      1.0000 0.90400  0.95530  0.90420  Biso   1.000  H
  H27      1.0000 0.34600  0.20530  0.15420  Biso   1.000  H
  H28      1.0000 0.15400  0.29470  0.15420  Biso   1.000  H
  H29      1.0000 0.09600  0.54470  0.40420  Biso   1.000  H
  H30      1.0000 0.90400  0.45530  0.40420  Biso   1.000  H
  H31      1.0000 0.34600  0.70530  0.65420  Biso   1.000  H
  H32      1.0000 0.15400  0.79470  0.65420  Biso   1.000  H
  C33      1.0000 0.50000  0.00000  0.42770  Biso   1.000  C
  C34      1.0000 0.75000  0.25000  0.67770  Biso   1.000  C
  C35      1.0000 0.50000  0.50000  0.92770  Biso   1.000  C
  C36      1.0000 0.75000  0.75000  0.17770  Biso   1.000  C
  C37      1.0000 0.00000  0.00000  0.92770  Biso   1.000  C
  C38      1.0000 0.25000  0.25000  0.17770  Biso   1.000  C
  C39      1.0000 0.00000  0.50000  0.42770  Biso   1.000  C
  C40      1.0000 0.25000  0.75000  0.67770  Biso   1.000  C
  C41      1.0000 0.50000  0.00000  0.56130  Biso   1.000  C
  C42      1.0000 0.75000  0.25000  0.81130  Biso   1.000  C
  C43      1.0000 0.50000  0.50000  0.06130  Biso   1.000  C
  C44      1.0000 0.75000  0.75000  0.31130  Biso   1.000  C
  C45      1.0000 0.00000  0.00000  0.06130  Biso   1.000  C
  C46      1.0000 0.25000  0.25000  0.31130  Biso   1.000  C
  C47      1.0000 0.00000  0.50000  0.56130  Biso   1.000  C
  C48      1.0000 0.25000  0.75000  0.81130  Biso   1.000  C
  C49      1.0000 0.49381  0.04530  0.62570  Biso   1.000  C
  C50      1.0000 0.50619  0.95470  0.62570  Biso   1.000  C
  C51      1.0000 0.74381  0.20470  0.87570  Biso   1.000  C
  C52      1.0000 0.75619  0.29530  0.87570  Biso   1.000  C
  C53      1.0000 0.49381  0.54530  0.12570  Biso   1.000  C
  C54      1.0000 0.50619  0.45470  0.12570  Biso   1.000  C
  C55      1.0000 0.74381  0.70470  0.37570  Biso   1.000  C
  C56      1.0000 0.75619  0.79530  0.37570  Biso   1.000  C
  C57      1.0000 0.99381  0.04530  0.12570  Biso   1.000  C
  C58      1.0000 0.00619  0.95470  0.12570  Biso   1.000  C
  C59      1.0000 0.24381  0.20470  0.37570  Biso   1.000  C
  C60      1.0000 0.25619  0.29530  0.37570  Biso   1.000  C
  C61      1.0000 0.99381  0.54530  0.62570  Biso   1.000  C
  C62      1.0000 0.00619  0.45470  0.62570  Biso   1.000  C
  C63      1.0000 0.24381  0.70470  0.87570  Biso   1.000  C
  C64      1.0000 0.25619  0.79530  0.87570  Biso   1.000  C
  H33      1.0000 0.49000  0.07690  0.58460  Biso   1.000  H
  H34      1.0000 0.51000  0.92310  0.58460  Biso   1.000  H
  H35      1.0000 0.74000  0.17310  0.83460  Biso   1.000  H
  H36      1.0000 0.76000  0.32690  0.83460  Biso   1.000  H
  H37      1.0000 0.49000  0.57690  0.08460  Biso   1.000  H
  H38      1.0000 0.51000  0.42310  0.08460  Biso   1.000  H
  H39      1.0000 0.74000  0.67310  0.33460  Biso   1.000  H
  H40      1.0000 0.76000  0.82690  0.33460  Biso   1.000  H
  H41      1.0000 0.99000  0.07690  0.08460  Biso   1.000  H
  H42      1.0000 0.01000  0.92310  0.08460  Biso   1.000  H
  H43      1.0000 0.24000  0.17310  0.33460  Biso   1.000  H
  H44      1.0000 0.26000  0.32690  0.33460  Biso   1.000  H
  H45      1.0000 0.99000  0.57690  0.58460  Biso   1.000  H
  H46      1.0000 0.01000  0.42310  0.58460  Biso   1.000  H
  H47      1.0000 0.24000  0.67310  0.83460  Biso   1.000  H
  H48      1.0000 0.26000  0.82690  0.83460  Biso   1.000  H
  C65      1.0000 0.49328  0.04351  0.75100  Biso   1.000  C
  C66      1.0000 0.50672  0.95649  0.75100  Biso   1.000  C
  C67      1.0000 0.74328  0.20649  0.00100  Biso   1.000  C
  C68      1.0000 0.75672  0.29351  0.00100  Biso   1.000  C
  C69      1.0000 0.49328  0.54351  0.25100  Biso   1.000  C
  C70      1.0000 0.50672  0.45649  0.25100  Biso   1.000  C
  C71      1.0000 0.74328  0.70649  0.50100  Biso   1.000  C
  C72      1.0000 0.75672  0.79351  0.50100  Biso   1.000  C
  C73      1.0000 0.99328  0.04351  0.25100  Biso   1.000  C
  C74      1.0000 0.00672  0.95649  0.25100  Biso   1.000  C
  C75      1.0000 0.24328  0.20649  0.50100  Biso   1.000  C
  C76      1.0000 0.25672  0.29351  0.50100  Biso   1.000  C
  C77      1.0000 0.99328  0.54351  0.75100  Biso   1.000  C
  C78      1.0000 0.00672  0.45649  0.75100  Biso   1.000  C
  C79      1.0000 0.24328  0.70649  0.00100  Biso   1.000  C
  C80      1.0000 0.25672  0.79351  0.00100  Biso   1.000  C
  H49      1.0000 0.48790  0.07450  0.79440  Biso   1.000  H
  H50      1.0000 0.51210  0.92550  0.79440  Biso   1.000  H
  H51      1.0000 0.73790  0.17550  0.04440  Biso   1.000  H
  H52      1.0000 0.76210  0.32450  0.04440  Biso   1.000  H
  H53      1.0000 0.48790  0.57450  0.29440  Biso   1.000  H
  H54      1.0000 0.51210  0.42550  0.29440  Biso   1.000  H
  H55      1.0000 0.73790  0.67550  0.54440  Biso   1.000  H
  H56      1.0000 0.76210  0.82450  0.54440  Biso   1.000  H
  H57      1.0000 0.98790  0.07450  0.29440  Biso   1.000  H
  H58      1.0000 0.01210  0.92550  0.29440  Biso   1.000  H
  H59      1.0000 0.23790  0.17550  0.54440  Biso   1.000  H
  H60      1.0000 0.26210  0.32450  0.54440  Biso   1.000  H
  H61      1.0000 0.98790  0.57450  0.79440  Biso   1.000  H
  H62      1.0000 0.01210  0.42550  0.79440  Biso   1.000  H
  H63      1.0000 0.23790  0.67550  0.04440  Biso   1.000  H
  H64      1.0000 0.26210  0.82450  0.04440  Biso   1.000  H
  C81      1.0000 0.31801  0.07583  0.17600  Biso   1.000  C
  C82      1.0000 0.68199  0.92417  0.17600  Biso   1.000  C
  C83      1.0000 0.56801  0.17417  0.42600  Biso   1.000  C
  C84      1.0000 0.93199  0.32583  0.42600  Biso   1.000  C
  C85      1.0000 0.31801  0.57583  0.67600  Biso   1.000  C
  C86      1.0000 0.68199  0.42417  0.67600  Biso   1.000  C
  C87      1.0000 0.56801  0.67417  0.92600  Biso   1.000  C
  C88      1.0000 0.93199  0.82583  0.92600  Biso   1.000  C
  C89      1.0000 0.81801  0.07583  0.67600  Biso   1.000  C
  C90      1.0000 0.18199  0.92417  0.67600  Biso   1.000  C
  C91      1.0000 0.06801  0.17417  0.92600  Biso   1.000  C
  C92      1.0000 0.43199  0.32583  0.92600  Biso   1.000  C
  C93      1.0000 0.81801  0.57583  0.17600  Biso   1.000  C
  C94      1.0000 0.18199  0.42417  0.17600  Biso   1.000  C
  C95      1.0000 0.06801  0.67417  0.42600  Biso   1.000  C
  C96      1.0000 0.43199  0.82583  0.42600  Biso   1.000  C
  C97      1.0000 0.35864  0.09304  0.27730  Biso   1.000  C
  C98      1.0000 0.64136  0.90696  0.27730  Biso   1.000  C
  C99      1.0000 0.60864  0.15696  0.52730  Biso   1.000  C
  C100     1.0000 0.89136  0.34304  0.52730  Biso   1.000  C
  C101     1.0000 0.35864  0.59304  0.77730  Biso   1.000  C
  C102     1.0000 0.64136  0.40696  0.77730  Biso   1.000  C
  C103     1.0000 0.60864  0.65696  0.02730  Biso   1.000  C
  C104     1.0000 0.89136  0.84304  0.02730  Biso   1.000  C
  C105     1.0000 0.85864  0.09304  0.77730  Biso   1.000  C
  C106     1.0000 0.14136  0.90696  0.77730  Biso   1.000  C
  C107     1.0000 0.10864  0.15696  0.02730  Biso   1.000  C
  C108     1.0000 0.39136  0.34304  0.02730  Biso   1.000  C
  C109     1.0000 0.85864  0.59304  0.27730  Biso   1.000  C
  C110     1.0000 0.14136  0.40696  0.27730  Biso   1.000  C
  C111     1.0000 0.10864  0.65696  0.52730  Biso   1.000  C
  C112     1.0000 0.39136  0.84304  0.52730  Biso   1.000  C
  H65      1.0000 0.40700  0.10990  0.26780  Biso   1.000  H
  H66      1.0000 0.59300  0.89010  0.26780  Biso   1.000  H
  H67      1.0000 0.65700  0.14010  0.51780  Biso   1.000  H
  H68      1.0000 0.84300  0.35990  0.51780  Biso   1.000  H
  H69      1.0000 0.40700  0.60990  0.76780  Biso   1.000  H
  H70      1.0000 0.59300  0.39010  0.76780  Biso   1.000  H
  H71      1.0000 0.65700  0.64010  0.01780  Biso   1.000  H
  H72      1.0000 0.84300  0.85990  0.01780  Biso   1.000  H
  H73      1.0000 0.90700  0.10990  0.76780  Biso   1.000  H
  H74      1.0000 0.09300  0.89010  0.76780  Biso   1.000  H
  H75      1.0000 0.15700  0.14010  0.01780  Biso   1.000  H
  H76      1.0000 0.34300  0.35990  0.01780  Biso   1.000  H
  H77      1.0000 0.90700  0.60990  0.26780  Biso   1.000  H
  H78      1.0000 0.09300  0.39010  0.26780  Biso   1.000  H
  H79      1.0000 0.15700  0.64010  0.51780  Biso   1.000  H
  H80      1.0000 0.34300  0.85990  0.51780  Biso   1.000  H
  C113     1.0000 0.32803  0.08539  0.39250  Biso   1.000  C
  C114     1.0000 0.67197  0.91461  0.39250  Biso   1.000  C
  C115     1.0000 0.57803  0.16461  0.64250  Biso   1.000  C
  C116     1.0000 0.92197  0.33539  0.64250  Biso   1.000  C
  C117     1.0000 0.32803  0.58539  0.89250  Biso   1.000  C
  C118     1.0000 0.67197  0.41461  0.89250  Biso   1.000  C
  C119     1.0000 0.57803  0.66461  0.14250  Biso   1.000  C
  C120     1.0000 0.92197  0.83539  0.14250  Biso   1.000  C
  C121     1.0000 0.82803  0.08539  0.89250  Biso   1.000  C
  C122     1.0000 0.17197  0.91461  0.89250  Biso   1.000  C
  C123     1.0000 0.07803  0.16461  0.14250  Biso   1.000  C
  C124     1.0000 0.42197  0.33539  0.14250  Biso   1.000  C
  C125     1.0000 0.82803  0.58539  0.39250  Biso   1.000  C
  C126     1.0000 0.17197  0.41461  0.39250  Biso   1.000  C
  C127     1.0000 0.07803  0.66461  0.64250  Biso   1.000  C
  C128     1.0000 0.42197  0.83539  0.64250  Biso   1.000  C
  H81      1.0000 0.35560  0.09690  0.46150  Biso   1.000  H
  H82      1.0000 0.64440  0.90310  0.46150  Biso   1.000  H
  H83      1.0000 0.60560  0.15310  0.71150  Biso   1.000  H
  H84      1.0000 0.89440  0.34690  0.71150  Biso   1.000  H
  H85      1.0000 0.35560  0.59690  0.96150  Biso   1.000  H
  H86      1.0000 0.64440  0.40310  0.96150  Biso   1.000  H
  H87      1.0000 0.60560  0.65310  0.21150  Biso   1.000  H
  H88      1.0000 0.89440  0.84690  0.21150  Biso   1.000  H
  H89      1.0000 0.85560  0.09690  0.96150  Biso   1.000  H
  H90      1.0000 0.14440  0.90310  0.96150  Biso   1.000  H
  H91      1.0000 0.10560  0.15310  0.21150  Biso   1.000  H
  H92      1.0000 0.39440  0.34690  0.21150  Biso   1.000  H
  H93      1.0000 0.85560  0.59690  0.46150  Biso   1.000  H
  H94      1.0000 0.14440  0.40310  0.46150  Biso   1.000  H
  H95      1.0000 0.10560  0.65310  0.71150  Biso   1.000  H
  H96      1.0000 0.39440  0.84690  0.71150  Biso   1.000  H
  C129     1.0000 0.25710  0.06086  0.40590  Biso   1.000  C
  C130     1.0000 0.74290  0.93914  0.40590  Biso   1.000  C
  C131     1.0000 0.50710  0.18914  0.65590  Biso   1.000  C
  C132     1.0000 0.99290  0.31086  0.65590  Biso   1.000  C
  C133     1.0000 0.25710  0.56086  0.90590  Biso   1.000  C
  C134     1.0000 0.74290  0.43914  0.90590  Biso   1.000  C
  C135     1.0000 0.50710  0.68914  0.15590  Biso   1.000  C
  C136     1.0000 0.99290  0.81086  0.15590  Biso   1.000  C
  C137     1.0000 0.75710  0.06086  0.90590  Biso   1.000  C
  C138     1.0000 0.24290  0.93914  0.90590  Biso   1.000  C
  C139     1.0000 0.00710  0.18914  0.15590  Biso   1.000  C
  C140     1.0000 0.49290  0.31086  0.15590  Biso   1.000  C
  C141     1.0000 0.75710  0.56086  0.40590  Biso   1.000  C
  C142     1.0000 0.24290  0.43914  0.40590  Biso   1.000  C
  C143     1.0000 0.00710  0.68914  0.65590  Biso   1.000  C
  C144     1.0000 0.49290  0.81086  0.65590  Biso   1.000  C
  H97      1.0000 0.23620  0.05570  0.48430  Biso   1.000  H
  H98      1.0000 0.76380  0.94430  0.48430  Biso   1.000  H
  H99      1.0000 0.48620  0.19430  0.73430  Biso   1.000  H
  H100     1.0000 0.01380  0.30570  0.73430  Biso   1.000  H
  H101     1.0000 0.23620  0.55570  0.98430  Biso   1.000  H
  H102     1.0000 0.76380  0.44430  0.98430  Biso   1.000  H
  H103     1.0000 0.48620  0.69430  0.23430  Biso   1.000  H
  H104     1.0000 0.01380  0.80570  0.23430  Biso   1.000  H
  H105     1.0000 0.73620  0.05570  0.98430  Biso   1.000  H
  H106     1.0000 0.26380  0.94430  0.98430  Biso   1.000  H
  H107     1.0000 0.98620  0.19430  0.23430  Biso   1.000  H
  H108     1.0000 0.51380  0.30570  0.23430  Biso   1.000  H
  H109     1.0000 0.73620  0.55570  0.48430  Biso   1.000  H
  H110     1.0000 0.26380  0.44430  0.48430  Biso   1.000  H
  H111     1.0000 0.98620  0.69430  0.73430  Biso   1.000  H
  H112     1.0000 0.51380  0.80570  0.73430  Biso   1.000  H
  C145     1.0000 0.21679  0.04393  0.30600  Biso   1.000  C
  C146     1.0000 0.78321  0.95607  0.30600  Biso   1.000  C
  C147     1.0000 0.46679  0.20607  0.55600  Biso   1.000  C
  C148     1.0000 0.03321  0.29393  0.55600  Biso   1.000  C
  C149     1.0000 0.21679  0.54393  0.80600  Biso   1.000  C
  C150     1.0000 0.78321  0.45607  0.80600  Biso   1.000  C
  C151     1.0000 0.46679  0.70607  0.05600  Biso   1.000  C
  C152     1.0000 0.03321  0.79393  0.05600  Biso   1.000  C
  C153     1.0000 0.71679  0.04393  0.80600  Biso   1.000  C
  C154     1.0000 0.28321  0.95607  0.80600  Biso   1.000  C
  C155     1.0000 0.96679  0.20607  0.05600  Biso   1.000  C
  C156     1.0000 0.53321  0.29393  0.05600  Biso   1.000  C
  C157     1.0000 0.71679  0.54393  0.30600  Biso   1.000  C
  C158     1.0000 0.28321  0.45607  0.30600  Biso   1.000  C
  C159     1.0000 0.96679  0.70607  0.55600  Biso   1.000  C
  C160     1.0000 0.53321  0.79393  0.55600  Biso   1.000  C
  H113     1.0000 0.16820  0.02740  0.31590  Biso   1.000  H
  H114     1.0000 0.83180  0.97260  0.31590  Biso   1.000  H
  H115     1.0000 0.41820  0.22260  0.56590  Biso   1.000  H
  H116     1.0000 0.08180  0.27740  0.56590  Biso   1.000  H
  H117     1.0000 0.16820  0.52740  0.81590  Biso   1.000  H
  H118     1.0000 0.83180  0.47260  0.81590  Biso   1.000  H
  H119     1.0000 0.41820  0.72260  0.06590  Biso   1.000  H
  H120     1.0000 0.08180  0.77740  0.06590  Biso   1.000  H
  H121     1.0000 0.66820  0.02740  0.81590  Biso   1.000  H
  H122     1.0000 0.33180  0.97260  0.81590  Biso   1.000  H
  H123     1.0000 0.91820  0.22260  0.06590  Biso   1.000  H
  H124     1.0000 0.58180  0.27740  0.06590  Biso   1.000  H
  H125     1.0000 0.66820  0.52740  0.31590  Biso   1.000  H
  H126     1.0000 0.33180  0.47260  0.31590  Biso   1.000  H
  H127     1.0000 0.91820  0.72260  0.56590  Biso   1.000  H
  H128     1.0000 0.58180  0.77740  0.56590  Biso   1.000  H
  C161     1.0000 0.24711  0.05102  0.19060  Biso   1.000  C
  C162     1.0000 0.75289  0.94898  0.19060  Biso   1.000  C
  C163     1.0000 0.49711  0.19898  0.44060  Biso   1.000  C
  C164     1.0000 0.00289  0.30102  0.44060  Biso   1.000  C
  C165     1.0000 0.24711  0.55102  0.69060  Biso   1.000  C
  C166     1.0000 0.75289  0.44898  0.69060  Biso   1.000  C
  C167     1.0000 0.49711  0.69898  0.94060  Biso   1.000  C
  C168     1.0000 0.00289  0.80102  0.94060  Biso   1.000  C
  C169     1.0000 0.74711  0.05102  0.69060  Biso   1.000  C
  C170     1.0000 0.25289  0.94898  0.69060  Biso   1.000  C
  C171     1.0000 0.99711  0.19898  0.94060  Biso   1.000  C
  C172     1.0000 0.50289  0.30102  0.94060  Biso   1.000  C
  C173     1.0000 0.74711  0.55102  0.19060  Biso   1.000  C
  C174     1.0000 0.25289  0.44898  0.19060  Biso   1.000  C
  C175     1.0000 0.99711  0.69898  0.44060  Biso   1.000  C
  C176     1.0000 0.50289  0.80102  0.44060  Biso   1.000  C
  H129     1.0000 0.21960  0.03900  0.12210  Biso   1.000  H
  H130     1.0000 0.78040  0.96100  0.12210  Biso   1.000  H
  H131     1.0000 0.46960  0.21100  0.37210  Biso   1.000  H
  H132     1.0000 0.03040  0.28900  0.37210  Biso   1.000  H
  H133     1.0000 0.21960  0.53900  0.62210  Biso   1.000  H
  H134     1.0000 0.78040  0.46100  0.62210  Biso   1.000  H
  H135     1.0000 0.46960  0.71100  0.87210  Biso   1.000  H
  H136     1.0000 0.03040  0.78900  0.87210  Biso   1.000  H
  H137     1.0000 0.71960  0.03900  0.62210  Biso   1.000  H
  H138     1.0000 0.28040  0.96100  0.62210  Biso   1.000  H
  H139     1.0000 0.96960  0.21100  0.87210  Biso   1.000  H
  H140     1.0000 0.53040  0.28900  0.87210  Biso   1.000  H
  H141     1.0000 0.71960  0.53900  0.12210  Biso   1.000  H
  H142     1.0000 0.28040  0.46100  0.12210  Biso   1.000  H
  H143     1.0000 0.96960  0.71100  0.37210  Biso   1.000  H
  H144     1.0000 0.53040  0.78900  0.37210  Biso   1.000  H
