data_image0
_cell_length_a       8.0833
_cell_length_b       11.5444
_cell_length_c       10.5565
_cell_angle_alpha    90
_cell_angle_beta     108.335
_cell_angle_gamma    90

_symmetry_space_group_name_H-M    "P 1"
_symmetry_int_tables_number       1

loop_
  _symmetry_equiv_pos_as_xyz
  'x, y, z'

loop_
  _atom_site_label
  _atom_site_occupancy
  _atom_site_fract_x
  _atom_site_fract_y
  _atom_site_fract_z
  _atom_site_thermal_displace_type
  _atom_site_B_iso_or_equiv
  _atom_site_type_symbol
  Cu1      1.0000 0.60758  0.33336  0.05187  Biso   1.000  Cu
  Cu2      1.0000 0.39242  0.83336  0.94813  Biso   1.000  Cu
  V1       1.0000 0.89275  0.16316  0.92352  Biso   1.000  V
  V2       1.0000 0.10725  0.66316  0.07648  Biso   1.000  V
  P1       1.0000 0.86191  0.44769  0.91367  Biso   1.000  P
  P2       1.0000 0.13809  0.94769  0.08633  Biso   1.000  P
  P3       1.0000 0.71667  0.73007  0.87102  Biso   1.000  P
  P4       1.0000 0.28333  0.23007  0.12898  Biso   1.000  P
  O1       1.0000 0.73510  0.17708  0.98810  Biso   1.000  O
  O2       1.0000 0.26490  0.67708  0.01190  Biso   1.000  O
  O3       1.0000 0.81470  0.11475  0.77270  Biso   1.000  O
  O4       1.0000 0.18530  0.61475  0.22730  Biso   1.000  O
  O5       1.0000 0.90030  0.32587  0.87524  Biso   1.000  O
  O6       1.0000 0.09970  0.82587  0.12476  Biso   1.000  O
  O7       1.0000 0.03710  0.50452  0.99300  Biso   1.000  O
  O8       1.0000 0.96290  0.00452  0.00700  Biso   1.000  O
  O9       1.0000 0.73140  0.45122  0.99050  Biso   1.000  O
  O10      1.0000 0.26860  0.95122  0.00950  Biso   1.000  O
  O11      1.0000 0.85450  0.68934  0.99590  Biso   1.000  O
  O12      1.0000 0.14550  0.18934  0.00410  Biso   1.000  O
  O13      1.0000 0.53540  0.73080  0.88130  Biso   1.000  O
  O14      1.0000 0.46460  0.23080  0.11870  Biso   1.000  O
  O15      1.0000 0.76460  0.85111  0.82550  Biso   1.000  O
  O16      1.0000 0.23540  0.35111  0.17450  Biso   1.000  O
  H1       1.0000 0.84800  0.87980  0.88650  Biso   1.000  H
  H2       1.0000 0.15200  0.37980  0.11350  Biso   1.000  H
  N1       1.0000 0.41690  0.34020  0.87680  Biso   1.000  N
  N2       1.0000 0.58310  0.84020  0.12320  Biso   1.000  N
  N3       1.0000 0.78430  0.33980  0.23820  Biso   1.000  N
  N4       1.0000 0.21570  0.83980  0.76180  Biso   1.000  N
  C1       1.0000 0.35250  0.24040  0.81630  Biso   1.000  C
  C2       1.0000 0.64750  0.74040  0.18370  Biso   1.000  C
  H3       1.0000 0.39490  0.16950  0.86010  Biso   1.000  H
  H4       1.0000 0.60510  0.66950  0.13990  Biso   1.000  H
  C3       1.0000 0.22590  0.23710  0.69170  Biso   1.000  C
  C4       1.0000 0.77410  0.73710  0.30830  Biso   1.000  C
  H5       1.0000 0.18390  0.16500  0.65080  Biso   1.000  H
  H6       1.0000 0.81610  0.66500  0.34920  Biso   1.000  H
  C5       1.0000 0.16170  0.34020  0.62790  Biso   1.000  C
  C6       1.0000 0.83830  0.84020  0.37210  Biso   1.000  C
  C7       1.0000 0.22490  0.44370  0.69400  Biso   1.000  C
  C8       1.0000 0.77510  0.94370  0.30600  Biso   1.000  C
  H7       1.0000 0.18030  0.51590  0.65480  Biso   1.000  H
  H8       1.0000 0.81970  0.01590  0.34520  Biso   1.000  H
  C9       1.0000 0.35300  0.44040  0.81730  Biso   1.000  C
  C10      1.0000 0.64700  0.94040  0.18270  Biso   1.000  C
  H9       1.0000 0.39670  0.51110  0.86090  Biso   1.000  H
  H10      1.0000 0.60330  0.01110  0.13910  Biso   1.000  H
  C11      1.0000 0.78280  0.25830  0.32980  Biso   1.000  C
  C12      1.0000 0.21720  0.75830  0.67020  Biso   1.000  C
  H11      1.0000 0.69550  0.19990  0.30590  Biso   1.000  H
  H12      1.0000 0.30450  0.69990  0.69410  Biso   1.000  H
  C13      1.0000 0.90160  0.25590  0.45560  Biso   1.000  C
  C14      1.0000 0.09840  0.75590  0.54440  Biso   1.000  C
  H13      1.0000 0.89590  0.19670  0.51660  Biso   1.000  H
  H14      1.0000 0.10410  0.69670  0.48340  Biso   1.000  H
  C15      1.0000 0.03080  0.34100  0.49360  Biso   1.000  C
  C16      1.0000 0.96920  0.84100  0.50640  Biso   1.000  C
  C17      1.0000 0.03330  0.42460  0.39950  Biso   1.000  C
  C18      1.0000 0.96670  0.92460  0.60050  Biso   1.000  C
  H15      1.0000 0.12000  0.48340  0.42080  Biso   1.000  H
  H16      1.0000 0.88000  0.98340  0.57920  Biso   1.000  H
  C19      1.0000 0.90920  0.42180  0.27490  Biso   1.000  C
  C20      1.0000 0.09080  0.92180  0.72510  Biso   1.000  C
  H17      1.0000 0.91190  0.48030  0.21230  Biso   1.000  H
  H18      1.0000 0.08810  0.98030  0.78770  Biso   1.000  H
  C21      1.0000 0.70520  0.63480  0.73410  Biso   1.000  C
  C22      1.0000 0.29480  0.13480  0.26590  Biso   1.000  C
  C23      1.0000 0.61470  0.67460  0.60620  Biso   1.000  C
  C24      1.0000 0.38530  0.17460  0.39380  Biso   1.000  C
  H19      1.0000 0.58150  0.75370  0.59420  Biso   1.000  H
  H20      1.0000 0.41850  0.25370  0.40580  Biso   1.000  H
  C25      1.0000 0.57200  0.60200  0.49690  Biso   1.000  C
  C26      1.0000 0.42800  0.10200  0.50310  Biso   1.000  C
  H21      1.0000 0.50580  0.62980  0.41120  Biso   1.000  H
  H22      1.0000 0.49420  0.12980  0.58880  Biso   1.000  H
  C27      1.0000 0.62820  0.48670  0.51470  Biso   1.000  C
  C28      1.0000 0.37180  0.98670  0.48530  Biso   1.000  C
  H23      1.0000 0.60190  0.43560  0.44050  Biso   1.000  H
  H24      1.0000 0.39810  0.93560  0.55950  Biso   1.000  H
  C29      1.0000 0.72160  0.44740  0.64020  Biso   1.000  C
  C30      1.0000 0.27840  0.94740  0.35980  Biso   1.000  C
  H25      1.0000 0.75980  0.36910  0.65040  Biso   1.000  H
  H26      1.0000 0.24020  0.86910  0.34960  Biso   1.000  H
  C31      1.0000 0.76190  0.51870  0.75290  Biso   1.000  C
  C32      1.0000 0.23810  0.01870  0.24710  Biso   1.000  C
