data_image0
_cell_length_a       20.7505
_cell_length_b       45.726
_cell_length_c       6.0304
_cell_angle_alpha    90
_cell_angle_beta     90
_cell_angle_gamma    90

_symmetry_space_group_name_H-M    "P 1"
_symmetry_int_tables_number       1

loop_
  _symmetry_equiv_pos_as_xyz
  'x, y, z'

loop_
  _atom_site_label
  _atom_site_occupancy
  _atom_site_fract_x
  _atom_site_fract_y
  _atom_site_fract_z
  _atom_site_thermal_displace_type
  _atom_site_B_iso_or_equiv
  _atom_site_type_symbol
  Cu1      1.0000 0.42743  0.15845  0.16129  Biso   1.000  Cu
  Cu2      1.0000 0.57257  0.84155  0.16129  Biso   1.000  Cu
  Cu3      1.0000 0.67743  0.09155  0.41129  Biso   1.000  Cu
  Cu4      1.0000 0.82257  0.40845  0.41129  Biso   1.000  Cu
  Cu5      1.0000 0.42743  0.65845  0.66129  Biso   1.000  Cu
  Cu6      1.0000 0.57257  0.34155  0.66129  Biso   1.000  Cu
  Cu7      1.0000 0.67743  0.59155  0.91129  Biso   1.000  Cu
  Cu8      1.0000 0.82257  0.90845  0.91129  Biso   1.000  Cu
  Cu9      1.0000 0.92743  0.15845  0.66129  Biso   1.000  Cu
  Cu10     1.0000 0.07257  0.84155  0.66129  Biso   1.000  Cu
  Cu11     1.0000 0.17743  0.09155  0.91129  Biso   1.000  Cu
  Cu12     1.0000 0.32257  0.40845  0.91129  Biso   1.000  Cu
  Cu13     1.0000 0.92743  0.65845  0.16129  Biso   1.000  Cu
  Cu14     1.0000 0.07257  0.34155  0.16129  Biso   1.000  Cu
  Cu15     1.0000 0.17743  0.59155  0.41129  Biso   1.000  Cu
  Cu16     1.0000 0.32257  0.90845  0.41129  Biso   1.000  Cu
  Cu17     1.0000 0.60860  0.13994  0.69623  Biso   1.000  Cu
  Cu18     1.0000 0.39140  0.86006  0.69623  Biso   1.000  Cu
  Cu19     1.0000 0.85860  0.11006  0.94623  Biso   1.000  Cu
  Cu20     1.0000 0.64140  0.38994  0.94623  Biso   1.000  Cu
  Cu21     1.0000 0.60860  0.63994  0.19623  Biso   1.000  Cu
  Cu22     1.0000 0.39140  0.36006  0.19623  Biso   1.000  Cu
  Cu23     1.0000 0.85860  0.61006  0.44623  Biso   1.000  Cu
  Cu24     1.0000 0.64140  0.88994  0.44623  Biso   1.000  Cu
  Cu25     1.0000 0.10860  0.13994  0.19623  Biso   1.000  Cu
  Cu26     1.0000 0.89140  0.86006  0.19623  Biso   1.000  Cu
  Cu27     1.0000 0.35860  0.11006  0.44623  Biso   1.000  Cu
  Cu28     1.0000 0.14140  0.38994  0.44623  Biso   1.000  Cu
  Cu29     1.0000 0.10860  0.63994  0.69623  Biso   1.000  Cu
  Cu30     1.0000 0.89140  0.36006  0.69623  Biso   1.000  Cu
  Cu31     1.0000 0.35860  0.61006  0.94623  Biso   1.000  Cu
  Cu32     1.0000 0.14140  0.88994  0.94623  Biso   1.000  Cu
  P1       1.0000 0.47155  0.15848  0.65086  Biso   1.000  P
  P2       1.0000 0.52845  0.84152  0.65086  Biso   1.000  P
  P3       1.0000 0.72155  0.09152  0.90086  Biso   1.000  P
  P4       1.0000 0.77845  0.40848  0.90086  Biso   1.000  P
  P5       1.0000 0.47155  0.65848  0.15086  Biso   1.000  P
  P6       1.0000 0.52845  0.34152  0.15086  Biso   1.000  P
  P7       1.0000 0.72155  0.59152  0.40086  Biso   1.000  P
  P8       1.0000 0.77845  0.90848  0.40086  Biso   1.000  P
  P9       1.0000 0.97155  0.15848  0.15086  Biso   1.000  P
  P10      1.0000 0.02845  0.84152  0.15086  Biso   1.000  P
  P11      1.0000 0.22155  0.09152  0.40086  Biso   1.000  P
  P12      1.0000 0.27845  0.40848  0.40086  Biso   1.000  P
  P13      1.0000 0.97155  0.65848  0.65086  Biso   1.000  P
  P14      1.0000 0.02845  0.34152  0.65086  Biso   1.000  P
  P15      1.0000 0.22155  0.59152  0.90086  Biso   1.000  P
  P16      1.0000 0.27845  0.90848  0.90086  Biso   1.000  P
  P17      1.0000 0.57091  0.14697  0.21152  Biso   1.000  P
  P18      1.0000 0.42909  0.85303  0.21152  Biso   1.000  P
  P19      1.0000 0.82091  0.10303  0.46152  Biso   1.000  P
  P20      1.0000 0.67909  0.39697  0.46152  Biso   1.000  P
  P21      1.0000 0.57091  0.64697  0.71152  Biso   1.000  P
  P22      1.0000 0.42909  0.35303  0.71152  Biso   1.000  P
  P23      1.0000 0.82091  0.60303  0.96152  Biso   1.000  P
  P24      1.0000 0.67909  0.89697  0.96152  Biso   1.000  P
  P25      1.0000 0.07091  0.14697  0.71152  Biso   1.000  P
  P26      1.0000 0.92909  0.85303  0.71152  Biso   1.000  P
  P27      1.0000 0.32091  0.10303  0.96152  Biso   1.000  P
  P28      1.0000 0.17909  0.39697  0.96152  Biso   1.000  P
  P29      1.0000 0.07091  0.64697  0.21152  Biso   1.000  P
  P30      1.0000 0.92909  0.35303  0.21152  Biso   1.000  P
  P31      1.0000 0.32091  0.60303  0.46152  Biso   1.000  P
  P32      1.0000 0.17909  0.89697  0.46152  Biso   1.000  P
  O1       1.0000 0.44350  0.17133  0.86310  Biso   1.000  O
  O2       1.0000 0.55650  0.82867  0.86310  Biso   1.000  O
  O3       1.0000 0.69350  0.07867  0.11310  Biso   1.000  O
  O4       1.0000 0.80650  0.42133  0.11310  Biso   1.000  O
  O5       1.0000 0.44350  0.67133  0.36310  Biso   1.000  O
  O6       1.0000 0.55650  0.32867  0.36310  Biso   1.000  O
  O7       1.0000 0.69350  0.57867  0.61310  Biso   1.000  O
  O8       1.0000 0.80650  0.92133  0.61310  Biso   1.000  O
  O9       1.0000 0.94350  0.17133  0.36310  Biso   1.000  O
  O10      1.0000 0.05650  0.82867  0.36310  Biso   1.000  O
  O11      1.0000 0.19350  0.07867  0.61310  Biso   1.000  O
  O12      1.0000 0.30650  0.42133  0.61310  Biso   1.000  O
  O13      1.0000 0.94350  0.67133  0.86310  Biso   1.000  O
  O14      1.0000 0.05650  0.32867  0.86310  Biso   1.000  O
  O15      1.0000 0.19350  0.57867  0.11310  Biso   1.000  O
  O16      1.0000 0.30650  0.92133  0.11310  Biso   1.000  O
  O17      1.0000 0.51590  0.13240  0.68650  Biso   1.000  O
  O18      1.0000 0.48410  0.86760  0.68650  Biso   1.000  O
  O19      1.0000 0.76590  0.11760  0.93650  Biso   1.000  O
  O20      1.0000 0.73410  0.38240  0.93650  Biso   1.000  O
  O21      1.0000 0.51590  0.63240  0.18650  Biso   1.000  O
  O22      1.0000 0.48410  0.36760  0.18650  Biso   1.000  O
  O23      1.0000 0.76590  0.61760  0.43650  Biso   1.000  O
  O24      1.0000 0.73410  0.88240  0.43650  Biso   1.000  O
  O25      1.0000 0.01590  0.13240  0.18650  Biso   1.000  O
  O26      1.0000 0.98410  0.86760  0.18650  Biso   1.000  O
  O27      1.0000 0.26590  0.11760  0.43650  Biso   1.000  O
  O28      1.0000 0.23410  0.38240  0.43650  Biso   1.000  O
  O29      1.0000 0.01590  0.63240  0.68650  Biso   1.000  O
  O30      1.0000 0.98410  0.36760  0.68650  Biso   1.000  O
  O31      1.0000 0.26590  0.61760  0.93650  Biso   1.000  O
  O32      1.0000 0.23410  0.88240  0.93650  Biso   1.000  O
  O33      1.0000 0.41676  0.15218  0.48530  Biso   1.000  O
  O34      1.0000 0.58324  0.84782  0.48530  Biso   1.000  O
  O35      1.0000 0.66676  0.09782  0.73530  Biso   1.000  O
  O36      1.0000 0.83324  0.40218  0.73530  Biso   1.000  O
  O37      1.0000 0.41676  0.65218  0.98530  Biso   1.000  O
  O38      1.0000 0.58324  0.34782  0.98530  Biso   1.000  O
  O39      1.0000 0.66676  0.59782  0.23530  Biso   1.000  O
  O40      1.0000 0.83324  0.90218  0.23530  Biso   1.000  O
  O41      1.0000 0.91676  0.15218  0.98530  Biso   1.000  O
  O42      1.0000 0.08324  0.84782  0.98530  Biso   1.000  O
  O43      1.0000 0.16676  0.09782  0.23530  Biso   1.000  O
  O44      1.0000 0.33324  0.40218  0.23530  Biso   1.000  O
  O45      1.0000 0.91676  0.65218  0.48530  Biso   1.000  O
  O46      1.0000 0.08324  0.34782  0.48530  Biso   1.000  O
  O47      1.0000 0.16676  0.59782  0.73530  Biso   1.000  O
  O48      1.0000 0.33324  0.90218  0.73530  Biso   1.000  O
  O49      1.0000 0.61223  0.12984  0.38000  Biso   1.000  O
  O50      1.0000 0.38777  0.87016  0.38000  Biso   1.000  O
  O51      1.0000 0.86223  0.12016  0.63000  Biso   1.000  O
  O52      1.0000 0.63777  0.37984  0.63000  Biso   1.000  O
  O53      1.0000 0.61223  0.62984  0.88000  Biso   1.000  O
  O54      1.0000 0.38777  0.37016  0.88000  Biso   1.000  O
  O55      1.0000 0.86223  0.62016  0.13000  Biso   1.000  O
  O56      1.0000 0.63777  0.87984  0.13000  Biso   1.000  O
  O57      1.0000 0.11223  0.12984  0.88000  Biso   1.000  O
  O58      1.0000 0.88777  0.87016  0.88000  Biso   1.000  O
  O59      1.0000 0.36223  0.12016  0.13000  Biso   1.000  O
  O60      1.0000 0.13777  0.37984  0.13000  Biso   1.000  O
  O61      1.0000 0.11223  0.62984  0.38000  Biso   1.000  O
  O62      1.0000 0.88777  0.37016  0.38000  Biso   1.000  O
  O63      1.0000 0.36223  0.62016  0.63000  Biso   1.000  O
  O64      1.0000 0.13777  0.87984  0.63000  Biso   1.000  O
  O65      1.0000 0.60909  0.15188  0.00070  Biso   1.000  O
  O66      1.0000 0.39091  0.84812  0.00070  Biso   1.000  O
  O67      1.0000 0.85909  0.09812  0.25070  Biso   1.000  O
  O68      1.0000 0.64091  0.40188  0.25070  Biso   1.000  O
  O69      1.0000 0.60909  0.65188  0.50070  Biso   1.000  O
  O70      1.0000 0.39091  0.34812  0.50070  Biso   1.000  O
  O71      1.0000 0.85909  0.59812  0.75070  Biso   1.000  O
  O72      1.0000 0.64091  0.90188  0.75070  Biso   1.000  O
  O73      1.0000 0.10909  0.15188  0.50070  Biso   1.000  O
  O74      1.0000 0.89091  0.84812  0.50070  Biso   1.000  O
  O75      1.0000 0.35909  0.09812  0.75070  Biso   1.000  O
  O76      1.0000 0.14091  0.40188  0.75070  Biso   1.000  O
  O77      1.0000 0.10909  0.65188  0.00070  Biso   1.000  O
  O78      1.0000 0.89091  0.34812  0.00070  Biso   1.000  O
  O79      1.0000 0.35909  0.59812  0.25070  Biso   1.000  O
  O80      1.0000 0.14091  0.90188  0.25070  Biso   1.000  O
  O81      1.0000 0.50476  0.13307  0.17830  Biso   1.000  O
  O82      1.0000 0.49524  0.86693  0.17830  Biso   1.000  O
  O83      1.0000 0.75476  0.11693  0.42830  Biso   1.000  O
  O84      1.0000 0.74524  0.38307  0.42830  Biso   1.000  O
  O85      1.0000 0.50476  0.63307  0.67830  Biso   1.000  O
  O86      1.0000 0.49524  0.36693  0.67830  Biso   1.000  O
  O87      1.0000 0.75476  0.61693  0.92830  Biso   1.000  O
  O88      1.0000 0.74524  0.88307  0.92830  Biso   1.000  O
  O89      1.0000 0.00476  0.13307  0.67830  Biso   1.000  O
  O90      1.0000 0.99524  0.86693  0.67830  Biso   1.000  O
  O91      1.0000 0.25476  0.11693  0.92830  Biso   1.000  O
  O92      1.0000 0.24524  0.38307  0.92830  Biso   1.000  O
  O93      1.0000 0.00476  0.63307  0.17830  Biso   1.000  O
  O94      1.0000 0.99524  0.36693  0.17830  Biso   1.000  O
  O95      1.0000 0.25476  0.61693  0.42830  Biso   1.000  O
  O96      1.0000 0.24524  0.88307  0.42830  Biso   1.000  O
  O97      1.0000 0.23886  0.17308  0.57830  Biso   1.000  O
  O98      1.0000 0.76114  0.82692  0.57830  Biso   1.000  O
  O99      1.0000 0.48886  0.07692  0.82830  Biso   1.000  O
  O100     1.0000 0.01114  0.42308  0.82830  Biso   1.000  O
  O101     1.0000 0.23886  0.67308  0.07830  Biso   1.000  O
  O102     1.0000 0.76114  0.32692  0.07830  Biso   1.000  O
  O103     1.0000 0.48886  0.57692  0.32830  Biso   1.000  O
  O104     1.0000 0.01114  0.92308  0.32830  Biso   1.000  O
  O105     1.0000 0.73886  0.17308  0.07830  Biso   1.000  O
  O106     1.0000 0.26114  0.82692  0.07830  Biso   1.000  O
  O107     1.0000 0.98886  0.07692  0.32830  Biso   1.000  O
  O108     1.0000 0.51114  0.42308  0.32830  Biso   1.000  O
  O109     1.0000 0.73886  0.67308  0.57830  Biso   1.000  O
  O110     1.0000 0.26114  0.32692  0.57830  Biso   1.000  O
  O111     1.0000 0.98886  0.57692  0.82830  Biso   1.000  O
  O112     1.0000 0.51114  0.92308  0.82830  Biso   1.000  O
  O113     1.0000 0.69164  0.16142  0.65020  Biso   1.000  O
  O114     1.0000 0.30836  0.83858  0.65020  Biso   1.000  O
  O115     1.0000 0.94164  0.08858  0.90020  Biso   1.000  O
  O116     1.0000 0.55836  0.41142  0.90020  Biso   1.000  O
  O117     1.0000 0.69164  0.66142  0.15020  Biso   1.000  O
  O118     1.0000 0.30836  0.33858  0.15020  Biso   1.000  O
  O119     1.0000 0.94164  0.58858  0.40020  Biso   1.000  O
  O120     1.0000 0.55836  0.91142  0.40020  Biso   1.000  O
  O121     1.0000 0.19164  0.16142  0.15020  Biso   1.000  O
  O122     1.0000 0.80836  0.83858  0.15020  Biso   1.000  O
  O123     1.0000 0.44164  0.08858  0.40020  Biso   1.000  O
  O124     1.0000 0.05836  0.41142  0.40020  Biso   1.000  O
  O125     1.0000 0.19164  0.66142  0.65020  Biso   1.000  O
  O126     1.0000 0.80836  0.33858  0.65020  Biso   1.000  O
  O127     1.0000 0.44164  0.58858  0.90020  Biso   1.000  O
  O128     1.0000 0.05836  0.91142  0.90020  Biso   1.000  O
  H1       1.0000 0.70430  0.16830  0.77160  Biso   1.000  H
  H2       1.0000 0.29570  0.83170  0.77160  Biso   1.000  H
  H3       1.0000 0.95430  0.08170  0.02160  Biso   1.000  H
  H4       1.0000 0.54570  0.41830  0.02160  Biso   1.000  H
  H5       1.0000 0.70430  0.66830  0.27160  Biso   1.000  H
  H6       1.0000 0.29570  0.33170  0.27160  Biso   1.000  H
  H7       1.0000 0.95430  0.58170  0.52160  Biso   1.000  H
  H8       1.0000 0.54570  0.91830  0.52160  Biso   1.000  H
  H9       1.0000 0.20430  0.16830  0.27160  Biso   1.000  H
  H10      1.0000 0.79570  0.83170  0.27160  Biso   1.000  H
  H11      1.0000 0.45430  0.08170  0.52160  Biso   1.000  H
  H12      1.0000 0.04570  0.41830  0.52160  Biso   1.000  H
  H13      1.0000 0.20430  0.66830  0.77160  Biso   1.000  H
  H14      1.0000 0.79570  0.33170  0.77160  Biso   1.000  H
  H15      1.0000 0.45430  0.58170  0.02160  Biso   1.000  H
  H16      1.0000 0.04570  0.91830  0.02160  Biso   1.000  H
  N1       1.0000 0.35958  0.19048  0.17690  Biso   1.000  N
  N2       1.0000 0.64042  0.80952  0.17690  Biso   1.000  N
  N3       1.0000 0.60958  0.05952  0.42690  Biso   1.000  N
  N4       1.0000 0.89042  0.44048  0.42690  Biso   1.000  N
  N5       1.0000 0.35958  0.69048  0.67690  Biso   1.000  N
  N6       1.0000 0.64042  0.30952  0.67690  Biso   1.000  N
  N7       1.0000 0.60958  0.55952  0.92690  Biso   1.000  N
  N8       1.0000 0.89042  0.94048  0.92690  Biso   1.000  N
  N9       1.0000 0.85958  0.19048  0.67690  Biso   1.000  N
  N10      1.0000 0.14042  0.80952  0.67690  Biso   1.000  N
  N11      1.0000 0.10958  0.05952  0.92690  Biso   1.000  N
  N12      1.0000 0.39042  0.44048  0.92690  Biso   1.000  N
  N13      1.0000 0.85958  0.69048  0.17690  Biso   1.000  N
  N14      1.0000 0.14042  0.30952  0.17690  Biso   1.000  N
  N15      1.0000 0.10958  0.55952  0.42690  Biso   1.000  N
  N16      1.0000 0.39042  0.94048  0.42690  Biso   1.000  N
  C1       1.0000 0.35296  0.20818  0.35360  Biso   1.000  C
  C2       1.0000 0.64704  0.79182  0.35360  Biso   1.000  C
  C3       1.0000 0.60296  0.04182  0.60360  Biso   1.000  C
  C4       1.0000 0.89704  0.45818  0.60360  Biso   1.000  C
  C5       1.0000 0.35296  0.70818  0.85360  Biso   1.000  C
  C6       1.0000 0.64704  0.29182  0.85360  Biso   1.000  C
  C7       1.0000 0.60296  0.54182  0.10360  Biso   1.000  C
  C8       1.0000 0.89704  0.95818  0.10360  Biso   1.000  C
  C9       1.0000 0.85296  0.20818  0.85360  Biso   1.000  C
  C10      1.0000 0.14704  0.79182  0.85360  Biso   1.000  C
  C11      1.0000 0.10296  0.04182  0.10360  Biso   1.000  C
  C12      1.0000 0.39704  0.45818  0.10360  Biso   1.000  C
  C13      1.0000 0.85296  0.70818  0.35360  Biso   1.000  C
  C14      1.0000 0.14704  0.29182  0.35360  Biso   1.000  C
  C15      1.0000 0.10296  0.54182  0.60360  Biso   1.000  C
  C16      1.0000 0.39704  0.95818  0.60360  Biso   1.000  C
  H17      1.0000 0.37810  0.20440  0.48210  Biso   1.000  H
  H18      1.0000 0.62190  0.79560  0.48210  Biso   1.000  H
  H19      1.0000 0.62810  0.04560  0.73210  Biso   1.000  H
  H20      1.0000 0.87190  0.45440  0.73210  Biso   1.000  H
  H21      1.0000 0.37810  0.70440  0.98210  Biso   1.000  H
  H22      1.0000 0.62190  0.29560  0.98210  Biso   1.000  H
  H23      1.0000 0.62810  0.54560  0.23210  Biso   1.000  H
  H24      1.0000 0.87190  0.95440  0.23210  Biso   1.000  H
  H25      1.0000 0.87810  0.20440  0.98210  Biso   1.000  H
  H26      1.0000 0.12190  0.79560  0.98210  Biso   1.000  H
  H27      1.0000 0.12810  0.04560  0.23210  Biso   1.000  H
  H28      1.0000 0.37190  0.45440  0.23210  Biso   1.000  H
  H29      1.0000 0.87810  0.70440  0.48210  Biso   1.000  H
  H30      1.0000 0.12190  0.29560  0.48210  Biso   1.000  H
  H31      1.0000 0.12810  0.54560  0.73210  Biso   1.000  H
  H32      1.0000 0.37190  0.95440  0.73210  Biso   1.000  H
  C17      1.0000 0.31107  0.23158  0.35490  Biso   1.000  C
  C18      1.0000 0.68893  0.76842  0.35490  Biso   1.000  C
  C19      1.0000 0.56107  0.01842  0.60490  Biso   1.000  C
  C20      1.0000 0.93893  0.48158  0.60490  Biso   1.000  C
  C21      1.0000 0.31107  0.73158  0.85490  Biso   1.000  C
  C22      1.0000 0.68893  0.26842  0.85490  Biso   1.000  C
  C23      1.0000 0.56107  0.51842  0.10490  Biso   1.000  C
  C24      1.0000 0.93893  0.98158  0.10490  Biso   1.000  C
  C25      1.0000 0.81107  0.23158  0.85490  Biso   1.000  C
  C26      1.0000 0.18893  0.76842  0.85490  Biso   1.000  C
  C27      1.0000 0.06107  0.01842  0.10490  Biso   1.000  C
  C28      1.0000 0.43893  0.48158  0.10490  Biso   1.000  C
  C29      1.0000 0.81107  0.73158  0.35490  Biso   1.000  C
  C30      1.0000 0.18893  0.26842  0.35490  Biso   1.000  C
  C31      1.0000 0.06107  0.51842  0.60490  Biso   1.000  C
  C32      1.0000 0.43893  0.98158  0.60490  Biso   1.000  C
  H33      1.0000 0.30840  0.24380  0.48210  Biso   1.000  H
  H34      1.0000 0.69160  0.75620  0.48210  Biso   1.000  H
  H35      1.0000 0.55840  0.00620  0.73210  Biso   1.000  H
  H36      1.0000 0.94160  0.49380  0.73210  Biso   1.000  H
  H37      1.0000 0.30840  0.74380  0.98210  Biso   1.000  H
  H38      1.0000 0.69160  0.25620  0.98210  Biso   1.000  H
  H39      1.0000 0.55840  0.50620  0.23210  Biso   1.000  H
  H40      1.0000 0.94160  0.99380  0.23210  Biso   1.000  H
  H41      1.0000 0.80840  0.24380  0.98210  Biso   1.000  H
  H42      1.0000 0.19160  0.75620  0.98210  Biso   1.000  H
  H43      1.0000 0.05840  0.00620  0.23210  Biso   1.000  H
  H44      1.0000 0.44160  0.49380  0.23210  Biso   1.000  H
  H45      1.0000 0.80840  0.74380  0.48210  Biso   1.000  H
  H46      1.0000 0.19160  0.25620  0.48210  Biso   1.000  H
  H47      1.0000 0.05840  0.50620  0.73210  Biso   1.000  H
  H48      1.0000 0.44160  0.99380  0.73210  Biso   1.000  H
  C33      1.0000 0.27296  0.23737  0.17190  Biso   1.000  C
  C34      1.0000 0.72704  0.76263  0.17190  Biso   1.000  C
  C35      1.0000 0.52296  0.01263  0.42190  Biso   1.000  C
  C36      1.0000 0.97704  0.48737  0.42190  Biso   1.000  C
  C37      1.0000 0.27296  0.73737  0.67190  Biso   1.000  C
  C38      1.0000 0.72704  0.26263  0.67190  Biso   1.000  C
  C39      1.0000 0.52296  0.51263  0.92190  Biso   1.000  C
  C40      1.0000 0.97704  0.98737  0.92190  Biso   1.000  C
  C41      1.0000 0.77296  0.23737  0.67190  Biso   1.000  C
  C42      1.0000 0.22704  0.76263  0.67190  Biso   1.000  C
  C43      1.0000 0.02296  0.01263  0.92190  Biso   1.000  C
  C44      1.0000 0.47704  0.48737  0.92190  Biso   1.000  C
  C45      1.0000 0.77296  0.73737  0.17190  Biso   1.000  C
  C46      1.0000 0.22704  0.26263  0.17190  Biso   1.000  C
  C47      1.0000 0.02296  0.51263  0.42190  Biso   1.000  C
  C48      1.0000 0.47704  0.98737  0.42190  Biso   1.000  C
  C49      1.0000 0.27807  0.21856  0.99210  Biso   1.000  C
  C50      1.0000 0.72193  0.78144  0.99210  Biso   1.000  C
  C51      1.0000 0.52807  0.03144  0.24210  Biso   1.000  C
  C52      1.0000 0.97193  0.46856  0.24210  Biso   1.000  C
  C53      1.0000 0.27807  0.71856  0.49210  Biso   1.000  C
  C54      1.0000 0.72193  0.28144  0.49210  Biso   1.000  C
  C55      1.0000 0.52807  0.53144  0.74210  Biso   1.000  C
  C56      1.0000 0.97193  0.96856  0.74210  Biso   1.000  C
  C57      1.0000 0.77807  0.21856  0.49210  Biso   1.000  C
  C58      1.0000 0.22193  0.78144  0.49210  Biso   1.000  C
  C59      1.0000 0.02807  0.03144  0.74210  Biso   1.000  C
  C60      1.0000 0.47193  0.46856  0.74210  Biso   1.000  C
  C61      1.0000 0.77807  0.71856  0.99210  Biso   1.000  C
  C62      1.0000 0.22193  0.28144  0.99210  Biso   1.000  C
  C63      1.0000 0.02807  0.53144  0.24210  Biso   1.000  C
  C64      1.0000 0.47193  0.96856  0.24210  Biso   1.000  C
  H49      1.0000 0.25150  0.22130  0.86540  Biso   1.000  H
  H50      1.0000 0.74850  0.77870  0.86540  Biso   1.000  H
  H51      1.0000 0.50150  0.02870  0.11540  Biso   1.000  H
  H52      1.0000 0.99850  0.47130  0.11540  Biso   1.000  H
  H53      1.0000 0.25150  0.72130  0.36540  Biso   1.000  H
  H54      1.0000 0.74850  0.27870  0.36540  Biso   1.000  H
  H55      1.0000 0.50150  0.52870  0.61540  Biso   1.000  H
  H56      1.0000 0.99850  0.97130  0.61540  Biso   1.000  H
  H57      1.0000 0.75150  0.22130  0.36540  Biso   1.000  H
  H58      1.0000 0.24850  0.77870  0.36540  Biso   1.000  H
  H59      1.0000 0.00150  0.02870  0.61540  Biso   1.000  H
  H60      1.0000 0.49850  0.47130  0.61540  Biso   1.000  H
  H61      1.0000 0.75150  0.72130  0.86540  Biso   1.000  H
  H62      1.0000 0.24850  0.27870  0.86540  Biso   1.000  H
  H63      1.0000 0.00150  0.52870  0.11540  Biso   1.000  H
  H64      1.0000 0.49850  0.97130  0.11540  Biso   1.000  H
  C65      1.0000 0.32195  0.19592  0.99880  Biso   1.000  C
  C66      1.0000 0.67805  0.80408  0.99880  Biso   1.000  C
  C67      1.0000 0.57195  0.05408  0.24880  Biso   1.000  C
  C68      1.0000 0.92805  0.44592  0.24880  Biso   1.000  C
  C69      1.0000 0.32195  0.69592  0.49880  Biso   1.000  C
  C70      1.0000 0.67805  0.30408  0.49880  Biso   1.000  C
  C71      1.0000 0.57195  0.55408  0.74880  Biso   1.000  C
  C72      1.0000 0.92805  0.94592  0.74880  Biso   1.000  C
  C73      1.0000 0.82195  0.19592  0.49880  Biso   1.000  C
  C74      1.0000 0.17805  0.80408  0.49880  Biso   1.000  C
  C75      1.0000 0.07195  0.05408  0.74880  Biso   1.000  C
  C76      1.0000 0.42805  0.44592  0.74880  Biso   1.000  C
  C77      1.0000 0.82195  0.69592  0.99880  Biso   1.000  C
  C78      1.0000 0.17805  0.30408  0.99880  Biso   1.000  C
  C79      1.0000 0.07195  0.55408  0.24880  Biso   1.000  C
  C80      1.0000 0.42805  0.94592  0.24880  Biso   1.000  C
  H65      1.0000 0.32590  0.18360  0.87260  Biso   1.000  H
  H66      1.0000 0.67410  0.81640  0.87260  Biso   1.000  H
  H67      1.0000 0.57590  0.06640  0.12260  Biso   1.000  H
  H68      1.0000 0.92410  0.43360  0.12260  Biso   1.000  H
  H69      1.0000 0.32590  0.68360  0.37260  Biso   1.000  H
  H70      1.0000 0.67410  0.31640  0.37260  Biso   1.000  H
  H71      1.0000 0.57590  0.56640  0.62260  Biso   1.000  H
  H72      1.0000 0.92410  0.93360  0.62260  Biso   1.000  H
  H73      1.0000 0.82590  0.18360  0.37260  Biso   1.000  H
  H74      1.0000 0.17410  0.81640  0.37260  Biso   1.000  H
  H75      1.0000 0.07590  0.06640  0.62260  Biso   1.000  H
  H76      1.0000 0.42410  0.43360  0.62260  Biso   1.000  H
  H77      1.0000 0.82590  0.68360  0.87260  Biso   1.000  H
  H78      1.0000 0.17410  0.31640  0.87260  Biso   1.000  H
  H79      1.0000 0.07590  0.56640  0.12260  Biso   1.000  H
  H80      1.0000 0.42410  0.93360  0.12260  Biso   1.000  H
  C81      1.0000 0.52028  0.18744  0.52600  Biso   1.000  C
  C82      1.0000 0.47972  0.81256  0.52600  Biso   1.000  C
  C83      1.0000 0.77028  0.06256  0.77600  Biso   1.000  C
  C84      1.0000 0.72972  0.43744  0.77600  Biso   1.000  C
  C85      1.0000 0.52028  0.68744  0.02600  Biso   1.000  C
  C86      1.0000 0.47972  0.31256  0.02600  Biso   1.000  C
  C87      1.0000 0.77028  0.56256  0.27600  Biso   1.000  C
  C88      1.0000 0.72972  0.93744  0.27600  Biso   1.000  C
  C89      1.0000 0.02028  0.18744  0.02600  Biso   1.000  C
  C90      1.0000 0.97972  0.81256  0.02600  Biso   1.000  C
  C91      1.0000 0.27028  0.06256  0.27600  Biso   1.000  C
  C92      1.0000 0.22972  0.43744  0.27600  Biso   1.000  C
  C93      1.0000 0.02028  0.68744  0.52600  Biso   1.000  C
  C94      1.0000 0.97972  0.31256  0.52600  Biso   1.000  C
  C95      1.0000 0.27028  0.56256  0.77600  Biso   1.000  C
  C96      1.0000 0.22972  0.93744  0.77600  Biso   1.000  C
  C97      1.0000 0.51905  0.21484  0.62650  Biso   1.000  C
  C98      1.0000 0.48095  0.78516  0.62650  Biso   1.000  C
  C99      1.0000 0.76905  0.03516  0.87650  Biso   1.000  C
  C100     1.0000 0.73095  0.46484  0.87650  Biso   1.000  C
  C101     1.0000 0.51905  0.71484  0.12650  Biso   1.000  C
  C102     1.0000 0.48095  0.28516  0.12650  Biso   1.000  C
  C103     1.0000 0.76905  0.53516  0.37650  Biso   1.000  C
  C104     1.0000 0.73095  0.96484  0.37650  Biso   1.000  C
  C105     1.0000 0.01905  0.21484  0.12650  Biso   1.000  C
  C106     1.0000 0.98095  0.78516  0.12650  Biso   1.000  C
  C107     1.0000 0.26905  0.03516  0.37650  Biso   1.000  C
  C108     1.0000 0.23095  0.46484  0.37650  Biso   1.000  C
  C109     1.0000 0.01905  0.71484  0.62650  Biso   1.000  C
  C110     1.0000 0.98095  0.28516  0.62650  Biso   1.000  C
  C111     1.0000 0.26905  0.53516  0.87650  Biso   1.000  C
  C112     1.0000 0.23095  0.96484  0.87650  Biso   1.000  C
  H81      1.0000 0.49510  0.21760  0.75920  Biso   1.000  H
  H82      1.0000 0.50490  0.78240  0.75920  Biso   1.000  H
  H83      1.0000 0.74510  0.03240  0.00920  Biso   1.000  H
  H84      1.0000 0.75490  0.46760  0.00920  Biso   1.000  H
  H85      1.0000 0.49510  0.71760  0.25920  Biso   1.000  H
  H86      1.0000 0.50490  0.28240  0.25920  Biso   1.000  H
  H87      1.0000 0.74510  0.53240  0.50920  Biso   1.000  H
  H88      1.0000 0.75490  0.96760  0.50920  Biso   1.000  H
  H89      1.0000 0.99510  0.21760  0.25920  Biso   1.000  H
  H90      1.0000 0.00490  0.78240  0.25920  Biso   1.000  H
  H91      1.0000 0.24510  0.03240  0.50920  Biso   1.000  H
  H92      1.0000 0.25490  0.46760  0.50920  Biso   1.000  H
  H93      1.0000 0.99510  0.71760  0.75920  Biso   1.000  H
  H94      1.0000 0.00490  0.28240  0.75920  Biso   1.000  H
  H95      1.0000 0.24510  0.53240  0.00920  Biso   1.000  H
  H96      1.0000 0.25490  0.96760  0.00920  Biso   1.000  H
  C113     1.0000 0.55241  0.23824  0.53480  Biso   1.000  C
  C114     1.0000 0.44759  0.76176  0.53480  Biso   1.000  C
  C115     1.0000 0.80241  0.01176  0.78480  Biso   1.000  C
  C116     1.0000 0.69759  0.48824  0.78480  Biso   1.000  C
  C117     1.0000 0.55241  0.73824  0.03480  Biso   1.000  C
  C118     1.0000 0.44759  0.26176  0.03480  Biso   1.000  C
  C119     1.0000 0.80241  0.51176  0.28480  Biso   1.000  C
  C120     1.0000 0.69759  0.98824  0.28480  Biso   1.000  C
  C121     1.0000 0.05241  0.23824  0.03480  Biso   1.000  C
  C122     1.0000 0.94759  0.76176  0.03480  Biso   1.000  C
  C123     1.0000 0.30241  0.01176  0.28480  Biso   1.000  C
  C124     1.0000 0.19759  0.48824  0.28480  Biso   1.000  C
  C125     1.0000 0.05241  0.73824  0.53480  Biso   1.000  C
  C126     1.0000 0.94759  0.26176  0.53480  Biso   1.000  C
  C127     1.0000 0.30241  0.51176  0.78480  Biso   1.000  C
  C128     1.0000 0.19759  0.98824  0.78480  Biso   1.000  C
  H97      1.0000 0.55130  0.25690  0.60470  Biso   1.000  H
  H98      1.0000 0.44870  0.74310  0.60470  Biso   1.000  H
  H99      1.0000 0.80130  0.99310  0.85470  Biso   1.000  H
  H100     1.0000 0.69870  0.50690  0.85470  Biso   1.000  H
  H101     1.0000 0.55130  0.75690  0.10470  Biso   1.000  H
  H102     1.0000 0.44870  0.24310  0.10470  Biso   1.000  H
  H103     1.0000 0.80130  0.49310  0.35470  Biso   1.000  H
  H104     1.0000 0.69870  0.00690  0.35470  Biso   1.000  H
  H105     1.0000 0.05130  0.25690  0.10470  Biso   1.000  H
  H106     1.0000 0.94870  0.74310  0.10470  Biso   1.000  H
  H107     1.0000 0.30130  0.99310  0.35470  Biso   1.000  H
  H108     1.0000 0.19870  0.50690  0.35470  Biso   1.000  H
  H109     1.0000 0.05130  0.75690  0.60470  Biso   1.000  H
  H110     1.0000 0.94870  0.24310  0.60470  Biso   1.000  H
  H111     1.0000 0.30130  0.49310  0.85470  Biso   1.000  H
  H112     1.0000 0.19870  0.00690  0.85470  Biso   1.000  H
  C129     1.0000 0.58730  0.23435  0.34090  Biso   1.000  C
  C130     1.0000 0.41270  0.76565  0.34090  Biso   1.000  C
  C131     1.0000 0.83730  0.01565  0.59090  Biso   1.000  C
  C132     1.0000 0.66270  0.48435  0.59090  Biso   1.000  C
  C133     1.0000 0.58730  0.73435  0.84090  Biso   1.000  C
  C134     1.0000 0.41270  0.26565  0.84090  Biso   1.000  C
  C135     1.0000 0.83730  0.51565  0.09090  Biso   1.000  C
  C136     1.0000 0.66270  0.98435  0.09090  Biso   1.000  C
  C137     1.0000 0.08730  0.23435  0.84090  Biso   1.000  C
  C138     1.0000 0.91270  0.76565  0.84090  Biso   1.000  C
  C139     1.0000 0.33730  0.01565  0.09090  Biso   1.000  C
  C140     1.0000 0.16270  0.48435  0.09090  Biso   1.000  C
  C141     1.0000 0.08730  0.73435  0.34090  Biso   1.000  C
  C142     1.0000 0.91270  0.26565  0.34090  Biso   1.000  C
  C143     1.0000 0.33730  0.51565  0.59090  Biso   1.000  C
  C144     1.0000 0.16270  0.98435  0.59090  Biso   1.000  C
  H113     1.0000 0.60910  0.25040  0.27540  Biso   1.000  H
  H114     1.0000 0.39090  0.74960  0.27540  Biso   1.000  H
  H115     1.0000 0.85910  0.99960  0.52540  Biso   1.000  H
  H116     1.0000 0.64090  0.50040  0.52540  Biso   1.000  H
  H117     1.0000 0.60910  0.75040  0.77540  Biso   1.000  H
  H118     1.0000 0.39090  0.24960  0.77540  Biso   1.000  H
  H119     1.0000 0.85910  0.49960  0.02540  Biso   1.000  H
  H120     1.0000 0.64090  0.00040  0.02540  Biso   1.000  H
  H121     1.0000 0.10910  0.25040  0.77540  Biso   1.000  H
  H122     1.0000 0.89090  0.74960  0.77540  Biso   1.000  H
  H123     1.0000 0.35910  0.99960  0.02540  Biso   1.000  H
  H124     1.0000 0.14090  0.50040  0.02540  Biso   1.000  H
  H125     1.0000 0.10910  0.75040  0.27540  Biso   1.000  H
  H126     1.0000 0.89090  0.24960  0.27540  Biso   1.000  H
  H127     1.0000 0.35910  0.49960  0.52540  Biso   1.000  H
  H128     1.0000 0.14090  0.00040  0.52540  Biso   1.000  H
  C145     1.0000 0.59034  0.20691  0.24230  Biso   1.000  C
  C146     1.0000 0.40966  0.79309  0.24230  Biso   1.000  C
  C147     1.0000 0.84034  0.04309  0.49230  Biso   1.000  C
  C148     1.0000 0.65966  0.45691  0.49230  Biso   1.000  C
  C149     1.0000 0.59034  0.70691  0.74230  Biso   1.000  C
  C150     1.0000 0.40966  0.29309  0.74230  Biso   1.000  C
  C151     1.0000 0.84034  0.54309  0.99230  Biso   1.000  C
  C152     1.0000 0.65966  0.95691  0.99230  Biso   1.000  C
  C153     1.0000 0.09034  0.20691  0.74230  Biso   1.000  C
  C154     1.0000 0.90966  0.79309  0.74230  Biso   1.000  C
  C155     1.0000 0.34034  0.04309  0.99230  Biso   1.000  C
  C156     1.0000 0.15966  0.45691  0.99230  Biso   1.000  C
  C157     1.0000 0.09034  0.70691  0.24230  Biso   1.000  C
  C158     1.0000 0.90966  0.29309  0.24230  Biso   1.000  C
  C159     1.0000 0.34034  0.54309  0.49230  Biso   1.000  C
  C160     1.0000 0.15966  0.95691  0.49230  Biso   1.000  C
  H129     1.0000 0.61440  0.20440  0.10970  Biso   1.000  H
  H130     1.0000 0.38560  0.79560  0.10970  Biso   1.000  H
  H131     1.0000 0.86440  0.04560  0.35970  Biso   1.000  H
  H132     1.0000 0.63560  0.45440  0.35970  Biso   1.000  H
  H133     1.0000 0.61440  0.70440  0.60970  Biso   1.000  H
  H134     1.0000 0.38560  0.29560  0.60970  Biso   1.000  H
  H135     1.0000 0.86440  0.54560  0.85970  Biso   1.000  H
  H136     1.0000 0.63560  0.95440  0.85970  Biso   1.000  H
  H137     1.0000 0.11440  0.20440  0.60970  Biso   1.000  H
  H138     1.0000 0.88560  0.79560  0.60970  Biso   1.000  H
  H139     1.0000 0.36440  0.04560  0.85970  Biso   1.000  H
  H140     1.0000 0.13560  0.45440  0.85970  Biso   1.000  H
  H141     1.0000 0.11440  0.70440  0.10970  Biso   1.000  H
  H142     1.0000 0.88560  0.29560  0.10970  Biso   1.000  H
  H143     1.0000 0.36440  0.54560  0.35970  Biso   1.000  H
  H144     1.0000 0.13560  0.95440  0.35970  Biso   1.000  H
  C161     1.0000 0.55860  0.18307  0.33490  Biso   1.000  C
  C162     1.0000 0.44140  0.81693  0.33490  Biso   1.000  C
  C163     1.0000 0.80860  0.06693  0.58490  Biso   1.000  C
  C164     1.0000 0.69140  0.43307  0.58490  Biso   1.000  C
  C165     1.0000 0.55860  0.68307  0.83490  Biso   1.000  C
  C166     1.0000 0.44140  0.31693  0.83490  Biso   1.000  C
  C167     1.0000 0.80860  0.56693  0.08490  Biso   1.000  C
  C168     1.0000 0.69140  0.93307  0.08490  Biso   1.000  C
  C169     1.0000 0.05860  0.18307  0.83490  Biso   1.000  C
  C170     1.0000 0.94140  0.81693  0.83490  Biso   1.000  C
  C171     1.0000 0.30860  0.06693  0.08490  Biso   1.000  C
  C172     1.0000 0.19140  0.43307  0.08490  Biso   1.000  C
  C173     1.0000 0.05860  0.68307  0.33490  Biso   1.000  C
  C174     1.0000 0.94140  0.31693  0.33490  Biso   1.000  C
  C175     1.0000 0.30860  0.56693  0.58490  Biso   1.000  C
  C176     1.0000 0.19140  0.93307  0.58490  Biso   1.000  C
  H145     1.0000 0.71400  0.15010  0.61500  Biso   1.000  H
  H146     1.0000 0.28600  0.84990  0.61500  Biso   1.000  H
  H147     1.0000 0.96400  0.09990  0.86500  Biso   1.000  H
  H148     1.0000 0.53600  0.40010  0.86500  Biso   1.000  H
  H149     1.0000 0.71400  0.65010  0.11500  Biso   1.000  H
  H150     1.0000 0.28600  0.34990  0.11500  Biso   1.000  H
  H151     1.0000 0.96400  0.59990  0.36500  Biso   1.000  H
  H152     1.0000 0.53600  0.90010  0.36500  Biso   1.000  H
  H153     1.0000 0.21400  0.15010  0.11500  Biso   1.000  H
  H154     1.0000 0.78600  0.84990  0.11500  Biso   1.000  H
  H155     1.0000 0.46400  0.09990  0.36500  Biso   1.000  H
  H156     1.0000 0.03600  0.40010  0.36500  Biso   1.000  H
  H157     1.0000 0.21400  0.65010  0.61500  Biso   1.000  H
  H158     1.0000 0.78600  0.34990  0.61500  Biso   1.000  H
  H159     1.0000 0.46400  0.59990  0.86500  Biso   1.000  H
  H160     1.0000 0.03600  0.90010  0.86500  Biso   1.000  H
  H161     1.0000 0.25600  0.15350  0.55800  Biso   1.000  H
  H162     1.0000 0.74400  0.84650  0.55800  Biso   1.000  H
  H163     1.0000 0.50600  0.09650  0.80800  Biso   1.000  H
  H164     1.0000 0.99400  0.40350  0.80800  Biso   1.000  H
  H165     1.0000 0.25600  0.65350  0.05800  Biso   1.000  H
  H166     1.0000 0.74400  0.34650  0.05800  Biso   1.000  H
  H167     1.0000 0.50600  0.59650  0.30800  Biso   1.000  H
  H168     1.0000 0.99400  0.90350  0.30800  Biso   1.000  H
  H169     1.0000 0.75600  0.15350  0.05800  Biso   1.000  H
  H170     1.0000 0.24400  0.84650  0.05800  Biso   1.000  H
  H171     1.0000 0.00600  0.09650  0.30800  Biso   1.000  H
  H172     1.0000 0.49400  0.40350  0.30800  Biso   1.000  H
  H173     1.0000 0.75600  0.65350  0.55800  Biso   1.000  H
  H174     1.0000 0.24400  0.34650  0.55800  Biso   1.000  H
  H175     1.0000 0.00600  0.59650  0.80800  Biso   1.000  H
  H176     1.0000 0.49400  0.90350  0.80800  Biso   1.000  H
  H177     1.0000 0.21000  0.16640  0.68900  Biso   1.000  H
  H178     1.0000 0.79000  0.83360  0.68900  Biso   1.000  H
  H179     1.0000 0.46000  0.08360  0.93900  Biso   1.000  H
  H180     1.0000 0.04000  0.41640  0.93900  Biso   1.000  H
  H181     1.0000 0.21000  0.66640  0.18900  Biso   1.000  H
  H182     1.0000 0.79000  0.33360  0.18900  Biso   1.000  H
  H183     1.0000 0.46000  0.58360  0.43900  Biso   1.000  H
  H184     1.0000 0.04000  0.91640  0.43900  Biso   1.000  H
  H185     1.0000 0.71000  0.16640  0.18900  Biso   1.000  H
  H186     1.0000 0.29000  0.83360  0.18900  Biso   1.000  H
  H187     1.0000 0.96000  0.08360  0.43900  Biso   1.000  H
  H188     1.0000 0.54000  0.41640  0.43900  Biso   1.000  H
  H189     1.0000 0.71000  0.66640  0.68900  Biso   1.000  H
  H190     1.0000 0.29000  0.33360  0.68900  Biso   1.000  H
  H191     1.0000 0.96000  0.58360  0.93900  Biso   1.000  H
  H192     1.0000 0.54000  0.91640  0.93900  Biso   1.000  H
