data_image0
_cell_length_a       8.067
_cell_length_b       13.459
_cell_length_c       7.956
_cell_angle_alpha    90
_cell_angle_beta     115.42
_cell_angle_gamma    90

_symmetry_space_group_name_H-M    "P 1"
_symmetry_int_tables_number       1

loop_
  _symmetry_equiv_pos_as_xyz
  'x, y, z'

loop_
  _atom_site_label
  _atom_site_occupancy
  _atom_site_fract_x
  _atom_site_fract_y
  _atom_site_fract_z
  _atom_site_thermal_displace_type
  _atom_site_B_iso_or_equiv
  _atom_site_type_symbol
  N1       1.0000 0.21960  0.66170  0.96150  Biso   1.000  N
  N2       1.0000 0.78040  0.16170  0.53850  Biso   1.000  N
  N3       1.0000 0.78040  0.33830  0.03850  Biso   1.000  N
  N4       1.0000 0.21960  0.83830  0.46150  Biso   1.000  N
  C1       1.0000 0.24090  0.56610  0.97860  Biso   1.000  C
  C2       1.0000 0.75910  0.06610  0.52140  Biso   1.000  C
  C3       1.0000 0.75910  0.43390  0.02140  Biso   1.000  C
  C4       1.0000 0.24090  0.93390  0.47860  Biso   1.000  C
  C5       1.0000 0.05350  0.69350  0.80040  Biso   1.000  C
  C6       1.0000 0.94650  0.19350  0.69960  Biso   1.000  C
  C7       1.0000 0.94650  0.30650  0.19960  Biso   1.000  C
  C8       1.0000 0.05350  0.80650  0.30040  Biso   1.000  C
  H1       1.0000 0.08700  0.73440  0.71960  Biso   1.000  H
  H2       1.0000 0.91300  0.23440  0.78040  Biso   1.000  H
  H3       1.0000 0.91300  0.26560  0.28040  Biso   1.000  H
  H4       1.0000 0.08700  0.76560  0.21960  Biso   1.000  H
  H5       1.0000 0.99700  0.73590  0.83010  Biso   1.000  H
  H6       1.0000 0.00300  0.23590  0.66990  Biso   1.000  H
  H7       1.0000 0.00300  0.26410  0.16990  Biso   1.000  H
  H8       1.0000 0.99700  0.76410  0.33010  Biso   1.000  H
  C9       1.0000 0.95150  0.60090  0.68950  Biso   1.000  C
  C10      1.0000 0.04850  0.10090  0.81050  Biso   1.000  C
  C11      1.0000 0.04850  0.39910  0.31050  Biso   1.000  C
  C12      1.0000 0.95150  0.89910  0.18950  Biso   1.000  C
  H9       1.0000 0.93170  0.60660  0.55100  Biso   1.000  H
  H10      1.0000 0.06830  0.10660  0.94900  Biso   1.000  H
  H11      1.0000 0.06830  0.39340  0.44900  Biso   1.000  H
  H12      1.0000 0.93170  0.89340  0.05100  Biso   1.000  H
  H13      1.0000 0.83650  0.59560  0.70700  Biso   1.000  H
  H14      1.0000 0.16350  0.09560  0.79300  Biso   1.000  H
  H15      1.0000 0.16350  0.40440  0.29300  Biso   1.000  H
  H16      1.0000 0.83650  0.90440  0.20700  Biso   1.000  H
  N5       1.0000 0.50900  0.59700  0.24240  Biso   1.000  N
  N6       1.0000 0.49100  0.09700  0.25760  Biso   1.000  N
  N7       1.0000 0.49100  0.40300  0.75760  Biso   1.000  N
  N8       1.0000 0.50900  0.90300  0.74240  Biso   1.000  N
  H17      1.0000 0.62930  0.58990  0.24300  Biso   1.000  H
  H18      1.0000 0.37070  0.08990  0.25700  Biso   1.000  H
  H19      1.0000 0.37070  0.41010  0.75700  Biso   1.000  H
  H20      1.0000 0.62930  0.91010  0.74300  Biso   1.000  H
  H21      1.0000 0.52330  0.59540  0.35550  Biso   1.000  H
  H22      1.0000 0.47670  0.09540  0.14450  Biso   1.000  H
  H23      1.0000 0.47670  0.40460  0.64450  Biso   1.000  H
  H24      1.0000 0.52330  0.90460  0.85550  Biso   1.000  H
  N9       1.0000 0.38670  0.52720  0.11950  Biso   1.000  N
  N10      1.0000 0.61330  0.02720  0.38050  Biso   1.000  N
  N11      1.0000 0.61330  0.47280  0.88050  Biso   1.000  N
  N12      1.0000 0.38670  0.97280  0.61950  Biso   1.000  N
  H25      1.0000 0.40500  0.46780  0.13570  Biso   1.000  H
  H26      1.0000 0.59500  0.96780  0.36430  Biso   1.000  H
  H27      1.0000 0.59500  0.53220  0.86430  Biso   1.000  H
  H28      1.0000 0.40500  0.03220  0.63570  Biso   1.000  H
  Cu1      1.0000 0.42530  0.73610  0.15070  Biso   1.000  Cu
  Cu2      1.0000 0.57470  0.23610  0.34930  Biso   1.000  Cu
  Cu3      1.0000 0.57470  0.26390  0.84930  Biso   1.000  Cu
  Cu4      1.0000 0.42530  0.76390  0.65070  Biso   1.000  Cu
  Cl1      1.0000 0.32490  0.88780  0.03480  Biso   1.000  Cl
  Cl2      1.0000 0.67510  0.38780  0.46520  Biso   1.000  Cl
  Cl3      1.0000 0.67510  0.11220  0.96520  Biso   1.000  Cl
  Cl4      1.0000 0.32490  0.61220  0.53480  Biso   1.000  Cl
  Cl5      1.0000 0.64400  0.79040  0.43050  Biso   1.000  Cl
  Cl6      1.0000 0.35600  0.29040  0.06950  Biso   1.000  Cl
  Cl7      1.0000 0.35600  0.20960  0.56950  Biso   1.000  Cl
  Cl8      1.0000 0.64400  0.70960  0.93050  Biso   1.000  Cl
  S1       1.0000 0.07530  0.49120  0.81190  Biso   1.000  S
  S2       1.0000 0.92470  0.99120  0.68810  Biso   1.000  S
  S3       1.0000 0.92470  0.50880  0.18810  Biso   1.000  S
  S4       1.0000 0.07530  0.00880  0.31190  Biso   1.000  S
