data_image0
_cell_length_a       10.368
_cell_length_b       18.377
_cell_length_c       15.845
_cell_angle_alpha    90
_cell_angle_beta     96.86
_cell_angle_gamma    90

_symmetry_space_group_name_H-M    "P 1"
_symmetry_int_tables_number       1

loop_
  _symmetry_equiv_pos_as_xyz
  'x, y, z'

loop_
  _atom_site_label
  _atom_site_occupancy
  _atom_site_fract_x
  _atom_site_fract_y
  _atom_site_fract_z
  _atom_site_thermal_displace_type
  _atom_site_B_iso_or_equiv
  _atom_site_type_symbol
  Fe1      1.0000 0.26486  0.34885  0.72963  Biso   1.000  Fe
  Fe2      1.0000 0.73514  0.84885  0.77037  Biso   1.000  Fe
  Fe3      1.0000 0.73514  0.65115  0.27037  Biso   1.000  Fe
  Fe4      1.0000 0.26486  0.15115  0.22963  Biso   1.000  Fe
  Cu1      1.0000 0.78752  0.24638  0.79447  Biso   1.000  Cu
  Cu2      1.0000 0.21248  0.74638  0.70553  Biso   1.000  Cu
  Cu3      1.0000 0.21248  0.75362  0.20553  Biso   1.000  Cu
  Cu4      1.0000 0.78752  0.25362  0.29447  Biso   1.000  Cu
  C1       1.0000 0.85200  0.35340  0.92880  Biso   1.000  C
  C2       1.0000 0.14800  0.85340  0.57120  Biso   1.000  C
  C3       1.0000 0.14800  0.64660  0.07120  Biso   1.000  C
  C4       1.0000 0.85200  0.14660  0.42880  Biso   1.000  C
  H1       1.0000 0.78420  0.38340  0.90640  Biso   1.000  H
  H2       1.0000 0.21580  0.88340  0.59360  Biso   1.000  H
  H3       1.0000 0.21580  0.61660  0.09360  Biso   1.000  H
  H4       1.0000 0.78420  0.11660  0.40640  Biso   1.000  H
  C5       1.0000 0.98520  0.26610  0.94810  Biso   1.000  C
  C6       1.0000 0.01480  0.76610  0.55190  Biso   1.000  C
  C7       1.0000 0.01480  0.73390  0.05190  Biso   1.000  C
  C8       1.0000 0.98520  0.23390  0.44810  Biso   1.000  C
  H5       1.0000 0.02710  0.22230  0.94000  Biso   1.000  H
  H6       1.0000 0.97290  0.72230  0.56000  Biso   1.000  H
  H7       1.0000 0.97290  0.77770  0.06000  Biso   1.000  H
  H8       1.0000 0.02710  0.27770  0.44000  Biso   1.000  H
  C9       1.0000 0.01910  0.31230  0.01070  Biso   1.000  C
  C10      1.0000 0.98090  0.81230  0.48930  Biso   1.000  C
  C11      1.0000 0.98090  0.68770  0.98930  Biso   1.000  C
  C12      1.0000 0.01910  0.18770  0.51070  Biso   1.000  C
  H9       1.0000 0.08720  0.30730  0.05410  Biso   1.000  H
  H10      1.0000 0.91280  0.80730  0.44590  Biso   1.000  H
  H11      1.0000 0.91280  0.69270  0.94590  Biso   1.000  H
  H12      1.0000 0.08720  0.19270  0.55410  Biso   1.000  H
  C13      1.0000 0.93190  0.42910  0.05840  Biso   1.000  C
  C14      1.0000 0.06810  0.92910  0.44160  Biso   1.000  C
  C15      1.0000 0.06810  0.57090  0.94160  Biso   1.000  C
  C16      1.0000 0.93190  0.07090  0.55840  Biso   1.000  C
  H13      1.0000 0.93690  0.41060  0.11610  Biso   1.000  H
  H14      1.0000 0.06310  0.91060  0.38390  Biso   1.000  H
  H15      1.0000 0.06310  0.58940  0.88390  Biso   1.000  H
  H16      1.0000 0.93690  0.08940  0.61610  Biso   1.000  H
  H17      1.0000 0.84960  0.45430  0.04600  Biso   1.000  H
  H18      1.0000 0.15040  0.95430  0.45400  Biso   1.000  H
  H19      1.0000 0.15040  0.54570  0.95400  Biso   1.000  H
  H20      1.0000 0.84960  0.04570  0.54600  Biso   1.000  H
  C17      1.0000 0.03940  0.48120  0.05270  Biso   1.000  C
  C18      1.0000 0.96060  0.98120  0.44730  Biso   1.000  C
  C19      1.0000 0.96060  0.51880  0.94730  Biso   1.000  C
  C20      1.0000 0.03940  0.01880  0.55270  Biso   1.000  C
  H21      1.0000 0.12220  0.45770  0.04860  Biso   1.000  H
  H22      1.0000 0.87780  0.95770  0.45140  Biso   1.000  H
  H23      1.0000 0.87780  0.54230  0.95140  Biso   1.000  H
  H24      1.0000 0.12220  0.04230  0.54860  Biso   1.000  H
  H25      1.0000 0.04760  0.51700  0.09800  Biso   1.000  H
  H26      1.0000 0.95240  0.01700  0.40200  Biso   1.000  H
  H27      1.0000 0.95240  0.48300  0.90200  Biso   1.000  H
  H28      1.0000 0.04760  0.98300  0.59800  Biso   1.000  H
  C21      1.0000 0.65390  0.15280  0.91570  Biso   1.000  C
  C22      1.0000 0.34610  0.65280  0.58430  Biso   1.000  C
  C23      1.0000 0.34610  0.84720  0.08430  Biso   1.000  C
  C24      1.0000 0.65390  0.34720  0.41570  Biso   1.000  C
  H29      1.0000 0.58180  0.18330  0.91030  Biso   1.000  H
  H30      1.0000 0.41820  0.68330  0.58970  Biso   1.000  H
  H31      1.0000 0.41820  0.81670  0.08970  Biso   1.000  H
  H32      1.0000 0.58180  0.31670  0.41030  Biso   1.000  H
  C25      1.0000 0.82770  0.10220  0.89570  Biso   1.000  C
  C26      1.0000 0.17230  0.60220  0.60430  Biso   1.000  C
  C27      1.0000 0.17230  0.89780  0.10430  Biso   1.000  C
  C28      1.0000 0.82770  0.39780  0.39570  Biso   1.000  C
  H33      1.0000 0.90320  0.09060  0.87220  Biso   1.000  H
  H34      1.0000 0.09680  0.59060  0.62780  Biso   1.000  H
  H35      1.0000 0.09680  0.90940  0.12780  Biso   1.000  H
  H36      1.0000 0.90320  0.40940  0.37220  Biso   1.000  H
  C29      1.0000 0.78860  0.06740  0.96250  Biso   1.000  C
  C30      1.0000 0.21140  0.56740  0.53750  Biso   1.000  C
  C31      1.0000 0.21140  0.93260  0.03750  Biso   1.000  C
  C32      1.0000 0.78860  0.43260  0.46250  Biso   1.000  C
  H37      1.0000 0.82930  0.02900  0.99340  Biso   1.000  H
  H38      1.0000 0.17070  0.52900  0.50660  Biso   1.000  H
  H39      1.0000 0.17070  0.97100  0.00660  Biso   1.000  H
  H40      1.0000 0.82930  0.47100  0.49340  Biso   1.000  H
  C33      1.0000 0.59220  0.08740  0.04250  Biso   1.000  C
  C34      1.0000 0.40780  0.58740  0.45750  Biso   1.000  C
  C35      1.0000 0.40780  0.91260  0.95750  Biso   1.000  C
  C36      1.0000 0.59220  0.41260  0.54250  Biso   1.000  C
  H41      1.0000 0.64740  0.08470  0.09630  Biso   1.000  H
  H42      1.0000 0.35260  0.58470  0.40370  Biso   1.000  H
  H43      1.0000 0.35260  0.91530  0.90370  Biso   1.000  H
  H44      1.0000 0.64740  0.41530  0.59630  Biso   1.000  H
  H45      1.0000 0.53350  0.12810  0.04570  Biso   1.000  H
  H46      1.0000 0.46650  0.62810  0.45430  Biso   1.000  H
  H47      1.0000 0.46650  0.87190  0.95430  Biso   1.000  H
  H48      1.0000 0.53350  0.37190  0.54570  Biso   1.000  H
  C37      1.0000 0.51900  0.02340  0.03150  Biso   1.000  C
  C38      1.0000 0.48100  0.52340  0.46850  Biso   1.000  C
  C39      1.0000 0.48100  0.97660  0.96850  Biso   1.000  C
  C40      1.0000 0.51900  0.47660  0.53150  Biso   1.000  C
  H49      1.0000 0.56130  0.99200  0.07560  Biso   1.000  H
  H50      1.0000 0.43870  0.49200  0.42440  Biso   1.000  H
  H51      1.0000 0.43870  0.00800  0.92440  Biso   1.000  H
  H52      1.0000 0.56130  0.50800  0.57560  Biso   1.000  H
  H53      1.0000 0.43760  0.03730  0.05140  Biso   1.000  H
  H54      1.0000 0.56240  0.53730  0.44860  Biso   1.000  H
  H55      1.0000 0.56240  0.96270  0.94860  Biso   1.000  H
  H56      1.0000 0.43760  0.46270  0.55140  Biso   1.000  H
  C41      1.0000 0.60820  0.15610  0.67840  Biso   1.000  C
  C42      1.0000 0.39180  0.65610  0.82160  Biso   1.000  C
  C43      1.0000 0.39180  0.84390  0.32160  Biso   1.000  C
  C44      1.0000 0.60820  0.34390  0.17840  Biso   1.000  C
  H57      1.0000 0.58160  0.12950  0.72320  Biso   1.000  H
  H58      1.0000 0.41840  0.62950  0.77680  Biso   1.000  H
  H59      1.0000 0.41840  0.87050  0.27680  Biso   1.000  H
  H60      1.0000 0.58160  0.37050  0.22320  Biso   1.000  H
  C45      1.0000 0.70320  0.23260  0.60590  Biso   1.000  C
  C46      1.0000 0.29680  0.73260  0.89410  Biso   1.000  C
  C47      1.0000 0.29680  0.76740  0.39410  Biso   1.000  C
  C48      1.0000 0.70320  0.26740  0.10590  Biso   1.000  C
  H61      1.0000 0.75730  0.26990  0.59190  Biso   1.000  H
  H62      1.0000 0.24270  0.76990  0.90810  Biso   1.000  H
  H63      1.0000 0.24270  0.73010  0.40810  Biso   1.000  H
  H64      1.0000 0.75730  0.23010  0.09190  Biso   1.000  H
  C49      1.0000 0.62390  0.19490  0.55010  Biso   1.000  C
  C50      1.0000 0.37610  0.69490  0.94990  Biso   1.000  C
  C51      1.0000 0.37610  0.80510  0.44990  Biso   1.000  C
  C52      1.0000 0.62390  0.30510  0.05010  Biso   1.000  C
  H65      1.0000 0.61170  0.20070  0.49140  Biso   1.000  H
  H66      1.0000 0.38830  0.70070  0.00860  Biso   1.000  H
  H67      1.0000 0.38830  0.79930  0.50860  Biso   1.000  H
  H68      1.0000 0.61170  0.29930  0.99140  Biso   1.000  H
  C53      1.0000 0.47360  0.08840  0.56230  Biso   1.000  C
  C54      1.0000 0.52640  0.58840  0.93770  Biso   1.000  C
  C55      1.0000 0.52640  0.91160  0.43770  Biso   1.000  C
  C56      1.0000 0.47360  0.41160  0.06230  Biso   1.000  C
  H69      1.0000 0.40670  0.11020  0.52210  Biso   1.000  H
  H70      1.0000 0.59330  0.61020  0.97790  Biso   1.000  H
  H71      1.0000 0.59330  0.88980  0.47790  Biso   1.000  H
  H72      1.0000 0.40670  0.38980  0.02210  Biso   1.000  H
  H73      1.0000 0.43170  0.06650  0.60760  Biso   1.000  H
  H74      1.0000 0.56830  0.56650  0.89240  Biso   1.000  H
  H75      1.0000 0.56830  0.93350  0.39240  Biso   1.000  H
  H76      1.0000 0.43170  0.43350  0.10760  Biso   1.000  H
  C57      1.0000 0.54360  0.03030  0.51800  Biso   1.000  C
  C58      1.0000 0.45640  0.53030  0.98200  Biso   1.000  C
  C59      1.0000 0.45640  0.96970  0.48200  Biso   1.000  C
  C60      1.0000 0.54360  0.46970  0.01800  Biso   1.000  C
  H77      1.0000 0.58390  0.05260  0.47220  Biso   1.000  H
  H78      1.0000 0.41610  0.55260  0.02780  Biso   1.000  H
  H79      1.0000 0.41610  0.94740  0.52780  Biso   1.000  H
  H80      1.0000 0.58390  0.44740  0.97220  Biso   1.000  H
  H81      1.0000 0.61220  0.01000  0.55810  Biso   1.000  H
  H82      1.0000 0.38780  0.51000  0.94190  Biso   1.000  H
  H83      1.0000 0.38780  0.99000  0.44190  Biso   1.000  H
  H84      1.0000 0.61220  0.49000  0.05810  Biso   1.000  H
  C61      1.0000 0.01750  0.24950  0.72880  Biso   1.000  C
  C62      1.0000 0.98250  0.74950  0.77120  Biso   1.000  C
  C63      1.0000 0.98250  0.75050  0.27120  Biso   1.000  C
  C64      1.0000 0.01750  0.25050  0.22880  Biso   1.000  C
  C65      1.0000 0.12710  0.27700  0.68360  Biso   1.000  C
  C66      1.0000 0.87290  0.77700  0.81640  Biso   1.000  C
  C67      1.0000 0.87290  0.72300  0.31640  Biso   1.000  C
  C68      1.0000 0.12710  0.22300  0.18360  Biso   1.000  C
  C69      1.0000 0.25460  0.24360  0.68820  Biso   1.000  C
  C70      1.0000 0.74540  0.74360  0.81180  Biso   1.000  C
  C71      1.0000 0.74540  0.75640  0.31180  Biso   1.000  C
  C72      1.0000 0.25460  0.25640  0.18820  Biso   1.000  C
  H85      1.0000 0.28350  0.20260  0.71910  Biso   1.000  H
  H86      1.0000 0.71650  0.70260  0.78090  Biso   1.000  H
  H87      1.0000 0.71650  0.79740  0.28090  Biso   1.000  H
  H88      1.0000 0.28350  0.29740  0.21910  Biso   1.000  H
  C73      1.0000 0.32630  0.28690  0.63560  Biso   1.000  C
  C74      1.0000 0.67370  0.78690  0.86440  Biso   1.000  C
  C75      1.0000 0.67370  0.71310  0.36440  Biso   1.000  C
  C76      1.0000 0.32630  0.21310  0.13560  Biso   1.000  C
  H89      1.0000 0.41190  0.27880  0.62620  Biso   1.000  H
  H90      1.0000 0.58810  0.77880  0.87380  Biso   1.000  H
  H91      1.0000 0.58810  0.72120  0.37380  Biso   1.000  H
  H92      1.0000 0.41190  0.22120  0.12620  Biso   1.000  H
  C77      1.0000 0.24860  0.34290  0.60060  Biso   1.000  C
  C78      1.0000 0.75140  0.84290  0.89940  Biso   1.000  C
  C79      1.0000 0.75140  0.65710  0.39940  Biso   1.000  C
  C80      1.0000 0.24860  0.15710  0.10060  Biso   1.000  C
  H93      1.0000 0.27360  0.37830  0.56390  Biso   1.000  H
  H94      1.0000 0.72640  0.87830  0.93610  Biso   1.000  H
  H95      1.0000 0.72640  0.62170  0.43610  Biso   1.000  H
  H96      1.0000 0.27360  0.12170  0.06390  Biso   1.000  H
  C81      1.0000 0.12470  0.33790  0.62960  Biso   1.000  C
  C82      1.0000 0.87530  0.83790  0.87040  Biso   1.000  C
  C83      1.0000 0.87530  0.66210  0.37040  Biso   1.000  C
  C84      1.0000 0.12470  0.16210  0.12960  Biso   1.000  C
  H97      1.0000 0.05480  0.36920  0.61560  Biso   1.000  H
  H98      1.0000 0.94520  0.86920  0.88440  Biso   1.000  H
  H99      1.0000 0.94520  0.63080  0.38440  Biso   1.000  H
  H100     1.0000 0.05480  0.13080  0.11560  Biso   1.000  H
  C85      1.0000 0.56310  0.36440  0.79530  Biso   1.000  C
  C86      1.0000 0.43690  0.86440  0.70470  Biso   1.000  C
  C87      1.0000 0.43690  0.63560  0.20470  Biso   1.000  C
  C88      1.0000 0.56310  0.13560  0.29530  Biso   1.000  C
  C89      1.0000 0.42450  0.38400  0.80490  Biso   1.000  C
  C90      1.0000 0.57550  0.88400  0.69510  Biso   1.000  C
  C91      1.0000 0.57550  0.61600  0.19510  Biso   1.000  C
  C92      1.0000 0.42450  0.11600  0.30490  Biso   1.000  C
  C93      1.0000 0.35260  0.44490  0.76740  Biso   1.000  C
  C94      1.0000 0.64740  0.94490  0.73260  Biso   1.000  C
  C95      1.0000 0.64740  0.55510  0.23260  Biso   1.000  C
  C96      1.0000 0.35260  0.05510  0.26740  Biso   1.000  C
  H101     1.0000 0.38420  0.48000  0.73300  Biso   1.000  H
  H102     1.0000 0.61580  0.98000  0.76700  Biso   1.000  H
  H103     1.0000 0.61580  0.52000  0.26700  Biso   1.000  H
  H104     1.0000 0.38420  0.02000  0.23300  Biso   1.000  H
  C97      1.0000 0.22670  0.44250  0.79140  Biso   1.000  C
  C98      1.0000 0.77330  0.94250  0.70860  Biso   1.000  C
  C99      1.0000 0.77330  0.55750  0.20860  Biso   1.000  C
  C100     1.0000 0.22670  0.05750  0.29140  Biso   1.000  C
  H105     1.0000 0.16000  0.47540  0.77550  Biso   1.000  H
  H106     1.0000 0.84000  0.97540  0.72450  Biso   1.000  H
  H107     1.0000 0.84000  0.52460  0.22450  Biso   1.000  H
  H108     1.0000 0.16000  0.02460  0.27550  Biso   1.000  H
  C101     1.0000 0.21980  0.37970  0.84510  Biso   1.000  C
  C102     1.0000 0.78020  0.87970  0.65490  Biso   1.000  C
  C103     1.0000 0.78020  0.62030  0.15490  Biso   1.000  C
  C104     1.0000 0.21980  0.12030  0.34510  Biso   1.000  C
  H109     1.0000 0.14720  0.36480  0.86990  Biso   1.000  H
  H110     1.0000 0.85280  0.86480  0.63010  Biso   1.000  H
  H111     1.0000 0.85280  0.63520  0.13010  Biso   1.000  H
  H112     1.0000 0.14720  0.13520  0.36990  Biso   1.000  H
  C105     1.0000 0.34100  0.34460  0.85390  Biso   1.000  C
  C106     1.0000 0.65900  0.84460  0.64610  Biso   1.000  C
  C107     1.0000 0.65900  0.65540  0.14610  Biso   1.000  C
  C108     1.0000 0.34100  0.15540  0.35390  Biso   1.000  C
  H113     1.0000 0.36300  0.30310  0.88600  Biso   1.000  H
  H114     1.0000 0.63700  0.80310  0.61400  Biso   1.000  H
  H115     1.0000 0.63700  0.69690  0.11400  Biso   1.000  H
  H116     1.0000 0.36300  0.19690  0.38600  Biso   1.000  H
  N1       1.0000 0.88240  0.29120  0.89810  Biso   1.000  N
  N2       1.0000 0.11760  0.79120  0.60190  Biso   1.000  N
  N3       1.0000 0.11760  0.70880  0.10190  Biso   1.000  N
  N4       1.0000 0.88240  0.20880  0.39810  Biso   1.000  N
  N5       1.0000 0.93590  0.36720  0.99900  Biso   1.000  N
  N6       1.0000 0.06410  0.86720  0.50100  Biso   1.000  N
  N7       1.0000 0.06410  0.63280  0.00100  Biso   1.000  N
  N8       1.0000 0.93590  0.13280  0.49900  Biso   1.000  N
  N9       1.0000 0.74540  0.15600  0.86610  Biso   1.000  N
  N10      1.0000 0.25460  0.65600  0.63390  Biso   1.000  N
  N11      1.0000 0.25460  0.84400  0.13390  Biso   1.000  N
  N12      1.0000 0.74540  0.34400  0.36610  Biso   1.000  N
  N13      1.0000 0.67410  0.10170  0.97460  Biso   1.000  N
  N14      1.0000 0.32590  0.60170  0.52540  Biso   1.000  N
  N15      1.0000 0.32590  0.89830  0.02540  Biso   1.000  N
  N16      1.0000 0.67410  0.39830  0.47460  Biso   1.000  N
  N17      1.0000 0.69410  0.20849  0.68830  Biso   1.000  N
  N18      1.0000 0.30590  0.70849  0.81170  Biso   1.000  N
  N19      1.0000 0.30590  0.79151  0.31170  Biso   1.000  N
  N20      1.0000 0.69410  0.29151  0.18830  Biso   1.000  N
  N21      1.0000 0.56340  0.14518  0.59780  Biso   1.000  N
  N22      1.0000 0.43660  0.64518  0.90220  Biso   1.000  N
  N23      1.0000 0.43660  0.85482  0.40220  Biso   1.000  N
  N24      1.0000 0.56340  0.35482  0.09780  Biso   1.000  N
  O1       1.0000 0.92010  0.29149  0.72719  Biso   1.000  O
  O2       1.0000 0.07990  0.79149  0.77281  Biso   1.000  O
  O3       1.0000 0.07990  0.70851  0.27281  Biso   1.000  O
  O4       1.0000 0.92010  0.20851  0.22719  Biso   1.000  O
  O5       1.0000 0.02530  0.18978  0.76440  Biso   1.000  O
  O6       1.0000 0.97470  0.68978  0.73560  Biso   1.000  O
  O7       1.0000 0.97470  0.81022  0.23560  Biso   1.000  O
  O8       1.0000 0.02530  0.31022  0.26440  Biso   1.000  O
  O9       1.0000 0.60440  0.30386  0.82370  Biso   1.000  O
  O10      1.0000 0.39560  0.80386  0.67630  Biso   1.000  O
  O11      1.0000 0.39560  0.69614  0.17630  Biso   1.000  O
  O12      1.0000 0.60440  0.19614  0.32370  Biso   1.000  O
  O13      1.0000 0.62600  0.40962  0.75910  Biso   1.000  O
  O14      1.0000 0.37400  0.90962  0.74090  Biso   1.000  O
  O15      1.0000 0.37400  0.59038  0.24090  Biso   1.000  O
  O16      1.0000 0.62600  0.09038  0.25910  Biso   1.000  O
  O17      1.0000 0.60370  0.56070  0.73330  Biso   1.000  O
  O18      1.0000 0.39630  0.06070  0.76670  Biso   1.000  O
  O19      1.0000 0.39630  0.43930  0.26670  Biso   1.000  O
  O20      1.0000 0.60370  0.93930  0.23330  Biso   1.000  O
  O21      1.0000 0.87300  0.43975  0.72470  Biso   1.000  O
  O22      1.0000 0.12700  0.93975  0.77530  Biso   1.000  O
  O23      1.0000 0.12700  0.56025  0.27530  Biso   1.000  O
  O24      1.0000 0.87300  0.06025  0.22470  Biso   1.000  O
  O25      1.0000 0.16670  0.07480  0.84950  Biso   1.000  O
  O26      1.0000 0.83330  0.57480  0.65050  Biso   1.000  O
  O27      1.0000 0.83330  0.92520  0.15050  Biso   1.000  O
  O28      1.0000 0.16670  0.42520  0.34950  Biso   1.000  O
  H117     1.0000 0.67300  0.54200  0.75800  Biso   1.000  H
  H118     1.0000 0.32700  0.04200  0.74200  Biso   1.000  H
  H119     1.0000 0.32700  0.45800  0.24200  Biso   1.000  H
  H120     1.0000 0.67300  0.95800  0.25800  Biso   1.000  H
  H121     1.0000 0.56600  0.52000  0.74100  Biso   1.000  H
  H122     1.0000 0.43400  0.02000  0.75900  Biso   1.000  H
  H123     1.0000 0.43400  0.48000  0.25900  Biso   1.000  H
  H124     1.0000 0.56600  0.98000  0.24100  Biso   1.000  H
  H125     1.0000 0.86800  0.48000  0.75300  Biso   1.000  H
  H126     1.0000 0.13200  0.98000  0.74700  Biso   1.000  H
  H127     1.0000 0.13200  0.52000  0.24700  Biso   1.000  H
  H128     1.0000 0.86800  0.02000  0.25300  Biso   1.000  H
  H129     1.0000 0.86600  0.39300  0.73300  Biso   1.000  H
  H130     1.0000 0.13400  0.89300  0.76700  Biso   1.000  H
  H131     1.0000 0.13400  0.60700  0.26700  Biso   1.000  H
  H132     1.0000 0.86600  0.10700  0.23300  Biso   1.000  H
  H133     1.0000 0.23000  0.11300  0.86100  Biso   1.000  H
  H134     1.0000 0.77000  0.61300  0.63900  Biso   1.000  H
  H135     1.0000 0.77000  0.88700  0.13900  Biso   1.000  H
  H136     1.0000 0.23000  0.38700  0.36100  Biso   1.000  H
  H137     1.0000 0.11000  0.09500  0.81100  Biso   1.000  H
  H138     1.0000 0.89000  0.59500  0.68900  Biso   1.000  H
  H139     1.0000 0.89000  0.90500  0.18900  Biso   1.000  H
  H140     1.0000 0.11000  0.40500  0.31100  Biso   1.000  H
