data_image0
_cell_length_a       8.9023
_cell_length_b       8.7362
_cell_length_c       24.059
_cell_angle_alpha    90
_cell_angle_beta     93.75
_cell_angle_gamma    90

_symmetry_space_group_name_H-M    "P 1"
_symmetry_int_tables_number       1

loop_
  _symmetry_equiv_pos_as_xyz
  'x, y, z'

loop_
  _atom_site_label
  _atom_site_occupancy
  _atom_site_fract_x
  _atom_site_fract_y
  _atom_site_fract_z
  _atom_site_thermal_displace_type
  _atom_site_B_iso_or_equiv
  _atom_site_type_symbol
  C1       1.0000 0.53220  0.93860  0.38090  Biso   1.000  C
  C2       1.0000 0.96780  0.93860  0.11910  Biso   1.000  C
  C3       1.0000 0.46780  0.06140  0.61910  Biso   1.000  C
  C4       1.0000 0.03220  0.06140  0.88090  Biso   1.000  C
  H1       1.0000 0.44950  0.99940  0.37030  Biso   1.000  H
  H2       1.0000 0.05050  0.99940  0.12970  Biso   1.000  H
  H3       1.0000 0.55050  0.00060  0.62970  Biso   1.000  H
  H4       1.0000 0.94950  0.00060  0.87030  Biso   1.000  H
  C5       1.0000 0.70640  0.82020  0.42960  Biso   1.000  C
  C6       1.0000 0.79360  0.82020  0.07040  Biso   1.000  C
  C7       1.0000 0.29360  0.17980  0.57040  Biso   1.000  C
  C8       1.0000 0.20640  0.17980  0.92960  Biso   1.000  C
  H5       1.0000 0.76630  0.78440  0.45990  Biso   1.000  H
  H6       1.0000 0.73370  0.78440  0.04010  Biso   1.000  H
  H7       1.0000 0.23370  0.21560  0.54010  Biso   1.000  H
  H8       1.0000 0.26630  0.21560  0.95990  Biso   1.000  H
  C9       1.0000 0.72440  0.78400  0.37560  Biso   1.000  C
  C10      1.0000 0.77560  0.78400  0.12440  Biso   1.000  C
  C11      1.0000 0.27560  0.21600  0.62440  Biso   1.000  C
  C12      1.0000 0.22440  0.21600  0.87560  Biso   1.000  C
  H9       1.0000 0.79750  0.72040  0.36200  Biso   1.000  H
  H10      1.0000 0.70250  0.72040  0.13800  Biso   1.000  H
  H11      1.0000 0.20250  0.27960  0.63800  Biso   1.000  H
  H12      1.0000 0.29750  0.27960  0.86200  Biso   1.000  H
  C13      1.0000 0.58170  0.85070  0.28420  Biso   1.000  C
  C14      1.0000 0.91830  0.85070  0.21580  Biso   1.000  C
  C15      1.0000 0.41830  0.14930  0.71580  Biso   1.000  C
  C16      1.0000 0.08170  0.14930  0.78420  Biso   1.000  C
  H13      1.0000 0.47840  0.88270  0.27570  Biso   1.000  H
  H14      1.0000 0.02160  0.88270  0.22430  Biso   1.000  H
  H15      1.0000 0.52160  0.11730  0.72430  Biso   1.000  H
  H16      1.0000 0.97840  0.11730  0.77570  Biso   1.000  H
  H17      1.0000 0.58860  0.74410  0.27330  Biso   1.000  H
  H18      1.0000 0.91140  0.74410  0.22670  Biso   1.000  H
  H19      1.0000 0.41140  0.25590  0.72670  Biso   1.000  H
  H20      1.0000 0.08860  0.25590  0.77330  Biso   1.000  H
  C17      1.0000 0.67930  0.94130  0.24880  Biso   1.000  C
  C18      1.0000 0.82070  0.94130  0.25120  Biso   1.000  C
  C19      1.0000 0.32070  0.05870  0.75120  Biso   1.000  C
  C20      1.0000 0.17930  0.05870  0.74880  Biso   1.000  C
  H21      1.0000 0.64780  0.91450  0.21070  Biso   1.000  H
  H22      1.0000 0.85220  0.91450  0.28930  Biso   1.000  H
  H23      1.0000 0.35220  0.08550  0.78930  Biso   1.000  H
  H24      1.0000 0.14780  0.08550  0.71070  Biso   1.000  H
  H25      1.0000 0.65010  0.04720  0.25360  Biso   1.000  H
  H26      1.0000 0.84990  0.04720  0.24640  Biso   1.000  H
  H27      1.0000 0.34990  0.95280  0.74640  Biso   1.000  H
  H28      1.0000 0.15010  0.95280  0.75360  Biso   1.000  H
  C21      1.0000 0.42150  0.35490  0.35653  Biso   1.000  C
  C22      1.0000 0.07850  0.35490  0.14347  Biso   1.000  C
  C23      1.0000 0.57850  0.64510  0.64347  Biso   1.000  C
  C24      1.0000 0.92150  0.64510  0.85653  Biso   1.000  C
  H29      1.0000 0.33570  0.34620  0.37630  Biso   1.000  H
  H30      1.0000 0.16430  0.34620  0.12370  Biso   1.000  H
  H31      1.0000 0.66430  0.65380  0.62370  Biso   1.000  H
  H32      1.0000 0.83570  0.65380  0.87630  Biso   1.000  H
  C25      1.0000 0.56770  0.35810  0.29034  Biso   1.000  C
  C26      1.0000 0.93230  0.35810  0.20966  Biso   1.000  C
  C27      1.0000 0.43230  0.64190  0.70966  Biso   1.000  C
  C28      1.0000 0.06770  0.64190  0.79034  Biso   1.000  C
  H33      1.0000 0.60350  0.35210  0.25490  Biso   1.000  H
  H34      1.0000 0.89650  0.35210  0.24510  Biso   1.000  H
  H35      1.0000 0.39650  0.64790  0.74510  Biso   1.000  H
  H36      1.0000 0.10350  0.64790  0.75490  Biso   1.000  H
  C29      1.0000 0.65370  0.39290  0.33765  Biso   1.000  C
  C30      1.0000 0.84630  0.39290  0.16235  Biso   1.000  C
  C31      1.0000 0.34630  0.60710  0.66235  Biso   1.000  C
  C32      1.0000 0.15370  0.60710  0.83765  Biso   1.000  C
  H37      1.0000 0.75620  0.41400  0.34080  Biso   1.000  H
  H38      1.0000 0.74380  0.41400  0.15920  Biso   1.000  H
  H39      1.0000 0.24380  0.58600  0.65920  Biso   1.000  H
  H40      1.0000 0.25620  0.58600  0.84080  Biso   1.000  H
  C33      1.0000 0.59990  0.41420  0.43927  Biso   1.000  C
  C34      1.0000 0.90010  0.41420  0.06073  Biso   1.000  C
  C35      1.0000 0.40010  0.58580  0.56073  Biso   1.000  C
  C36      1.0000 0.09990  0.58580  0.93927  Biso   1.000  C
  H41      1.0000 0.68730  0.48060  0.44300  Biso   1.000  H
  H42      1.0000 0.81270  0.48060  0.05700  Biso   1.000  H
  H43      1.0000 0.31270  0.51940  0.55700  Biso   1.000  H
  H44      1.0000 0.18730  0.51940  0.94300  Biso   1.000  H
  H45      1.0000 0.62760  0.31670  0.45630  Biso   1.000  H
  H46      1.0000 0.87240  0.31670  0.04370  Biso   1.000  H
  H47      1.0000 0.37240  0.68330  0.54370  Biso   1.000  H
  H48      1.0000 0.12760  0.68330  0.95630  Biso   1.000  H
  C37      1.0000 0.47340  0.48480  0.46983  Biso   1.000  C
  C38      1.0000 0.02660  0.48480  0.03017  Biso   1.000  C
  C39      1.0000 0.52660  0.51520  0.53017  Biso   1.000  C
  C40      1.0000 0.97340  0.51520  0.96983  Biso   1.000  C
  H49      1.0000 0.38780  0.41580  0.46840  Biso   1.000  H
  H50      1.0000 0.11220  0.41580  0.03160  Biso   1.000  H
  H51      1.0000 0.61220  0.58420  0.53160  Biso   1.000  H
  H52      1.0000 0.88780  0.58420  0.96840  Biso   1.000  H
  H53      1.0000 0.44180  0.58000  0.45190  Biso   1.000  H
  H54      1.0000 0.05820  0.58000  0.04810  Biso   1.000  H
  H55      1.0000 0.55820  0.42000  0.54810  Biso   1.000  H
  H56      1.0000 0.94180  0.42000  0.95190  Biso   1.000  H
  C41      1.0000 0.22480  0.96530  0.45295  Biso   1.000  C
  C42      1.0000 0.27520  0.96530  0.04705  Biso   1.000  C
  C43      1.0000 0.77520  0.03470  0.54705  Biso   1.000  C
  C44      1.0000 0.72480  0.03470  0.95295  Biso   1.000  C
  C45      1.0000 0.07260  0.98750  0.42267  Biso   1.000  C
  C46      1.0000 0.42740  0.98750  0.07733  Biso   1.000  C
  C47      1.0000 0.92740  0.01250  0.57733  Biso   1.000  C
  C48      1.0000 0.57260  0.01250  0.92267  Biso   1.000  C
  H57      1.0000 0.99700  0.98200  0.44990  Biso   1.000  H
  H58      1.0000 0.50300  0.98200  0.05010  Biso   1.000  H
  H59      1.0000 0.00300  0.01800  0.55010  Biso   1.000  H
  H60      1.0000 0.49700  0.01800  0.94990  Biso   1.000  H
  H61      1.0000 0.05500  0.90220  0.39730  Biso   1.000  H
  H62      1.0000 0.44500  0.90220  0.10270  Biso   1.000  H
  H63      1.0000 0.94500  0.09780  0.60270  Biso   1.000  H
  H64      1.0000 0.55500  0.09780  0.89730  Biso   1.000  H
  C49      1.0000 0.04730  0.13370  0.38986  Biso   1.000  C
  C50      1.0000 0.45270  0.13370  0.11014  Biso   1.000  C
  C51      1.0000 0.95270  0.86630  0.61014  Biso   1.000  C
  C52      1.0000 0.54730  0.86630  0.88986  Biso   1.000  C
  H65      1.0000 0.94020  0.14520  0.38060  Biso   1.000  H
  H66      1.0000 0.55980  0.14520  0.11940  Biso   1.000  H
  H67      1.0000 0.05980  0.85480  0.61940  Biso   1.000  H
  H68      1.0000 0.44020  0.85480  0.88060  Biso   1.000  H
  H69      1.0000 0.07930  0.21930  0.41340  Biso   1.000  H
  H70      1.0000 0.42070  0.21930  0.08660  Biso   1.000  H
  H71      1.0000 0.92070  0.78070  0.58660  Biso   1.000  H
  H72      1.0000 0.57930  0.78070  0.91340  Biso   1.000  H
  C53      1.0000 0.12840  0.14200  0.33692  Biso   1.000  C
  C54      1.0000 0.37160  0.14200  0.16308  Biso   1.000  C
  C55      1.0000 0.87160  0.85800  0.66308  Biso   1.000  C
  C56      1.0000 0.62840  0.85800  0.83692  Biso   1.000  C
  N1       1.0000 0.58530  0.91830  0.43253  Biso   1.000  N
  N2       1.0000 0.91470  0.91830  0.06747  Biso   1.000  N
  N3       1.0000 0.41470  0.08170  0.56747  Biso   1.000  N
  N4       1.0000 0.08530  0.08170  0.93253  Biso   1.000  N
  N5       1.0000 0.61320  0.86010  0.34519  Biso   1.000  N
  N6       1.0000 0.88680  0.86010  0.15481  Biso   1.000  N
  N7       1.0000 0.38680  0.13990  0.65481  Biso   1.000  N
  N8       1.0000 0.11320  0.13990  0.84519  Biso   1.000  N
  N9       1.0000 0.42410  0.33390  0.30203  Biso   1.000  N
  N10      1.0000 0.07590  0.33390  0.19797  Biso   1.000  N
  N11      1.0000 0.57590  0.66610  0.69797  Biso   1.000  N
  N12      1.0000 0.92410  0.66610  0.80203  Biso   1.000  N
  N13      1.0000 0.55720  0.38990  0.37927  Biso   1.000  N
  N14      1.0000 0.94280  0.38990  0.12073  Biso   1.000  N
  N15      1.0000 0.44280  0.61010  0.62073  Biso   1.000  N
  N16      1.0000 0.05720  0.61010  0.87927  Biso   1.000  N
  O1       1.0000 0.20130  0.03430  0.31994  Biso   1.000  O
  O2       1.0000 0.29870  0.03430  0.18006  Biso   1.000  O
  O3       1.0000 0.79870  0.96570  0.68006  Biso   1.000  O
  O4       1.0000 0.70130  0.96570  0.81994  Biso   1.000  O
  O5       1.0000 0.11780  0.27150  0.31156  Biso   1.000  O
  O6       1.0000 0.38220  0.27150  0.18844  Biso   1.000  O
  O7       1.0000 0.88220  0.72850  0.68844  Biso   1.000  O
  O8       1.0000 0.61780  0.72850  0.81156  Biso   1.000  O
  O9       1.0000 0.31970  0.07410  0.45373  Biso   1.000  O
  O10      1.0000 0.18030  0.07410  0.04627  Biso   1.000  O
  O11      1.0000 0.68030  0.92590  0.54627  Biso   1.000  O
  O12      1.0000 0.81970  0.92590  0.95373  Biso   1.000  O
  O13      1.0000 0.24970  0.84250  0.47695  Biso   1.000  O
  O14      1.0000 0.25030  0.84250  0.02305  Biso   1.000  O
  O15      1.0000 0.75030  0.15750  0.52305  Biso   1.000  O
  O16      1.0000 0.74970  0.15750  0.97695  Biso   1.000  O
  O17      1.0000 0.00930  0.54290  0.35076  Biso   1.000  O
  O18      1.0000 0.49070  0.54290  0.14924  Biso   1.000  O
  O19      1.0000 0.99070  0.45710  0.64924  Biso   1.000  O
  O20      1.0000 0.50930  0.45710  0.85076  Biso   1.000  O
  O21      1.0000 0.04360  0.60330  0.46249  Biso   1.000  O
  O22      1.0000 0.45640  0.60330  0.03751  Biso   1.000  O
  O23      1.0000 0.95640  0.39670  0.53751  Biso   1.000  O
  O24      1.0000 0.54360  0.39670  0.96249  Biso   1.000  O
  O25      1.0000 0.22650  0.72010  0.30637  Biso   1.000  O
  O26      1.0000 0.27350  0.72010  0.19363  Biso   1.000  O
  O27      1.0000 0.77350  0.27990  0.69363  Biso   1.000  O
  O28      1.0000 0.72650  0.27990  0.80637  Biso   1.000  O
  Cu1      1.0000 0.25000  0.28734  0.25000  Biso   1.000  Cu
  Cu2      1.0000 0.75000  0.71266  0.75000  Biso   1.000  Cu
  Cu3      1.0000 0.50000  0.00000  0.50000  Biso   1.000  Cu
  Cu4      1.0000 0.00000  0.00000  0.00000  Biso   1.000  Cu
