data_image0
_cell_length_a       14.272
_cell_length_b       11.363
_cell_length_c       11.432
_cell_angle_alpha    90
_cell_angle_beta     115.15
_cell_angle_gamma    90

_symmetry_space_group_name_H-M    "P 1"
_symmetry_int_tables_number       1

loop_
  _symmetry_equiv_pos_as_xyz
  'x, y, z'

loop_
  _atom_site_label
  _atom_site_occupancy
  _atom_site_fract_x
  _atom_site_fract_y
  _atom_site_fract_z
  _atom_site_thermal_displace_type
  _atom_site_B_iso_or_equiv
  _atom_site_type_symbol
  N1       1.0000 0.08610  0.17721  0.36481  Biso   1.000  N
  N2       1.0000 0.58610  0.67721  0.36481  Biso   1.000  N
  N3       1.0000 0.91390  0.17721  0.13519  Biso   1.000  N
  N4       1.0000 0.41390  0.67721  0.13519  Biso   1.000  N
  N5       1.0000 0.91390  0.82279  0.63519  Biso   1.000  N
  N6       1.0000 0.41390  0.32279  0.63519  Biso   1.000  N
  N7       1.0000 0.08610  0.82279  0.86481  Biso   1.000  N
  N8       1.0000 0.58610  0.32279  0.86481  Biso   1.000  N
  C1       1.0000 0.14124  0.25900  0.33000  Biso   1.000  C
  C2       1.0000 0.64124  0.75900  0.33000  Biso   1.000  C
  C3       1.0000 0.85876  0.25900  0.17000  Biso   1.000  C
  C4       1.0000 0.35876  0.75900  0.17000  Biso   1.000  C
  C5       1.0000 0.85876  0.74100  0.67000  Biso   1.000  C
  C6       1.0000 0.35876  0.24100  0.67000  Biso   1.000  C
  C7       1.0000 0.14124  0.74100  0.83000  Biso   1.000  C
  C8       1.0000 0.64124  0.24100  0.83000  Biso   1.000  C
  H1       1.0000 0.15980  0.25110  0.26160  Biso   1.000  H
  H2       1.0000 0.65980  0.75110  0.26160  Biso   1.000  H
  H3       1.0000 0.84020  0.25110  0.23840  Biso   1.000  H
  H4       1.0000 0.34020  0.75110  0.23840  Biso   1.000  H
  H5       1.0000 0.84020  0.74890  0.73840  Biso   1.000  H
  H6       1.0000 0.34020  0.24890  0.73840  Biso   1.000  H
  H7       1.0000 0.15980  0.74890  0.76160  Biso   1.000  H
  H8       1.0000 0.65980  0.24890  0.76160  Biso   1.000  H
  C9       1.0000 0.16410  0.35250  0.41110  Biso   1.000  C
  C10      1.0000 0.66410  0.85250  0.41110  Biso   1.000  C
  C11      1.0000 0.83590  0.35250  0.08890  Biso   1.000  C
  C12      1.0000 0.33590  0.85250  0.08890  Biso   1.000  C
  C13      1.0000 0.83590  0.64750  0.58890  Biso   1.000  C
  C14      1.0000 0.33590  0.14750  0.58890  Biso   1.000  C
  C15      1.0000 0.16410  0.64750  0.91110  Biso   1.000  C
  C16      1.0000 0.66410  0.14750  0.91110  Biso   1.000  C
  H9       1.0000 0.20060  0.41960  0.40880  Biso   1.000  H
  H10      1.0000 0.70060  0.91960  0.40880  Biso   1.000  H
  H11      1.0000 0.79940  0.41960  0.09120  Biso   1.000  H
  H12      1.0000 0.29940  0.91960  0.09120  Biso   1.000  H
  H13      1.0000 0.79940  0.58040  0.59120  Biso   1.000  H
  H14      1.0000 0.29940  0.08040  0.59120  Biso   1.000  H
  H15      1.0000 0.20060  0.58040  0.90880  Biso   1.000  H
  H16      1.0000 0.70060  0.08040  0.90880  Biso   1.000  H
  C17      1.0000 0.07623  0.22312  0.46540  Biso   1.000  C
  C18      1.0000 0.57623  0.72312  0.46540  Biso   1.000  C
  C19      1.0000 0.92377  0.22312  0.03460  Biso   1.000  C
  C20      1.0000 0.42377  0.72312  0.03460  Biso   1.000  C
  C21      1.0000 0.92377  0.77688  0.53460  Biso   1.000  C
  C22      1.0000 0.42377  0.27688  0.53460  Biso   1.000  C
  C23      1.0000 0.07623  0.77688  0.96540  Biso   1.000  C
  C24      1.0000 0.57623  0.27688  0.96540  Biso   1.000  C
  H17      1.0000 0.04150  0.18690  0.50850  Biso   1.000  H
  H18      1.0000 0.54150  0.68690  0.50850  Biso   1.000  H
  H19      1.0000 0.95850  0.18690  0.99150  Biso   1.000  H
  H20      1.0000 0.45850  0.68690  0.99150  Biso   1.000  H
  H21      1.0000 0.95850  0.81310  0.49150  Biso   1.000  H
  H22      1.0000 0.45850  0.31310  0.49150  Biso   1.000  H
  H23      1.0000 0.04150  0.81310  0.00850  Biso   1.000  H
  H24      1.0000 0.54150  0.31310  0.00850  Biso   1.000  H
  C25      1.0000 0.12290  0.40640  0.60030  Biso   1.000  C
  C26      1.0000 0.62290  0.90640  0.60030  Biso   1.000  C
  C27      1.0000 0.87710  0.40640  0.89970  Biso   1.000  C
  C28      1.0000 0.37710  0.90640  0.89970  Biso   1.000  C
  C29      1.0000 0.87710  0.59360  0.39970  Biso   1.000  C
  C30      1.0000 0.37710  0.09360  0.39970  Biso   1.000  C
  C31      1.0000 0.12290  0.59360  0.10030  Biso   1.000  C
  C32      1.0000 0.62290  0.09360  0.10030  Biso   1.000  C
  H25      1.0000 0.10930  0.36020  0.66280  Biso   1.000  H
  H26      1.0000 0.60930  0.86020  0.66280  Biso   1.000  H
  H27      1.0000 0.89070  0.36020  0.83720  Biso   1.000  H
  H28      1.0000 0.39070  0.86020  0.83720  Biso   1.000  H
  H29      1.0000 0.89070  0.63980  0.33720  Biso   1.000  H
  H30      1.0000 0.39070  0.13980  0.33720  Biso   1.000  H
  H31      1.0000 0.10930  0.63980  0.16280  Biso   1.000  H
  H32      1.0000 0.60930  0.13980  0.16280  Biso   1.000  H
  H33      1.0000 0.19070  0.44190  0.64460  Biso   1.000  H
  H34      1.0000 0.69070  0.94190  0.64460  Biso   1.000  H
  H35      1.0000 0.80930  0.44190  0.85540  Biso   1.000  H
  H36      1.0000 0.30930  0.94190  0.85540  Biso   1.000  H
  H37      1.0000 0.80930  0.55810  0.35540  Biso   1.000  H
  H38      1.0000 0.30930  0.05810  0.35540  Biso   1.000  H
  H39      1.0000 0.19070  0.55810  0.14460  Biso   1.000  H
  H40      1.0000 0.69070  0.05810  0.14460  Biso   1.000  H
  C33      1.0000 0.04460  0.49940  0.54850  Biso   1.000  C
  C34      1.0000 0.54460  0.99940  0.54850  Biso   1.000  C
  C35      1.0000 0.95540  0.49940  0.95150  Biso   1.000  C
  C36      1.0000 0.45540  0.99940  0.95150  Biso   1.000  C
  C37      1.0000 0.95540  0.50060  0.45150  Biso   1.000  C
  C38      1.0000 0.45540  0.00060  0.45150  Biso   1.000  C
  C39      1.0000 0.04460  0.50060  0.04850  Biso   1.000  C
  C40      1.0000 0.54460  0.00060  0.04850  Biso   1.000  C
  H41      1.0000 0.03080  0.52280  0.62130  Biso   1.000  H
  H42      1.0000 0.53080  0.02280  0.62130  Biso   1.000  H
  H43      1.0000 0.96920  0.52280  0.87870  Biso   1.000  H
  H44      1.0000 0.46920  0.02280  0.87870  Biso   1.000  H
  H45      1.0000 0.96920  0.47720  0.37870  Biso   1.000  H
  H46      1.0000 0.46920  0.97720  0.37870  Biso   1.000  H
  H47      1.0000 0.03080  0.47720  0.12130  Biso   1.000  H
  H48      1.0000 0.53080  0.97720  0.12130  Biso   1.000  H
  H49      1.0000 0.08140  0.56490  0.53300  Biso   1.000  H
  H50      1.0000 0.58140  0.06490  0.53300  Biso   1.000  H
  H51      1.0000 0.91860  0.56490  0.96700  Biso   1.000  H
  H52      1.0000 0.41860  0.06490  0.96700  Biso   1.000  H
  H53      1.0000 0.91860  0.43510  0.46700  Biso   1.000  H
  H54      1.0000 0.41860  0.93510  0.46700  Biso   1.000  H
  H55      1.0000 0.08140  0.43510  0.03300  Biso   1.000  H
  H56      1.0000 0.58140  0.93510  0.03300  Biso   1.000  H
  C41      1.0000 0.84506  0.85789  0.12710  Biso   1.000  C
  C42      1.0000 0.34506  0.35789  0.12710  Biso   1.000  C
  C43      1.0000 0.15494  0.85789  0.37290  Biso   1.000  C
  C44      1.0000 0.65494  0.35789  0.37290  Biso   1.000  C
  C45      1.0000 0.15494  0.14211  0.87290  Biso   1.000  C
  C46      1.0000 0.65494  0.64211  0.87290  Biso   1.000  C
  C47      1.0000 0.84506  0.14211  0.62710  Biso   1.000  C
  C48      1.0000 0.34506  0.64211  0.62710  Biso   1.000  C
  C49      1.0000 0.78970  0.78390  0.00850  Biso   1.000  C
  C50      1.0000 0.28970  0.28390  0.00850  Biso   1.000  C
  C51      1.0000 0.21030  0.78390  0.49150  Biso   1.000  C
  C52      1.0000 0.71030  0.28390  0.49150  Biso   1.000  C
  C53      1.0000 0.21030  0.21610  0.99150  Biso   1.000  C
  C54      1.0000 0.71030  0.71610  0.99150  Biso   1.000  C
  C55      1.0000 0.78970  0.21610  0.50850  Biso   1.000  C
  C56      1.0000 0.28970  0.71610  0.50850  Biso   1.000  C
  H57      1.0000 0.81290  0.78600  0.94380  Biso   1.000  H
  H58      1.0000 0.31290  0.28600  0.94380  Biso   1.000  H
  H59      1.0000 0.18710  0.78600  0.55620  Biso   1.000  H
  H60      1.0000 0.68710  0.28600  0.55620  Biso   1.000  H
  H61      1.0000 0.18710  0.21400  0.05620  Biso   1.000  H
  H62      1.0000 0.68710  0.71400  0.05620  Biso   1.000  H
  H63      1.0000 0.81290  0.21400  0.44380  Biso   1.000  H
  H64      1.0000 0.31290  0.71400  0.44380  Biso   1.000  H
  N9       1.0000 0.12260  0.32841  0.49729  Biso   1.000  N
  N10      1.0000 0.62260  0.82841  0.49729  Biso   1.000  N
  N11      1.0000 0.87740  0.32841  0.00271  Biso   1.000  N
  N12      1.0000 0.37740  0.82841  0.00271  Biso   1.000  N
  N13      1.0000 0.87740  0.67159  0.50271  Biso   1.000  N
  N14      1.0000 0.37740  0.17159  0.50271  Biso   1.000  N
  N15      1.0000 0.12260  0.67159  0.99729  Biso   1.000  N
  N16      1.0000 0.62260  0.17159  0.99729  Biso   1.000  N
  O1       1.0000 0.91501  0.92569  0.12236  Biso   1.000  O
  O2       1.0000 0.41501  0.42569  0.12236  Biso   1.000  O
  O3       1.0000 0.08499  0.92569  0.37764  Biso   1.000  O
  O4       1.0000 0.58499  0.42569  0.37764  Biso   1.000  O
  O5       1.0000 0.08499  0.07431  0.87764  Biso   1.000  O
  O6       1.0000 0.58499  0.57431  0.87764  Biso   1.000  O
  O7       1.0000 0.91501  0.07431  0.62236  Biso   1.000  O
  O8       1.0000 0.41501  0.57431  0.62236  Biso   1.000  O
  O9       1.0000 0.81995  0.84999  0.21746  Biso   1.000  O
  O10      1.0000 0.31995  0.34999  0.21746  Biso   1.000  O
  O11      1.0000 0.18005  0.84999  0.28254  Biso   1.000  O
  O12      1.0000 0.68005  0.34999  0.28254  Biso   1.000  O
  O13      1.0000 0.18005  0.15001  0.78254  Biso   1.000  O
  O14      1.0000 0.68005  0.65001  0.78254  Biso   1.000  O
  O15      1.0000 0.81995  0.15001  0.71746  Biso   1.000  O
  O16      1.0000 0.31995  0.65001  0.71746  Biso   1.000  O
  O17      1.0000 0.11245  0.04242  0.13671  Biso   1.000  O
  O18      1.0000 0.61245  0.54242  0.13671  Biso   1.000  O
  O19      1.0000 0.88755  0.04242  0.36329  Biso   1.000  O
  O20      1.0000 0.38755  0.54242  0.36329  Biso   1.000  O
  O21      1.0000 0.88755  0.95758  0.86329  Biso   1.000  O
  O22      1.0000 0.38755  0.45758  0.86329  Biso   1.000  O
  O23      1.0000 0.11245  0.95758  0.63671  Biso   1.000  O
  O24      1.0000 0.61245  0.45758  0.63671  Biso   1.000  O
  Cu1      1.0000 0.00000  0.04657  0.25000  Biso   1.000  Cu
  Cu2      1.0000 0.50000  0.54657  0.25000  Biso   1.000  Cu
  Cu3      1.0000 0.00000  0.95343  0.75000  Biso   1.000  Cu
  Cu4      1.0000 0.50000  0.45343  0.75000  Biso   1.000  Cu
  H65      1.0000 0.14100  0.97550  0.16500  Biso   1.000  H
  H66      1.0000 0.64100  0.47550  0.16500  Biso   1.000  H
  H67      1.0000 0.85900  0.97550  0.33500  Biso   1.000  H
  H68      1.0000 0.35900  0.47550  0.33500  Biso   1.000  H
  H69      1.0000 0.85900  0.02450  0.83500  Biso   1.000  H
  H70      1.0000 0.35900  0.52450  0.83500  Biso   1.000  H
  H71      1.0000 0.14100  0.02450  0.66500  Biso   1.000  H
  H72      1.0000 0.64100  0.52450  0.66500  Biso   1.000  H
  H73      1.0000 0.09700  0.04600  0.05270  Biso   1.000  H
  H74      1.0000 0.59700  0.54600  0.05270  Biso   1.000  H
  H75      1.0000 0.90300  0.04600  0.44730  Biso   1.000  H
  H76      1.0000 0.40300  0.54600  0.44730  Biso   1.000  H
  H77      1.0000 0.90300  0.95400  0.94730  Biso   1.000  H
  H78      1.0000 0.40300  0.45400  0.94730  Biso   1.000  H
  H79      1.0000 0.09700  0.95400  0.55270  Biso   1.000  H
  H80      1.0000 0.59700  0.45400  0.55270  Biso   1.000  H
