data_image0
_cell_length_a       9.694
_cell_length_b       9.962
_cell_length_c       9.301
_cell_angle_alpha    90
_cell_angle_beta     90
_cell_angle_gamma    90

_symmetry_space_group_name_H-M    "P 1"
_symmetry_int_tables_number       1

loop_
  _symmetry_equiv_pos_as_xyz
  'x, y, z'

loop_
  _atom_site_label
  _atom_site_occupancy
  _atom_site_fract_x
  _atom_site_fract_y
  _atom_site_fract_z
  _atom_site_thermal_displace_type
  _atom_site_B_iso_or_equiv
  _atom_site_type_symbol
  Cu1      1.0000 0.17760  0.09650  0.94170  Biso   1.000  Cu
  Cu2      1.0000 0.32240  0.90350  0.44170  Biso   1.000  Cu
  Cu3      1.0000 0.67760  0.40350  0.05830  Biso   1.000  Cu
  Cu4      1.0000 0.82240  0.59650  0.55830  Biso   1.000  Cu
  O1       1.0000 0.23400  0.01120  0.12720  Biso   1.000  O
  O2       1.0000 0.26600  0.98880  0.62720  Biso   1.000  O
  O3       1.0000 0.73400  0.48880  0.87280  Biso   1.000  O
  O4       1.0000 0.76600  0.51120  0.37280  Biso   1.000  O
  O5       1.0000 0.15340  0.96540  0.34760  Biso   1.000  O
  O6       1.0000 0.34660  0.03460  0.84760  Biso   1.000  O
  O7       1.0000 0.65340  0.53460  0.65240  Biso   1.000  O
  O8       1.0000 0.84660  0.46540  0.15240  Biso   1.000  O
  O9       1.0000 0.78310  0.19340  0.02200  Biso   1.000  O
  O10      1.0000 0.71690  0.80660  0.52200  Biso   1.000  O
  O11      1.0000 0.28310  0.30660  0.97800  Biso   1.000  O
  O12      1.0000 0.21690  0.69340  0.47800  Biso   1.000  O
  O13      1.0000 0.56870  0.00000  0.05100  Biso   1.000  O
  O14      1.0000 0.93130  0.00000  0.55100  Biso   1.000  O
  O15      1.0000 0.06870  0.50000  0.94900  Biso   1.000  O
  O16      1.0000 0.43130  0.50000  0.44900  Biso   1.000  O
  N1       1.0000 0.00500  0.11000  0.03500  Biso   1.000  N
  N2       1.0000 0.49500  0.89000  0.53500  Biso   1.000  N
  N3       1.0000 0.50500  0.39000  0.96500  Biso   1.000  N
  N4       1.0000 0.99500  0.61000  0.46500  Biso   1.000  N
  N5       1.0000 0.07720  0.18300  0.77660  Biso   1.000  N
  N6       1.0000 0.42280  0.81700  0.27660  Biso   1.000  N
  N7       1.0000 0.57720  0.31700  0.22340  Biso   1.000  N
  N8       1.0000 0.92280  0.68300  0.72340  Biso   1.000  N
  C1       1.0000 0.13800  0.00800  0.21900  Biso   1.000  C
  C2       1.0000 0.36200  0.99200  0.71900  Biso   1.000  C
  C3       1.0000 0.63800  0.49200  0.78100  Biso   1.000  C
  C4       1.0000 0.86200  0.50800  0.28100  Biso   1.000  C
  C5       1.0000 0.99100  0.04800  0.17700  Biso   1.000  C
  C6       1.0000 0.50900  0.95200  0.67700  Biso   1.000  C
  C7       1.0000 0.49100  0.45200  0.82300  Biso   1.000  C
  C8       1.0000 0.00900  0.54800  0.32300  Biso   1.000  C
  C9       1.0000 0.89500  0.92500  0.17800  Biso   1.000  C
  C10      1.0000 0.60500  0.07500  0.67800  Biso   1.000  C
  C11      1.0000 0.39500  0.57500  0.82200  Biso   1.000  C
  C12      1.0000 0.10500  0.42500  0.32200  Biso   1.000  C
  C13      1.0000 0.91700  0.83100  0.05900  Biso   1.000  C
  C14      1.0000 0.58300  0.16900  0.55900  Biso   1.000  C
  C15      1.0000 0.41700  0.66900  0.94100  Biso   1.000  C
  C16      1.0000 0.08300  0.33100  0.44100  Biso   1.000  C
  C17      1.0000 0.90300  0.17100  0.97100  Biso   1.000  C
  C18      1.0000 0.59700  0.82900  0.47100  Biso   1.000  C
  C19      1.0000 0.40300  0.32900  0.02900  Biso   1.000  C
  C20      1.0000 0.09700  0.67100  0.52900  Biso   1.000  C
  C21      1.0000 0.93700  0.22200  0.82200  Biso   1.000  C
  C22      1.0000 0.56300  0.77800  0.32200  Biso   1.000  C
  C23      1.0000 0.43700  0.27800  0.17800  Biso   1.000  C
  C24      1.0000 0.06300  0.72200  0.67800  Biso   1.000  C
