data_image0
_cell_length_a       19.242
_cell_length_b       9.311
_cell_length_c       5.4149
_cell_angle_alpha    90
_cell_angle_beta     93.181
_cell_angle_gamma    90

_symmetry_space_group_name_H-M    "P 1"
_symmetry_int_tables_number       1

loop_
  _symmetry_equiv_pos_as_xyz
  'x, y, z'

loop_
  _atom_site_label
  _atom_site_occupancy
  _atom_site_fract_x
  _atom_site_fract_y
  _atom_site_fract_z
  _atom_site_thermal_displace_type
  _atom_site_B_iso_or_equiv
  _atom_site_type_symbol
  Cu1      1.0000 0.18981  0.00600  0.43240  Biso   1.000  Cu
  Cu2      1.0000 0.81019  0.00600  0.56760  Biso   1.000  Cu
  Cu3      1.0000 0.68981  0.50600  0.43240  Biso   1.000  Cu
  Cu4      1.0000 0.31019  0.50600  0.56760  Biso   1.000  Cu
  O1       1.0000 0.23920  0.19200  0.48100  Biso   1.000  O
  O2       1.0000 0.76080  0.19200  0.51900  Biso   1.000  O
  O3       1.0000 0.73920  0.69200  0.48100  Biso   1.000  O
  O4       1.0000 0.26080  0.69200  0.51900  Biso   1.000  O
  O5       1.0000 0.25140  0.40900  0.31300  Biso   1.000  O
  O6       1.0000 0.74860  0.40900  0.68700  Biso   1.000  O
  O7       1.0000 0.75140  0.90900  0.31300  Biso   1.000  O
  O8       1.0000 0.24860  0.90900  0.68700  Biso   1.000  O
  O9       1.0000 0.11230  0.05200  0.73600  Biso   1.000  O
  O10      1.0000 0.88770  0.05200  0.26400  Biso   1.000  O
  O11      1.0000 0.61230  0.55200  0.73600  Biso   1.000  O
  O12      1.0000 0.38770  0.55200  0.26400  Biso   1.000  O
  O13      1.0000 0.50000  0.41700  0.50000  Biso   1.000  O
  O14      1.0000 0.00000  0.91700  0.50000  Biso   1.000  O
  N1       1.0000 0.15640  0.09600  0.13400  Biso   1.000  N
  N2       1.0000 0.84360  0.09600  0.86600  Biso   1.000  N
  N3       1.0000 0.65640  0.59600  0.13400  Biso   1.000  N
  N4       1.0000 0.34360  0.59600  0.86600  Biso   1.000  N
  N5       1.0000 0.13520  0.83500  0.29600  Biso   1.000  N
  N6       1.0000 0.86480  0.83500  0.70400  Biso   1.000  N
  N7       1.0000 0.63520  0.33500  0.29600  Biso   1.000  N
  N8       1.0000 0.36480  0.33500  0.70400  Biso   1.000  N
  C1       1.0000 0.22760  0.28300  0.31100  Biso   1.000  C
  C2       1.0000 0.77240  0.28300  0.68900  Biso   1.000  C
  C3       1.0000 0.72760  0.78300  0.31100  Biso   1.000  C
  C4       1.0000 0.27240  0.78300  0.68900  Biso   1.000  C
  C5       1.0000 0.17650  0.24100  0.09100  Biso   1.000  C
  C6       1.0000 0.82350  0.24100  0.90900  Biso   1.000  C
  C7       1.0000 0.67650  0.74100  0.09100  Biso   1.000  C
  C8       1.0000 0.32350  0.74100  0.90900  Biso   1.000  C
  C9       1.0000 0.11290  0.34400  0.05700  Biso   1.000  C
  C10      1.0000 0.88710  0.34400  0.94300  Biso   1.000  C
  C11      1.0000 0.61290  0.84400  0.05700  Biso   1.000  C
  C12      1.0000 0.38710  0.84400  0.94300  Biso   1.000  C
  C13      1.0000 0.13390  0.48600  0.95100  Biso   1.000  C
  C14      1.0000 0.86610  0.48600  0.04900  Biso   1.000  C
  C15      1.0000 0.63390  0.98600  0.95100  Biso   1.000  C
  C16      1.0000 0.36610  0.98600  0.04900  Biso   1.000  C
  C17      1.0000 0.12770  0.01600  0.95700  Biso   1.000  C
  C18      1.0000 0.87230  0.01600  0.04300  Biso   1.000  C
  C19      1.0000 0.62770  0.51600  0.95700  Biso   1.000  C
  C20      1.0000 0.37230  0.51600  0.04300  Biso   1.000  C
  C21      1.0000 0.11310  0.86100  0.03200  Biso   1.000  C
  C22      1.0000 0.88690  0.86100  0.96800  Biso   1.000  C
  C23      1.0000 0.61310  0.36100  0.03200  Biso   1.000  C
  C24      1.0000 0.38690  0.36100  0.96800  Biso   1.000  C
  C25      1.0000 0.07380  0.35100  0.29100  Biso   1.000  C
  C26      1.0000 0.92620  0.35100  0.70900  Biso   1.000  C
  C27      1.0000 0.57380  0.85100  0.29100  Biso   1.000  C
  C28      1.0000 0.42620  0.85100  0.70900  Biso   1.000  C
