data_image0
_cell_length_a       8.916
_cell_length_b       9.685
_cell_length_c       12.676
_cell_angle_alpha    70.32
_cell_angle_beta     75.49
_cell_angle_gamma    77.27

_symmetry_space_group_name_H-M    "P 1"
_symmetry_int_tables_number       1

loop_
  _symmetry_equiv_pos_as_xyz
  'x, y, z'

loop_
  _atom_site_label
  _atom_site_occupancy
  _atom_site_fract_x
  _atom_site_fract_y
  _atom_site_fract_z
  _atom_site_thermal_displace_type
  _atom_site_B_iso_or_equiv
  _atom_site_type_symbol
  Cu1      1.0000 0.14982  0.36247  0.73711  Biso   1.000  Cu
  Cu2      1.0000 0.85018  0.63753  0.26289  Biso   1.000  Cu
  Mn1      1.0000 0.00000  0.00000  0.00000  Biso   1.000  Mn
  C1       1.0000 0.72530  0.95830  0.91590  Biso   1.000  C
  C2       1.0000 0.27470  0.04170  0.08410  Biso   1.000  C
  C3       1.0000 0.59450  0.03450  0.84900  Biso   1.000  C
  C4       1.0000 0.40550  0.96550  0.15100  Biso   1.000  C
  H1       1.0000 0.62790  0.02660  0.77200  Biso   1.000  H
  H2       1.0000 0.37210  0.97340  0.22800  Biso   1.000  H
  H3       1.0000 0.50280  0.98540  0.88510  Biso   1.000  H
  H4       1.0000 0.49720  0.01460  0.11490  Biso   1.000  H
  C5       1.0000 0.43110  0.27010  0.80720  Biso   1.000  C
  C6       1.0000 0.56890  0.72990  0.19280  Biso   1.000  C
  C7       1.0000 0.39220  0.42840  0.81430  Biso   1.000  C
  C8       1.0000 0.60780  0.57160  0.18570  Biso   1.000  C
  H5       1.0000 0.38540  0.42910  0.89180  Biso   1.000  H
  H6       1.0000 0.61460  0.57090  0.10820  Biso   1.000  H
  H7       1.0000 0.47220  0.48680  0.76400  Biso   1.000  H
  H8       1.0000 0.52780  0.51320  0.23600  Biso   1.000  H
  C9       1.0000 0.17830  0.62670  0.76460  Biso   1.000  C
  C10      1.0000 0.82170  0.37330  0.23540  Biso   1.000  C
  C11      1.0000 0.02080  0.65910  0.72860  Biso   1.000  C
  C12      1.0000 0.97920  0.34090  0.27140  Biso   1.000  C
  H9       1.0000 0.93830  0.67910  0.79030  Biso   1.000  H
  H10      1.0000 0.06170  0.32090  0.20970  Biso   1.000  H
  H11      1.0000 0.01850  0.74700  0.66290  Biso   1.000  H
  H12      1.0000 0.98150  0.25300  0.33710  Biso   1.000  H
  C13      1.0000 0.88740  0.54280  0.64690  Biso   1.000  C
  C14      1.0000 0.11260  0.45720  0.35310  Biso   1.000  C
  H13      1.0000 0.82500  0.63450  0.62670  Biso   1.000  H
  H14      1.0000 0.17500  0.36550  0.37330  Biso   1.000  H
  C15      1.0000 0.85320  0.42640  0.61430  Biso   1.000  C
  C16      1.0000 0.14680  0.57360  0.38570  Biso   1.000  C
  C17      1.0000 0.72330  0.45620  0.56270  Biso   1.000  C
  C18      1.0000 0.27670  0.54380  0.43730  Biso   1.000  C
  H15      1.0000 0.66460  0.55040  0.54840  Biso   1.000  H
  H16      1.0000 0.33540  0.44960  0.45160  Biso   1.000  H
  C19      1.0000 0.68190  0.34960  0.53330  Biso   1.000  C
  C20      1.0000 0.31810  0.65040  0.46670  Biso   1.000  C
  H17      1.0000 0.59320  0.37050  0.50130  Biso   1.000  H
  H18      1.0000 0.40680  0.62950  0.49870  Biso   1.000  H
  C21      1.0000 0.77010  0.21020  0.55040  Biso   1.000  C
  C22      1.0000 0.22990  0.78980  0.44960  Biso   1.000  C
  H19      1.0000 0.74140  0.13770  0.52980  Biso   1.000  H
  H20      1.0000 0.25860  0.86230  0.47020  Biso   1.000  H
  C23      1.0000 0.90030  0.17970  0.59810  Biso   1.000  C
  C24      1.0000 0.09970  0.82030  0.40190  Biso   1.000  C
  H21      1.0000 0.95930  0.08570  0.60920  Biso   1.000  H
  H22      1.0000 0.04070  0.91430  0.39080  Biso   1.000  H
  C25      1.0000 0.94660  0.28540  0.63020  Biso   1.000  C
  C26      1.0000 0.05340  0.71460  0.36980  Biso   1.000  C
  N1       1.0000 0.55480  0.18840  0.84470  Biso   1.000  N
  N2       1.0000 0.44520  0.81160  0.15530  Biso   1.000  N
  H23      1.0000 0.61400  0.22720  0.86730  Biso   1.000  H
  H24      1.0000 0.38600  0.77280  0.13270  Biso   1.000  H
  N3       1.0000 0.24250  0.48790  0.77930  Biso   1.000  N
  N4       1.0000 0.75750  0.51210  0.22070  Biso   1.000  N
  N5       1.0000 0.99180  0.53390  0.69950  Biso   1.000  N
  N6       1.0000 0.00820  0.46610  0.30050  Biso   1.000  N
  O1       1.0000 0.88790  0.02520  0.16460  Biso   1.000  O
  O2       1.0000 0.11210  0.97480  0.83540  Biso   1.000  O
  H25      1.0000 0.87200  0.95360  0.22540  Biso   1.000  H
  H26      1.0000 0.12800  0.04640  0.77460  Biso   1.000  H
  H27      1.0000 0.86260  0.11330  0.16020  Biso   1.000  H
  H28      1.0000 0.13740  0.88670  0.83980  Biso   1.000  H
  O3       1.0000 0.00820  0.24140  0.93600  Biso   1.000  O
  O4       1.0000 0.99180  0.75860  0.06400  Biso   1.000  O
  H29      1.0000 0.91500  0.28710  0.93700  Biso   1.000  H
  H30      1.0000 0.08500  0.71290  0.06300  Biso   1.000  H
  H31      1.0000 0.04890  0.26550  0.97990  Biso   1.000  H
  H32      1.0000 0.95110  0.73450  0.02010  Biso   1.000  H
  O5       1.0000 0.78150  0.03930  0.94850  Biso   1.000  O
  O6       1.0000 0.21850  0.96070  0.05150  Biso   1.000  O
  O7       1.0000 0.77000  0.82220  0.92920  Biso   1.000  O
  O8       1.0000 0.23000  0.17780  0.07080  Biso   1.000  O
  O9       1.0000 0.34370  0.22290  0.76940  Biso   1.000  O
  O10      1.0000 0.65630  0.77710  0.23060  Biso   1.000  O
  O11      1.0000 0.23330  0.72590  0.77510  Biso   1.000  O
  O12      1.0000 0.76670  0.27410  0.22490  Biso   1.000  O
  O13      1.0000 0.07760  0.24690  0.67190  Biso   1.000  O
  O14      1.0000 0.92240  0.75310  0.32810  Biso   1.000  O
  O15      1.0000 0.50870  0.83110  0.67190  Biso   1.000  O
  O16      1.0000 0.49130  0.16890  0.32810  Biso   1.000  O
  H33      1.0000 0.58800  0.82850  0.61850  Biso   1.000  H
  H34      1.0000 0.41200  0.17150  0.38150  Biso   1.000  H
  H35      1.0000 0.43490  0.79970  0.65950  Biso   1.000  H
  H36      1.0000 0.56510  0.20030  0.34050  Biso   1.000  H
  O17      1.0000 0.59550  0.66780  0.87730  Biso   1.000  O
  O18      1.0000 0.40450  0.33220  0.12270  Biso   1.000  O
  H37      1.0000 0.62540  0.71400  0.91280  Biso   1.000  H
  H38      1.0000 0.37460  0.28600  0.08720  Biso   1.000  H
  H39      1.0000 0.63160  0.70020  0.80620  Biso   1.000  H
  H40      1.0000 0.36840  0.29980  0.19380  Biso   1.000  H
  O19      1.0000 0.70120  0.36930  0.94900  Biso   1.000  O
  O20      1.0000 0.29880  0.63070  0.05100  Biso   1.000  O
  H41      1.0000 0.69360  0.46320  0.92770  Biso   1.000  H
  H42      1.0000 0.30640  0.53680  0.07230  Biso   1.000  H
  H43      1.0000 0.65140  0.33980  0.01710  Biso   1.000  H
  H44      1.0000 0.34860  0.66020  0.98290  Biso   1.000  H
  O21      1.0000 0.35460  0.12350  0.55040  Biso   1.000  O
  O22      1.0000 0.64540  0.87650  0.44960  Biso   1.000  O
  H45      1.0000 0.34020  0.19610  0.57710  Biso   1.000  H
  H46      1.0000 0.65980  0.80390  0.42290  Biso   1.000  H
  H47      1.0000 0.33870  0.04490  0.60500  Biso   1.000  H
  H48      1.0000 0.66130  0.95510  0.39500  Biso   1.000  H
