data_image0
_cell_length_a       8.911
_cell_length_b       9.609
_cell_length_c       12.552
_cell_angle_alpha    70.24
_cell_angle_beta     76.25
_cell_angle_gamma    78.17

_symmetry_space_group_name_H-M    "P 1"
_symmetry_int_tables_number       1

loop_
  _symmetry_equiv_pos_as_xyz
  'x, y, z'

loop_
  _atom_site_label
  _atom_site_occupancy
  _atom_site_fract_x
  _atom_site_fract_y
  _atom_site_fract_z
  _atom_site_thermal_displace_type
  _atom_site_B_iso_or_equiv
  _atom_site_type_symbol
  Cu1      1.0000 0.84577  0.63920  0.26215  Biso   1.000  Cu
  Cu2      1.0000 0.15423  0.36080  0.73785  Biso   1.000  Cu
  Ni1      1.0000 0.00000  0.00000  0.00000  Biso   1.000  Ni
  C1       1.0000 0.26550  0.04020  0.08560  Biso   1.000  C
  C2       1.0000 0.73450  0.95980  0.91440  Biso   1.000  C
  C3       1.0000 0.39920  0.96710  0.14870  Biso   1.000  C
  C4       1.0000 0.60080  0.03290  0.85130  Biso   1.000  C
  H1       1.0000 0.48830  0.02030  0.11090  Biso   1.000  H
  H2       1.0000 0.51170  0.97970  0.88910  Biso   1.000  H
  H3       1.0000 0.36960  0.97250  0.22690  Biso   1.000  H
  H4       1.0000 0.63040  0.02750  0.77310  Biso   1.000  H
  C5       1.0000 0.56530  0.72800  0.18980  Biso   1.000  C
  C6       1.0000 0.43470  0.27200  0.81020  Biso   1.000  C
  C7       1.0000 0.60230  0.57070  0.18410  Biso   1.000  C
  C8       1.0000 0.39770  0.42930  0.81590  Biso   1.000  C
  H5       1.0000 0.52350  0.51110  0.23590  Biso   1.000  H
  H6       1.0000 0.47650  0.48890  0.76410  Biso   1.000  H
  H7       1.0000 0.60680  0.56930  0.10650  Biso   1.000  H
  H8       1.0000 0.39320  0.43070  0.89350  Biso   1.000  H
  C9       1.0000 0.81980  0.37480  0.23200  Biso   1.000  C
  C10      1.0000 0.18020  0.62520  0.76800  Biso   1.000  C
  C11      1.0000 0.97510  0.34460  0.26740  Biso   1.000  C
  C12      1.0000 0.02490  0.65540  0.73260  Biso   1.000  C
  H9       1.0000 0.97930  0.25460  0.33250  Biso   1.000  H
  H10      1.0000 0.02070  0.74540  0.66750  Biso   1.000  H
  H11      1.0000 0.05650  0.32830  0.20440  Biso   1.000  H
  H12      1.0000 0.94350  0.67170  0.79560  Biso   1.000  H
  C13      1.0000 0.10970  0.45910  0.35130  Biso   1.000  C
  C14      1.0000 0.89030  0.54090  0.64870  Biso   1.000  C
  H13      1.0000 0.17360  0.36800  0.37000  Biso   1.000  H
  H14      1.0000 0.82640  0.63200  0.63000  Biso   1.000  H
  C15      1.0000 0.14110  0.57690  0.38440  Biso   1.000  C
  C16      1.0000 0.85890  0.42310  0.61560  Biso   1.000  C
  C17      1.0000 0.27220  0.54910  0.43450  Biso   1.000  C
  C18      1.0000 0.72780  0.45090  0.56550  Biso   1.000  C
  H15      1.0000 0.33180  0.45550  0.44590  Biso   1.000  H
  H16      1.0000 0.66820  0.54450  0.55410  Biso   1.000  H
  C19      1.0000 0.31710  0.65450  0.46790  Biso   1.000  C
  C20      1.0000 0.68290  0.34550  0.53210  Biso   1.000  C
  H17      1.0000 0.40580  0.63260  0.50060  Biso   1.000  H
  H18      1.0000 0.59420  0.36740  0.49940  Biso   1.000  H
  C21      1.0000 0.22840  0.79300  0.45220  Biso   1.000  C
  C22      1.0000 0.77160  0.20700  0.54780  Biso   1.000  C
  H19      1.0000 0.25720  0.86600  0.47370  Biso   1.000  H
  H20      1.0000 0.74280  0.13400  0.52630  Biso   1.000  H
  C23      1.0000 0.09500  0.82290  0.40380  Biso   1.000  C
  C24      1.0000 0.90500  0.17710  0.59620  Biso   1.000  C
  H21      1.0000 0.03600  0.91670  0.39360  Biso   1.000  H
  H22      1.0000 0.96400  0.08330  0.60640  Biso   1.000  H
  C25      1.0000 0.04760  0.71850  0.37070  Biso   1.000  C
  C26      1.0000 0.95240  0.28150  0.62930  Biso   1.000  C
  N1       1.0000 0.44200  0.81130  0.15120  Biso   1.000  N
  N2       1.0000 0.55800  0.18870  0.84880  Biso   1.000  N
  H23      1.0000 0.38380  0.77260  0.12630  Biso   1.000  H
  H24      1.0000 0.61620  0.22740  0.87370  Biso   1.000  H
  N3       1.0000 0.75310  0.51280  0.21840  Biso   1.000  N
  N4       1.0000 0.24690  0.48720  0.78160  Biso   1.000  N
  N5       1.0000 0.00230  0.46890  0.29870  Biso   1.000  N
  N6       1.0000 0.99770  0.53110  0.70130  Biso   1.000  N
  O1       1.0000 0.11020  0.97530  0.84320  Biso   1.000  O
  O2       1.0000 0.88980  0.02470  0.15680  Biso   1.000  O
  H25      1.0000 0.12000  0.88430  0.84600  Biso   1.000  H
  H26      1.0000 0.88000  0.11570  0.15400  Biso   1.000  H
  H27      1.0000 0.19980  0.00310  0.82620  Biso   1.000  H
  H28      1.0000 0.80020  0.99690  0.17380  Biso   1.000  H
  O3       1.0000 0.00950  0.22900  0.93820  Biso   1.000  O
  O4       1.0000 0.99050  0.77100  0.06180  Biso   1.000  O
  H29      1.0000 0.96040  0.26660  0.88240  Biso   1.000  H
  H30      1.0000 0.03960  0.73340  0.11760  Biso   1.000  H
  H31      1.0000 0.10410  0.24450  0.91480  Biso   1.000  H
  H32      1.0000 0.89590  0.75550  0.08520  Biso   1.000  H
  O5       1.0000 0.20450  0.95660  0.05520  Biso   1.000  O
  O6       1.0000 0.79550  0.04340  0.94480  Biso   1.000  O
  O7       1.0000 0.22310  0.17720  0.06980  Biso   1.000  O
  O8       1.0000 0.77690  0.82280  0.93020  Biso   1.000  O
  O9       1.0000 0.65060  0.77670  0.23030  Biso   1.000  O
  O10      1.0000 0.34940  0.22330  0.76970  Biso   1.000  O
  O11      1.0000 0.76650  0.27370  0.21560  Biso   1.000  O
  O12      1.0000 0.23350  0.72630  0.78440  Biso   1.000  O
  O13      1.0000 0.91870  0.75600  0.32820  Biso   1.000  O
  O14      1.0000 0.08130  0.24400  0.67180  Biso   1.000  O
  O15      1.0000 0.39470  0.33430  0.12390  Biso   1.000  O
  O16      1.0000 0.60530  0.66570  0.87610  Biso   1.000  O
  H33      1.0000 0.34030  0.26510  0.13750  Biso   1.000  H
  H34      1.0000 0.65970  0.73490  0.86250  Biso   1.000  H
  H35      1.0000 0.35520  0.38530  0.16990  Biso   1.000  H
  H36      1.0000 0.64480  0.61470  0.83010  Biso   1.000  H
  O17      1.0000 0.64880  0.87930  0.44900  Biso   1.000  O
  O18      1.0000 0.35120  0.12070  0.55100  Biso   1.000  O
  H37      1.0000 0.64980  0.85270  0.39070  Biso   1.000  H
  H38      1.0000 0.35020  0.14730  0.60930  Biso   1.000  H
  H39      1.0000 0.64400  0.80380  0.50890  Biso   1.000  H
  H40      1.0000 0.35600  0.19620  0.49110  Biso   1.000  H
  O19      1.0000 0.71190  0.36750  0.95030  Biso   1.000  O
  O20      1.0000 0.28810  0.63250  0.04970  Biso   1.000  O
  H41      1.0000 0.65050  0.31030  0.00030  Biso   1.000  H
  H42      1.0000 0.34950  0.68970  0.99970  Biso   1.000  H
  H43      1.0000 0.71700  0.43920  0.97390  Biso   1.000  H
  H44      1.0000 0.28300  0.56080  0.02610  Biso   1.000  H
  O21      1.0000 0.48840  0.16890  0.32820  Biso   1.000  O
  O22      1.0000 0.51160  0.83110  0.67180  Biso   1.000  O
  H45      1.0000 0.57630  0.19710  0.29340  Biso   1.000  H
  H46      1.0000 0.42370  0.80290  0.70660  Biso   1.000  H
  H47      1.0000 0.48690  0.13660  0.40030  Biso   1.000  H
  H48      1.0000 0.51310  0.86340  0.59970  Biso   1.000  H
