data_image0
_cell_length_a       11.63
_cell_length_b       12.8
_cell_length_c       19.296
_cell_angle_alpha    90
_cell_angle_beta     98.62
_cell_angle_gamma    90

_symmetry_space_group_name_H-M    "P 1"
_symmetry_int_tables_number       1

loop_
  _symmetry_equiv_pos_as_xyz
  'x, y, z'

loop_
  _atom_site_label
  _atom_site_occupancy
  _atom_site_fract_x
  _atom_site_fract_y
  _atom_site_fract_z
  _atom_site_thermal_displace_type
  _atom_site_B_iso_or_equiv
  _atom_site_type_symbol
  Cu1      1.0000 0.50000  0.00000  0.50000  Biso   1.000  Cu
  Cu2      1.0000 0.00000  0.00000  0.00000  Biso   1.000  Cu
  Cu3      1.0000 0.00000  0.50000  0.50000  Biso   1.000  Cu
  Cu4      1.0000 0.50000  0.50000  0.00000  Biso   1.000  Cu
  O1       1.0000 0.40350  0.14270  0.43946  Biso   1.000  O
  O2       1.0000 0.09650  0.14270  0.06054  Biso   1.000  O
  O3       1.0000 0.59650  0.85730  0.56054  Biso   1.000  O
  O4       1.0000 0.90350  0.85730  0.93946  Biso   1.000  O
  H1       1.0000 0.34800  0.18200  0.44400  Biso   1.000  H
  H2       1.0000 0.15200  0.18200  0.05600  Biso   1.000  H
  H3       1.0000 0.65200  0.81800  0.55600  Biso   1.000  H
  H4       1.0000 0.84800  0.81800  0.94400  Biso   1.000  H
  H5       1.0000 0.41600  0.16600  0.40060  Biso   1.000  H
  H6       1.0000 0.08400  0.16600  0.09940  Biso   1.000  H
  H7       1.0000 0.58400  0.83400  0.59940  Biso   1.000  H
  H8       1.0000 0.91600  0.83400  0.90060  Biso   1.000  H
  O5       1.0000 0.11120  0.39290  0.43240  Biso   1.000  O
  O6       1.0000 0.38880  0.39290  0.06760  Biso   1.000  O
  O7       1.0000 0.88880  0.60710  0.56760  Biso   1.000  O
  O8       1.0000 0.61120  0.60710  0.93240  Biso   1.000  O
  O9       1.0000 0.21380  0.26130  0.48077  Biso   1.000  O
  O10      1.0000 0.28620  0.26130  0.01923  Biso   1.000  O
  O11      1.0000 0.78620  0.73870  0.51923  Biso   1.000  O
  O12      1.0000 0.71380  0.73870  0.98077  Biso   1.000  O
  O13      1.0000 0.21400  0.30000  0.37110  Biso   1.000  O
  O14      1.0000 0.28600  0.30000  0.12890  Biso   1.000  O
  O15      1.0000 0.78600  0.70000  0.62890  Biso   1.000  O
  O16      1.0000 0.71400  0.70000  0.87110  Biso   1.000  O
  N1       1.0000 0.53010  0.08860  0.58734  Biso   1.000  N
  N2       1.0000 0.96990  0.08860  0.91266  Biso   1.000  N
  N3       1.0000 0.46990  0.91140  0.41266  Biso   1.000  N
  N4       1.0000 0.03010  0.91140  0.08734  Biso   1.000  N
  N5       1.0000 0.59940  0.13820  0.69817  Biso   1.000  N
  N6       1.0000 0.90060  0.13820  0.80183  Biso   1.000  N
  N7       1.0000 0.40060  0.86180  0.30183  Biso   1.000  N
  N8       1.0000 0.09940  0.86180  0.19817  Biso   1.000  N
  N9       1.0000 0.53780  0.21720  0.66108  Biso   1.000  N
  N10      1.0000 0.96220  0.21720  0.83892  Biso   1.000  N
  N11      1.0000 0.46220  0.78280  0.33892  Biso   1.000  N
  N12      1.0000 0.03780  0.78280  0.16108  Biso   1.000  N
  N13      1.0000 0.42200  0.36070  0.66105  Biso   1.000  N
  N14      1.0000 0.07800  0.36070  0.83895  Biso   1.000  N
  N15      1.0000 0.57800  0.63930  0.33895  Biso   1.000  N
  N16      1.0000 0.92200  0.63930  0.16105  Biso   1.000  N
  N17      1.0000 0.29390  0.49720  0.65010  Biso   1.000  N
  N18      1.0000 0.20610  0.49720  0.84990  Biso   1.000  N
  N19      1.0000 0.70610  0.50280  0.34990  Biso   1.000  N
  N20      1.0000 0.79390  0.50280  0.15010  Biso   1.000  N
  N21      1.0000 0.25840  0.59630  0.66160  Biso   1.000  N
  N22      1.0000 0.24160  0.59630  0.83840  Biso   1.000  N
  N23      1.0000 0.74160  0.40370  0.33840  Biso   1.000  N
  N24      1.0000 0.75840  0.40370  0.16160  Biso   1.000  N
  N25      1.0000 0.13350  0.51670  0.57820  Biso   1.000  N
  N26      1.0000 0.36650  0.51670  0.92180  Biso   1.000  N
  N27      1.0000 0.86650  0.48330  0.42180  Biso   1.000  N
  N28      1.0000 0.63350  0.48330  0.07820  Biso   1.000  N
  N29      1.0000 0.94010  0.37400  0.54530  Biso   1.000  N
  N30      1.0000 0.55990  0.37400  0.95470  Biso   1.000  N
  N31      1.0000 0.05990  0.62600  0.45470  Biso   1.000  N
  N32      1.0000 0.44010  0.62600  0.04530  Biso   1.000  N
  N33      1.0000 0.82270  0.26240  0.59101  Biso   1.000  N
  N34      1.0000 0.67730  0.26240  0.90899  Biso   1.000  N
  N35      1.0000 0.17730  0.73760  0.40899  Biso   1.000  N
  N36      1.0000 0.32270  0.73760  0.09101  Biso   1.000  N
  N37      1.0000 0.92690  0.21640  0.58280  Biso   1.000  N
  N38      1.0000 0.57310  0.21640  0.91720  Biso   1.000  N
  N39      1.0000 0.07310  0.78360  0.41720  Biso   1.000  N
  N40      1.0000 0.42690  0.78360  0.08280  Biso   1.000  N
  N41      1.0000 0.04610  0.07490  0.57461  Biso   1.000  N
  N42      1.0000 0.45390  0.07490  0.92539  Biso   1.000  N
  N43      1.0000 0.95390  0.92510  0.42539  Biso   1.000  N
  N44      1.0000 0.54610  0.92510  0.07461  Biso   1.000  N
  N45      1.0000 0.17970  0.94580  0.56513  Biso   1.000  N
  N46      1.0000 0.32030  0.94580  0.93487  Biso   1.000  N
  N47      1.0000 0.82030  0.05420  0.43487  Biso   1.000  N
  N48      1.0000 0.67970  0.05420  0.06513  Biso   1.000  N
  N49      1.0000 0.21520  0.84410  0.56720  Biso   1.000  N
  N50      1.0000 0.28480  0.84410  0.93280  Biso   1.000  N
  N51      1.0000 0.78480  0.15590  0.43280  Biso   1.000  N
  N52      1.0000 0.71520  0.15590  0.06720  Biso   1.000  N
  N53      1.0000 0.34860  0.94960  0.53023  Biso   1.000  N
  N54      1.0000 0.15140  0.94960  0.96977  Biso   1.000  N
  N55      1.0000 0.65140  0.05040  0.46977  Biso   1.000  N
  N56      1.0000 0.84860  0.05040  0.03023  Biso   1.000  N
  N57      1.0000 0.17990  0.31810  0.42750  Biso   1.000  N
  N58      1.0000 0.32010  0.31810  0.07250  Biso   1.000  N
  N59      1.0000 0.82010  0.68190  0.57250  Biso   1.000  N
  N60      1.0000 0.67990  0.68190  0.92750  Biso   1.000  N
  C1       1.0000 0.49880  0.18650  0.59670  Biso   1.000  C
  C2       1.0000 0.00120  0.18650  0.90330  Biso   1.000  C
  C3       1.0000 0.50120  0.81350  0.40330  Biso   1.000  C
  C4       1.0000 0.99880  0.81350  0.09670  Biso   1.000  C
  H9       1.0000 0.45440  0.22850  0.56190  Biso   1.000  H
  H10      1.0000 0.04560  0.22850  0.93810  Biso   1.000  H
  H11      1.0000 0.54560  0.77150  0.43810  Biso   1.000  H
  H12      1.0000 0.95440  0.77150  0.06190  Biso   1.000  H
  C5       1.0000 0.59060  0.06340  0.65100  Biso   1.000  C
  C6       1.0000 0.90940  0.06340  0.84900  Biso   1.000  C
  C7       1.0000 0.40940  0.93660  0.34900  Biso   1.000  C
  C8       1.0000 0.09060  0.93660  0.15100  Biso   1.000  C
  H13      1.0000 0.62410  0.99630  0.66080  Biso   1.000  H
  H14      1.0000 0.87590  0.99630  0.83920  Biso   1.000  H
  H15      1.0000 0.37590  0.00370  0.33920  Biso   1.000  H
  H16      1.0000 0.12410  0.00370  0.16080  Biso   1.000  H
  C9       1.0000 0.51750  0.31500  0.69240  Biso   1.000  C
  C10      1.0000 0.98250  0.31500  0.80760  Biso   1.000  C
  C11      1.0000 0.48250  0.68500  0.30760  Biso   1.000  C
  C12      1.0000 0.01750  0.68500  0.19240  Biso   1.000  C
  C13      1.0000 0.59050  0.35420  0.74840  Biso   1.000  C
  C14      1.0000 0.90950  0.35420  0.75160  Biso   1.000  C
  C15      1.0000 0.40950  0.64580  0.25160  Biso   1.000  C
  C16      1.0000 0.09050  0.64580  0.24840  Biso   1.000  C
  H17      1.0000 0.65710  0.31680  0.76970  Biso   1.000  H
  H18      1.0000 0.84290  0.31680  0.73030  Biso   1.000  H
  H19      1.0000 0.34290  0.68320  0.23030  Biso   1.000  H
  H20      1.0000 0.15710  0.68320  0.26970  Biso   1.000  H
  C17      1.0000 0.56220  0.45150  0.77240  Biso   1.000  C
  C18      1.0000 0.93780  0.45150  0.72760  Biso   1.000  C
  C19      1.0000 0.43780  0.54850  0.22760  Biso   1.000  C
  C20      1.0000 0.06220  0.54850  0.27240  Biso   1.000  C
  H21      1.0000 0.61040  0.48270  0.81100  Biso   1.000  H
  H22      1.0000 0.88960  0.48270  0.68900  Biso   1.000  H
  H23      1.0000 0.38960  0.51730  0.18900  Biso   1.000  H
  H24      1.0000 0.11040  0.51730  0.31100  Biso   1.000  H
  C21      1.0000 0.46500  0.50280  0.74080  Biso   1.000  C
  C22      1.0000 0.03500  0.50280  0.75920  Biso   1.000  C
  C23      1.0000 0.53500  0.49720  0.25920  Biso   1.000  C
  C24      1.0000 0.96500  0.49720  0.24080  Biso   1.000  C
  H25      1.0000 0.44420  0.56980  0.75630  Biso   1.000  H
  H26      1.0000 0.05580  0.56980  0.74370  Biso   1.000  H
  H27      1.0000 0.55580  0.43020  0.24370  Biso   1.000  H
  H28      1.0000 0.94420  0.43020  0.25630  Biso   1.000  H
  C25      1.0000 0.40030  0.45370  0.68670  Biso   1.000  C
  C26      1.0000 0.09970  0.45370  0.81330  Biso   1.000  C
  C27      1.0000 0.59970  0.54630  0.31330  Biso   1.000  C
  C28      1.0000 0.90030  0.54630  0.18670  Biso   1.000  C
  C29      1.0000 0.22050  0.45090  0.59990  Biso   1.000  C
  C30      1.0000 0.27950  0.45090  0.90010  Biso   1.000  C
  C31      1.0000 0.77950  0.54910  0.40010  Biso   1.000  C
  C32      1.0000 0.72050  0.54910  0.09990  Biso   1.000  C
  H29      1.0000 0.22860  0.38230  0.58240  Biso   1.000  H
  H30      1.0000 0.27140  0.38230  0.91760  Biso   1.000  H
  H31      1.0000 0.77140  0.61770  0.41760  Biso   1.000  H
  H32      1.0000 0.72860  0.61770  0.08240  Biso   1.000  H
  C33      1.0000 0.16280  0.60370  0.61780  Biso   1.000  C
  C34      1.0000 0.33720  0.60370  0.88220  Biso   1.000  C
  C35      1.0000 0.83720  0.39630  0.38220  Biso   1.000  C
  C36      1.0000 0.66280  0.39630  0.11780  Biso   1.000  C
  H33      1.0000 0.11660  0.66520  0.61350  Biso   1.000  H
  H34      1.0000 0.38340  0.66520  0.88650  Biso   1.000  H
  H35      1.0000 0.88340  0.33480  0.38650  Biso   1.000  H
  H36      1.0000 0.61660  0.33480  0.11350  Biso   1.000  H
  C37      1.0000 0.99500  0.28340  0.55520  Biso   1.000  C
  C38      1.0000 0.50500  0.28340  0.94480  Biso   1.000  C
  C39      1.0000 0.00500  0.71660  0.44480  Biso   1.000  C
  C40      1.0000 0.49500  0.71660  0.05520  Biso   1.000  C
  H37      1.0000 0.07040  0.26860  0.54440  Biso   1.000  H
  H38      1.0000 0.42960  0.26860  0.95560  Biso   1.000  H
  H39      1.0000 0.92960  0.73140  0.45560  Biso   1.000  H
  H40      1.0000 0.57040  0.73140  0.04440  Biso   1.000  H
  C41      1.0000 0.83510  0.35680  0.56750  Biso   1.000  C
  C42      1.0000 0.66490  0.35680  0.93250  Biso   1.000  C
  C43      1.0000 0.16490  0.64320  0.43250  Biso   1.000  C
  C44      1.0000 0.33510  0.64320  0.06750  Biso   1.000  C
  H41      1.0000 0.77660  0.40880  0.56600  Biso   1.000  H
  H42      1.0000 0.72340  0.40880  0.93400  Biso   1.000  H
  H43      1.0000 0.22340  0.59120  0.43400  Biso   1.000  H
  H44      1.0000 0.27660  0.59120  0.06600  Biso   1.000  H
  C45      1.0000 0.95180  0.10900  0.59840  Biso   1.000  C
  C46      1.0000 0.54820  0.10900  0.90160  Biso   1.000  C
  C47      1.0000 0.04820  0.89100  0.40160  Biso   1.000  C
  C48      1.0000 0.45180  0.89100  0.09840  Biso   1.000  C
  C49      1.0000 0.88120  0.04960  0.63370  Biso   1.000  C
  C50      1.0000 0.61880  0.04960  0.86630  Biso   1.000  C
  C51      1.0000 0.11880  0.95040  0.36630  Biso   1.000  C
  C52      1.0000 0.38120  0.95040  0.13370  Biso   1.000  C
  H45      1.0000 0.81520  0.07880  0.65020  Biso   1.000  H
  H46      1.0000 0.68480  0.07880  0.84980  Biso   1.000  H
  H47      1.0000 0.18480  0.92120  0.34980  Biso   1.000  H
  H48      1.0000 0.31520  0.92120  0.15020  Biso   1.000  H
  C53      1.0000 0.91030  0.94620  0.64410  Biso   1.000  C
  C54      1.0000 0.58970  0.94620  0.85590  Biso   1.000  C
  C55      1.0000 0.08970  0.05380  0.35590  Biso   1.000  C
  C56      1.0000 0.41030  0.05380  0.14410  Biso   1.000  C
  H49      1.0000 0.86300  0.90160  0.66730  Biso   1.000  H
  H50      1.0000 0.63700  0.90160  0.83270  Biso   1.000  H
  H51      1.0000 0.13700  0.09840  0.33270  Biso   1.000  H
  H52      1.0000 0.36300  0.09840  0.16730  Biso   1.000  H
  C57      1.0000 0.00820  0.90720  0.62080  Biso   1.000  C
  C58      1.0000 0.49180  0.90720  0.87920  Biso   1.000  C
  C59      1.0000 0.99180  0.09280  0.37920  Biso   1.000  C
  C60      1.0000 0.50820  0.09280  0.12080  Biso   1.000  C
  H53      1.0000 0.02950  0.83570  0.62700  Biso   1.000  H
  H54      1.0000 0.47050  0.83570  0.87300  Biso   1.000  H
  H55      1.0000 0.97050  0.16430  0.37300  Biso   1.000  H
  H56      1.0000 0.52950  0.16430  0.12700  Biso   1.000  H
  C61      1.0000 0.07370  0.97570  0.58820  Biso   1.000  C
  C62      1.0000 0.42630  0.97570  0.91180  Biso   1.000  C
  C63      1.0000 0.92630  0.02430  0.41180  Biso   1.000  C
  C64      1.0000 0.57370  0.02430  0.08820  Biso   1.000  C
  C65      1.0000 0.26060  0.00690  0.54350  Biso   1.000  C
  C66      1.0000 0.23940  0.00690  0.95650  Biso   1.000  C
  C67      1.0000 0.73940  0.99310  0.45650  Biso   1.000  C
  C68      1.0000 0.76060  0.99310  0.04350  Biso   1.000  C
  H57      1.0000 0.25530  0.08060  0.53860  Biso   1.000  H
  H58      1.0000 0.24470  0.08060  0.96140  Biso   1.000  H
  H59      1.0000 0.74470  0.91940  0.46140  Biso   1.000  H
  H60      1.0000 0.75530  0.91940  0.03860  Biso   1.000  H
  C69      1.0000 0.31610  0.85080  0.54520  Biso   1.000  C
  C70      1.0000 0.18390  0.85080  0.95480  Biso   1.000  C
  C71      1.0000 0.68390  0.14920  0.45480  Biso   1.000  C
  C72      1.0000 0.81610  0.14920  0.04520  Biso   1.000  C
  H61      1.0000 0.36310  0.79140  0.54010  Biso   1.000  H
  H62      1.0000 0.13690  0.79140  0.95990  Biso   1.000  H
  H63      1.0000 0.63690  0.20860  0.45990  Biso   1.000  H
  H64      1.0000 0.86310  0.20860  0.04010  Biso   1.000  H
  P1       1.0000 0.50000  0.50000  0.50000  Biso   1.000  P
  P2       1.0000 0.00000  0.50000  0.00000  Biso   1.000  P
  F1       1.0000 0.57370  0.45480  0.56800  Biso   1.000  F
  F2       1.0000 0.92630  0.45480  0.93200  Biso   1.000  F
  F3       1.0000 0.42630  0.54520  0.43200  Biso   1.000  F
  F4       1.0000 0.07370  0.54520  0.06800  Biso   1.000  F
  F5       1.0000 0.59690  0.58490  0.49530  Biso   1.000  F
  F6       1.0000 0.90310  0.58490  0.00470  Biso   1.000  F
  F7       1.0000 0.40310  0.41510  0.50470  Biso   1.000  F
  F8       1.0000 0.09690  0.41510  0.99530  Biso   1.000  F
  F9       1.0000 0.43260  0.57320  0.54600  Biso   1.000  F
  F10      1.0000 0.06740  0.57320  0.95400  Biso   1.000  F
  F11      1.0000 0.56740  0.42680  0.45400  Biso   1.000  F
  F12      1.0000 0.93260  0.42680  0.04600  Biso   1.000  F
