data_image0
_cell_length_a       9.804
_cell_length_b       11.071
_cell_length_c       11.7
_cell_angle_alpha    80.901
_cell_angle_beta     79.941
_cell_angle_gamma    79.138

_symmetry_space_group_name_H-M    "P 1"
_symmetry_int_tables_number       1

loop_
  _symmetry_equiv_pos_as_xyz
  'x, y, z'

loop_
  _atom_site_label
  _atom_site_occupancy
  _atom_site_fract_x
  _atom_site_fract_y
  _atom_site_fract_z
  _atom_site_thermal_displace_type
  _atom_site_B_iso_or_equiv
  _atom_site_type_symbol
  Cu1      1.0000 0.00000  0.50000  0.50000  Biso   1.000  Cu
  S1       1.0000 0.23330  0.09505  0.57388  Biso   1.000  S
  S2       1.0000 0.76670  0.90495  0.42612  Biso   1.000  S
  O1       1.0000 0.44610  0.64820  0.03307  Biso   1.000  O
  O2       1.0000 0.55390  0.35180  0.96693  Biso   1.000  O
  N1       1.0000 0.19060  0.50380  0.39654  Biso   1.000  N
  N2       1.0000 0.80940  0.49620  0.60346  Biso   1.000  N
  C1       1.0000 0.19580  0.55090  0.28310  Biso   1.000  C
  C2       1.0000 0.80420  0.44910  0.71690  Biso   1.000  C
  H1       1.0000 0.10970  0.57810  0.25280  Biso   1.000  H
  H2       1.0000 0.89030  0.42190  0.74720  Biso   1.000  H
  Cu2      1.0000 0.00000  0.00000  0.50000  Biso   1.000  Cu
  S3       1.0000 0.12167  0.59105  0.68109  Biso   1.000  S
  S4       1.0000 0.87833  0.40895  0.31891  Biso   1.000  S
  O3       1.0000 0.53730  0.84780  0.09139  Biso   1.000  O
  O4       1.0000 0.46270  0.15220  0.90861  Biso   1.000  O
  N3       1.0000 0.11160  0.97200  0.33876  Biso   1.000  N
  N4       1.0000 0.88840  0.02800  0.66124  Biso   1.000  N
  C3       1.0000 0.32030  0.56180  0.20770  Biso   1.000  C
  C4       1.0000 0.67970  0.43820  0.79230  Biso   1.000  C
  N5       1.0000 0.07220  0.33270  0.56957  Biso   1.000  N
  N6       1.0000 0.92780  0.66730  0.43043  Biso   1.000  N
  C5       1.0000 0.31290  0.46340  0.43790  Biso   1.000  C
  C6       1.0000 0.68710  0.53660  0.56210  Biso   1.000  C
  H3       1.0000 0.31100  0.42830  0.51760  Biso   1.000  H
  H4       1.0000 0.68900  0.57170  0.48240  Biso   1.000  H
  N7       1.0000 0.08030  0.83420  0.56580  Biso   1.000  N
  N8       1.0000 0.91970  0.16580  0.43420  Biso   1.000  N
  C7       1.0000 0.44180  0.47110  0.36880  Biso   1.000  C
  C8       1.0000 0.55820  0.52890  0.63120  Biso   1.000  C
  H5       1.0000 0.52640  0.44200  0.40090  Biso   1.000  H
  H6       1.0000 0.47360  0.55800  0.59910  Biso   1.000  H
  C9       1.0000 0.44550  0.52150  0.25280  Biso   1.000  C
  C10      1.0000 0.55450  0.47850  0.74720  Biso   1.000  C
  H7       1.0000 0.53280  0.52850  0.20420  Biso   1.000  H
  H8       1.0000 0.46720  0.47150  0.79580  Biso   1.000  H
  C11      1.0000 0.31400  0.61350  0.08130  Biso   1.000  C
  C12      1.0000 0.68600  0.38650  0.91870  Biso   1.000  C
  H9       1.0000 0.29430  0.55010  0.03830  Biso   1.000  H
  H10      1.0000 0.70570  0.44990  0.96170  Biso   1.000  H
  H11      1.0000 0.23850  0.68650  0.07550  Biso   1.000  H
  H12      1.0000 0.76150  0.31350  0.92450  Biso   1.000  H
  C13      1.0000 0.45970  0.71160  0.92210  Biso   1.000  C
  C14      1.0000 0.54030  0.28840  0.07790  Biso   1.000  C
  C15      1.0000 0.35490  0.73630  0.85160  Biso   1.000  C
  C16      1.0000 0.64510  0.26370  0.14840  Biso   1.000  C
  H13      1.0000 0.26560  0.71290  0.88070  Biso   1.000  H
  H14      1.0000 0.73440  0.28710  0.11930  Biso   1.000  H
  C17      1.0000 0.38190  0.79560  0.73800  Biso   1.000  C
  C18      1.0000 0.61810  0.20440  0.26200  Biso   1.000  C
  H15      1.0000 0.30970  0.81490  0.69030  Biso   1.000  H
  H16      1.0000 0.69030  0.18510  0.30970  Biso   1.000  H
  C19      1.0000 0.51280  0.82680  0.69370  Biso   1.000  C
  C20      1.0000 0.48720  0.17320  0.30630  Biso   1.000  C
  H17      1.0000 0.53160  0.86440  0.61510  Biso   1.000  H
  H18      1.0000 0.46840  0.13560  0.38490  Biso   1.000  H
  C21      1.0000 0.61650  0.80260  0.76530  Biso   1.000  C
  C22      1.0000 0.38350  0.19740  0.23470  Biso   1.000  C
  H19      1.0000 0.70670  0.82310  0.73440  Biso   1.000  H
  H20      1.0000 0.29330  0.17690  0.26560  Biso   1.000  H
  C23      1.0000 0.59110  0.74880  0.88160  Biso   1.000  C
  C24      1.0000 0.40890  0.25120  0.11840  Biso   1.000  C
  C25      1.0000 0.70040  0.73380  0.95870  Biso   1.000  C
  C26      1.0000 0.29960  0.26620  0.04130  Biso   1.000  C
  C27      1.0000 0.83720  0.67750  0.92350  Biso   1.000  C
  C28      1.0000 0.16280  0.32250  0.07650  Biso   1.000  C
  H21      1.0000 0.85960  0.64360  0.85150  Biso   1.000  H
  H22      1.0000 0.14040  0.35640  0.14850  Biso   1.000  H
  C29      1.0000 0.94250  0.66990  0.99210  Biso   1.000  C
  C30      1.0000 0.05750  0.33010  0.00790  Biso   1.000  C
  H23      1.0000 0.03550  0.63060  0.96730  Biso   1.000  H
  H24      1.0000 0.96450  0.36940  0.03270  Biso   1.000  H
  C31      1.0000 0.91020  0.71990  0.09670  Biso   1.000  C
  C32      1.0000 0.08980  0.28010  0.90330  Biso   1.000  C
  H25      1.0000 0.98140  0.71490  0.14360  Biso   1.000  H
  H26      1.0000 0.01860  0.28510  0.85640  Biso   1.000  H
  C33      1.0000 0.77480  0.77720  0.13320  Biso   1.000  C
  C34      1.0000 0.22520  0.22280  0.86680  Biso   1.000  C
  H27      1.0000 0.75320  0.81150  0.20500  Biso   1.000  H
  H28      1.0000 0.24680  0.18850  0.79500  Biso   1.000  H
  C35      1.0000 0.67150  0.78440  0.06510  Biso   1.000  C
  C36      1.0000 0.32850  0.21560  0.93490  Biso   1.000  C
  C37      1.0000 0.48580  0.86210  0.20980  Biso   1.000  C
  C38      1.0000 0.51420  0.13790  0.79020  Biso   1.000  C
  H29      1.0000 0.53380  0.92140  0.23630  Biso   1.000  H
  H30      1.0000 0.46620  0.07860  0.76370  Biso   1.000  H
  H31      1.0000 0.50220  0.78150  0.26000  Biso   1.000  H
  H32      1.0000 0.49780  0.21850  0.74000  Biso   1.000  H
  C39      1.0000 0.33020  0.91080  0.21700  Biso   1.000  C
  C40      1.0000 0.66980  0.08920  0.78300  Biso   1.000  C
  C41      1.0000 0.24810  0.92240  0.32560  Biso   1.000  C
  C42      1.0000 0.75190  0.07760  0.67440  Biso   1.000  C
  H33      1.0000 0.29100  0.89370  0.39390  Biso   1.000  H
  H34      1.0000 0.70900  0.10630  0.60610  Biso   1.000  H
  C43      1.0000 0.26630  0.95030  0.11800  Biso   1.000  C
  C44      1.0000 0.73370  0.04970  0.88200  Biso   1.000  C
  H35      1.0000 0.31900  0.94360  0.04230  Biso   1.000  H
  H36      1.0000 0.68100  0.05640  0.95770  Biso   1.000  H
  C45      1.0000 0.12430  0.99960  0.13070  Biso   1.000  C
  C46      1.0000 0.87570  0.00040  0.86930  Biso   1.000  C
  H37      1.0000 0.07820  0.02590  0.06390  Biso   1.000  H
  H38      1.0000 0.92180  0.97410  0.93610  Biso   1.000  H
  C47      1.0000 0.05070  0.01020  0.24170  Biso   1.000  C
  C48      1.0000 0.94930  0.98980  0.75830  Biso   1.000  C
  H39      1.0000 0.95400  0.04560  0.24990  Biso   1.000  H
  H40      1.0000 0.04600  0.95440  0.75010  Biso   1.000  H
  C49      1.0000 0.13890  0.23370  0.57090  Biso   1.000  C
  C50      1.0000 0.86110  0.76630  0.42910  Biso   1.000  C
  C51      1.0000 0.09660  0.73320  0.61360  Biso   1.000  C
  C52      1.0000 0.90340  0.26680  0.38640  Biso   1.000  C
