data_image0
_cell_length_a       12.8539
_cell_length_b       8.9177
_cell_length_c       27.9987
_cell_angle_alpha    90
_cell_angle_beta     90
_cell_angle_gamma    90

_symmetry_space_group_name_H-M    "P 1"
_symmetry_int_tables_number       1

loop_
  _symmetry_equiv_pos_as_xyz
  'x, y, z'

loop_
  _atom_site_label
  _atom_site_occupancy
  _atom_site_fract_x
  _atom_site_fract_y
  _atom_site_fract_z
  _atom_site_thermal_displace_type
  _atom_site_B_iso_or_equiv
  _atom_site_type_symbol
  Cu1      1.0000 0.03141  0.07858  0.96331  Biso   1.000  Cu
  Cu2      1.0000 0.46859  0.42142  0.46331  Biso   1.000  Cu
  Cu3      1.0000 0.53141  0.42142  0.03669  Biso   1.000  Cu
  Cu4      1.0000 0.96859  0.07858  0.53669  Biso   1.000  Cu
  Cu5      1.0000 0.96859  0.92142  0.03669  Biso   1.000  Cu
  Cu6      1.0000 0.53141  0.57858  0.53669  Biso   1.000  Cu
  Cu7      1.0000 0.46859  0.57858  0.96331  Biso   1.000  Cu
  Cu8      1.0000 0.03141  0.92142  0.46331  Biso   1.000  Cu
  N1       1.0000 0.08940  0.20880  0.90318  Biso   1.000  N
  N2       1.0000 0.41060  0.29120  0.40318  Biso   1.000  N
  N3       1.0000 0.58940  0.29120  0.09682  Biso   1.000  N
  N4       1.0000 0.91060  0.20880  0.59682  Biso   1.000  N
  N5       1.0000 0.91060  0.79120  0.09682  Biso   1.000  N
  N6       1.0000 0.58940  0.70880  0.59682  Biso   1.000  N
  N7       1.0000 0.41060  0.70880  0.90318  Biso   1.000  N
  N8       1.0000 0.08940  0.79120  0.40318  Biso   1.000  N
  C1       1.0000 0.03030  0.24320  0.86575  Biso   1.000  C
  C2       1.0000 0.46970  0.25680  0.36575  Biso   1.000  C
  C3       1.0000 0.53030  0.25680  0.13425  Biso   1.000  C
  C4       1.0000 0.96970  0.24320  0.63425  Biso   1.000  C
  C5       1.0000 0.96970  0.75680  0.13425  Biso   1.000  C
  C6       1.0000 0.53030  0.74320  0.63425  Biso   1.000  C
  C7       1.0000 0.46970  0.74320  0.86575  Biso   1.000  C
  C8       1.0000 0.03030  0.75680  0.36575  Biso   1.000  C
  H1       1.0000 0.96110  0.20580  0.86500  Biso   1.000  H
  H2       1.0000 0.53890  0.29420  0.36500  Biso   1.000  H
  H3       1.0000 0.46110  0.29420  0.13500  Biso   1.000  H
  H4       1.0000 0.03890  0.20580  0.63500  Biso   1.000  H
  H5       1.0000 0.03890  0.79420  0.13500  Biso   1.000  H
  H6       1.0000 0.46110  0.70580  0.63500  Biso   1.000  H
  H7       1.0000 0.53890  0.70580  0.86500  Biso   1.000  H
  H8       1.0000 0.96110  0.79420  0.36500  Biso   1.000  H
  C9       1.0000 0.06320  0.32910  0.82840  Biso   1.000  C
  C10      1.0000 0.43680  0.17090  0.32840  Biso   1.000  C
  C11      1.0000 0.56320  0.17090  0.17160  Biso   1.000  C
  C12      1.0000 0.93680  0.32910  0.67160  Biso   1.000  C
  C13      1.0000 0.93680  0.67090  0.17160  Biso   1.000  C
  C14      1.0000 0.56320  0.82910  0.67160  Biso   1.000  C
  C15      1.0000 0.43680  0.82910  0.82840  Biso   1.000  C
  C16      1.0000 0.06320  0.67090  0.32840  Biso   1.000  C
  H9       1.0000 0.01780  0.34940  0.80240  Biso   1.000  H
  H10      1.0000 0.48220  0.15060  0.30240  Biso   1.000  H
  H11      1.0000 0.51780  0.15060  0.19760  Biso   1.000  H
  H12      1.0000 0.98220  0.34940  0.69760  Biso   1.000  H
  H13      1.0000 0.98220  0.65060  0.19760  Biso   1.000  H
  H14      1.0000 0.51780  0.84940  0.69760  Biso   1.000  H
  H15      1.0000 0.48220  0.84940  0.80240  Biso   1.000  H
  H16      1.0000 0.01780  0.65060  0.30240  Biso   1.000  H
  C17      1.0000 0.16290  0.38620  0.82863  Biso   1.000  C
  C18      1.0000 0.33710  0.11380  0.32863  Biso   1.000  C
  C19      1.0000 0.66290  0.11380  0.17137  Biso   1.000  C
  C20      1.0000 0.83710  0.38620  0.67137  Biso   1.000  C
  C21      1.0000 0.83710  0.61380  0.17137  Biso   1.000  C
  C22      1.0000 0.66290  0.88620  0.67137  Biso   1.000  C
  C23      1.0000 0.33710  0.88620  0.82863  Biso   1.000  C
  C24      1.0000 0.16290  0.61380  0.32863  Biso   1.000  C
  C25      1.0000 0.22520  0.35490  0.86737  Biso   1.000  C
  C26      1.0000 0.27480  0.14510  0.36737  Biso   1.000  C
  C27      1.0000 0.72520  0.14510  0.13263  Biso   1.000  C
  C28      1.0000 0.77480  0.35490  0.63263  Biso   1.000  C
  C29      1.0000 0.77480  0.64510  0.13263  Biso   1.000  C
  C30      1.0000 0.72520  0.85490  0.63263  Biso   1.000  C
  C31      1.0000 0.27480  0.85490  0.86737  Biso   1.000  C
  C32      1.0000 0.22520  0.64510  0.36737  Biso   1.000  C
  H17      1.0000 0.29400  0.39330  0.86940  Biso   1.000  H
  H18      1.0000 0.20600  0.10670  0.36940  Biso   1.000  H
  H19      1.0000 0.79400  0.10670  0.13060  Biso   1.000  H
  H20      1.0000 0.70600  0.39330  0.63060  Biso   1.000  H
  H21      1.0000 0.70600  0.60670  0.13060  Biso   1.000  H
  H22      1.0000 0.79400  0.89330  0.63060  Biso   1.000  H
  H23      1.0000 0.20600  0.89330  0.86940  Biso   1.000  H
  H24      1.0000 0.29400  0.60670  0.36940  Biso   1.000  H
  C33      1.0000 0.18460  0.26580  0.90323  Biso   1.000  C
  C34      1.0000 0.31540  0.23420  0.40323  Biso   1.000  C
  C35      1.0000 0.68460  0.23420  0.09677  Biso   1.000  C
  C36      1.0000 0.81540  0.26580  0.59677  Biso   1.000  C
  C37      1.0000 0.81540  0.73420  0.09677  Biso   1.000  C
  C38      1.0000 0.68460  0.76580  0.59677  Biso   1.000  C
  C39      1.0000 0.31540  0.76580  0.90323  Biso   1.000  C
  C40      1.0000 0.18460  0.73420  0.40323  Biso   1.000  C
  H25      1.0000 0.22800  0.24380  0.92980  Biso   1.000  H
  H26      1.0000 0.27200  0.25620  0.42980  Biso   1.000  H
  H27      1.0000 0.72800  0.25620  0.07020  Biso   1.000  H
  H28      1.0000 0.77200  0.24380  0.57020  Biso   1.000  H
  H29      1.0000 0.77200  0.75620  0.07020  Biso   1.000  H
  H30      1.0000 0.72800  0.74380  0.57020  Biso   1.000  H
  H31      1.0000 0.27200  0.74380  0.92980  Biso   1.000  H
  H32      1.0000 0.22800  0.75620  0.42980  Biso   1.000  H
  C41      1.0000 0.20080  0.48490  0.78839  Biso   1.000  C
  C42      1.0000 0.29920  0.01510  0.28839  Biso   1.000  C
  C43      1.0000 0.70080  0.01510  0.21161  Biso   1.000  C
  C44      1.0000 0.79920  0.48490  0.71161  Biso   1.000  C
  C45      1.0000 0.79920  0.51510  0.21161  Biso   1.000  C
  C46      1.0000 0.70080  0.98490  0.71161  Biso   1.000  C
  C47      1.0000 0.29920  0.98490  0.78839  Biso   1.000  C
  C48      1.0000 0.20080  0.51510  0.28839  Biso   1.000  C
  H33      1.0000 0.26460  0.53920  0.79810  Biso   1.000  H
  H34      1.0000 0.23540  0.96080  0.29810  Biso   1.000  H
  H35      1.0000 0.76460  0.96080  0.20190  Biso   1.000  H
  H36      1.0000 0.73540  0.53920  0.70190  Biso   1.000  H
  H37      1.0000 0.73540  0.46080  0.20190  Biso   1.000  H
  H38      1.0000 0.76460  0.03920  0.70190  Biso   1.000  H
  H39      1.0000 0.23540  0.03920  0.79810  Biso   1.000  H
  H40      1.0000 0.26460  0.46080  0.29810  Biso   1.000  H
  H41      1.0000 0.21680  0.42370  0.75980  Biso   1.000  H
  H42      1.0000 0.28320  0.07630  0.25980  Biso   1.000  H
  H43      1.0000 0.71680  0.07630  0.24020  Biso   1.000  H
  H44      1.0000 0.78320  0.42370  0.74020  Biso   1.000  H
  H45      1.0000 0.78320  0.57630  0.24020  Biso   1.000  H
  H46      1.0000 0.71680  0.92370  0.74020  Biso   1.000  H
  H47      1.0000 0.28320  0.92370  0.75980  Biso   1.000  H
  H48      1.0000 0.21680  0.57630  0.25980  Biso   1.000  H
  C49      1.0000 0.12710  0.67480  0.73864  Biso   1.000  C
  C50      1.0000 0.37290  0.82520  0.23864  Biso   1.000  C
  C51      1.0000 0.62710  0.82520  0.26136  Biso   1.000  C
  C52      1.0000 0.87290  0.67480  0.76136  Biso   1.000  C
  C53      1.0000 0.87290  0.32520  0.26136  Biso   1.000  C
  C54      1.0000 0.62710  0.17480  0.76136  Biso   1.000  C
  C55      1.0000 0.37290  0.17480  0.73864  Biso   1.000  C
  C56      1.0000 0.12710  0.32520  0.23864  Biso   1.000  C
  C57      1.0000 0.04400  0.77090  0.73257  Biso   1.000  C
  C58      1.0000 0.45600  0.72910  0.23257  Biso   1.000  C
  C59      1.0000 0.54400  0.72910  0.26743  Biso   1.000  C
  C60      1.0000 0.95600  0.77090  0.76743  Biso   1.000  C
  C61      1.0000 0.95600  0.22910  0.26743  Biso   1.000  C
  C62      1.0000 0.54400  0.27090  0.76743  Biso   1.000  C
  C63      1.0000 0.45600  0.27090  0.73257  Biso   1.000  C
  C64      1.0000 0.04400  0.22910  0.23257  Biso   1.000  C
  C65      1.0000 0.04470  0.86450  0.69293  Biso   1.000  C
  C66      1.0000 0.45530  0.63550  0.19293  Biso   1.000  C
  C67      1.0000 0.54470  0.63550  0.30707  Biso   1.000  C
  C68      1.0000 0.95530  0.86450  0.80707  Biso   1.000  C
  C69      1.0000 0.95530  0.13550  0.30707  Biso   1.000  C
  C70      1.0000 0.54470  0.36450  0.80707  Biso   1.000  C
  C71      1.0000 0.45530  0.36450  0.69293  Biso   1.000  C
  C72      1.0000 0.04470  0.13550  0.19293  Biso   1.000  C
  H49      1.0000 0.98840  0.93170  0.68790  Biso   1.000  H
  H50      1.0000 0.51160  0.56830  0.18790  Biso   1.000  H
  H51      1.0000 0.48840  0.56830  0.31210  Biso   1.000  H
  H52      1.0000 0.01160  0.93170  0.81210  Biso   1.000  H
  H53      1.0000 0.01160  0.06830  0.31210  Biso   1.000  H
  H54      1.0000 0.48840  0.43170  0.81210  Biso   1.000  H
  H55      1.0000 0.51160  0.43170  0.68790  Biso   1.000  H
  H56      1.0000 0.98840  0.06830  0.18790  Biso   1.000  H
  C73      1.0000 0.12590  0.86140  0.66066  Biso   1.000  C
  C74      1.0000 0.37410  0.63860  0.16066  Biso   1.000  C
  C75      1.0000 0.62590  0.63860  0.33934  Biso   1.000  C
  C76      1.0000 0.87410  0.86140  0.83934  Biso   1.000  C
  C77      1.0000 0.87410  0.13860  0.33934  Biso   1.000  C
  C78      1.0000 0.62590  0.36140  0.83934  Biso   1.000  C
  C79      1.0000 0.37410  0.36140  0.66066  Biso   1.000  C
  C80      1.0000 0.12590  0.13860  0.16066  Biso   1.000  C
  H57      1.0000 0.12540  0.92650  0.63380  Biso   1.000  H
  H58      1.0000 0.37460  0.57350  0.13380  Biso   1.000  H
  H59      1.0000 0.62540  0.57350  0.36620  Biso   1.000  H
  H60      1.0000 0.87460  0.92650  0.86620  Biso   1.000  H
  H61      1.0000 0.87460  0.07350  0.36620  Biso   1.000  H
  H62      1.0000 0.62540  0.42650  0.86620  Biso   1.000  H
  H63      1.0000 0.37460  0.42650  0.63380  Biso   1.000  H
  H64      1.0000 0.12540  0.07350  0.13380  Biso   1.000  H
  C81      1.0000 0.20710  0.76450  0.66733  Biso   1.000  C
  C82      1.0000 0.29290  0.73550  0.16733  Biso   1.000  C
  C83      1.0000 0.70710  0.73550  0.33267  Biso   1.000  C
  C84      1.0000 0.79290  0.76450  0.83267  Biso   1.000  C
  C85      1.0000 0.79290  0.23550  0.33267  Biso   1.000  C
  C86      1.0000 0.70710  0.26450  0.83267  Biso   1.000  C
  C87      1.0000 0.29290  0.26450  0.66733  Biso   1.000  C
  C88      1.0000 0.20710  0.23550  0.16733  Biso   1.000  C
  H65      1.0000 0.26210  0.76140  0.64470  Biso   1.000  H
  H66      1.0000 0.23790  0.73860  0.14470  Biso   1.000  H
  H67      1.0000 0.76210  0.73860  0.35530  Biso   1.000  H
  H68      1.0000 0.73790  0.76140  0.85530  Biso   1.000  H
  H69      1.0000 0.73790  0.23860  0.35530  Biso   1.000  H
  H70      1.0000 0.76210  0.26140  0.85530  Biso   1.000  H
  H71      1.0000 0.23790  0.26140  0.64470  Biso   1.000  H
  H72      1.0000 0.26210  0.23860  0.14470  Biso   1.000  H
  C89      1.0000 0.20970  0.67220  0.70630  Biso   1.000  C
  C90      1.0000 0.29030  0.82780  0.20630  Biso   1.000  C
  C91      1.0000 0.70970  0.82780  0.29370  Biso   1.000  C
  C92      1.0000 0.79030  0.67220  0.79370  Biso   1.000  C
  C93      1.0000 0.79030  0.32780  0.29370  Biso   1.000  C
  C94      1.0000 0.70970  0.17220  0.79370  Biso   1.000  C
  C95      1.0000 0.29030  0.17220  0.70630  Biso   1.000  C
  C96      1.0000 0.20970  0.32780  0.20630  Biso   1.000  C
  H73      1.0000 0.26700  0.60690  0.71130  Biso   1.000  H
  H74      1.0000 0.23300  0.89310  0.21130  Biso   1.000  H
  H75      1.0000 0.76700  0.89310  0.28870  Biso   1.000  H
  H76      1.0000 0.73300  0.60690  0.78870  Biso   1.000  H
  H77      1.0000 0.73300  0.39310  0.28870  Biso   1.000  H
  H78      1.0000 0.76700  0.10690  0.78870  Biso   1.000  H
  H79      1.0000 0.23300  0.10690  0.71130  Biso   1.000  H
  H80      1.0000 0.26700  0.39310  0.21130  Biso   1.000  H
  C97      1.0000 0.03310  0.75960  0.95360  Biso   1.000  C
  C98      1.0000 0.46690  0.74040  0.45360  Biso   1.000  C
  C99      1.0000 0.53310  0.74040  0.04640  Biso   1.000  C
  C100     1.0000 0.96690  0.75960  0.54640  Biso   1.000  C
  C101     1.0000 0.96690  0.24040  0.04640  Biso   1.000  C
  C102     1.0000 0.53310  0.25960  0.54640  Biso   1.000  C
  C103     1.0000 0.46690  0.25960  0.95360  Biso   1.000  C
  C104     1.0000 0.03310  0.24040  0.45360  Biso   1.000  C
  C105     1.0000 0.05290  0.61860  0.92670  Biso   1.000  C
  C106     1.0000 0.44710  0.88140  0.42670  Biso   1.000  C
  C107     1.0000 0.55290  0.88140  0.07330  Biso   1.000  C
  C108     1.0000 0.94710  0.61860  0.57330  Biso   1.000  C
  C109     1.0000 0.94710  0.38140  0.07330  Biso   1.000  C
  C110     1.0000 0.55290  0.11860  0.57330  Biso   1.000  C
  C111     1.0000 0.44710  0.11860  0.92670  Biso   1.000  C
  C112     1.0000 0.05290  0.38140  0.42670  Biso   1.000  C
  H81      1.0000 0.07960  0.64310  0.89480  Biso   1.000  H
  H82      1.0000 0.42040  0.85690  0.39480  Biso   1.000  H
  H83      1.0000 0.57960  0.85690  0.10520  Biso   1.000  H
  H84      1.0000 0.92040  0.64310  0.60520  Biso   1.000  H
  H85      1.0000 0.92040  0.35690  0.10520  Biso   1.000  H
  H86      1.0000 0.57960  0.14310  0.60520  Biso   1.000  H
  H87      1.0000 0.42040  0.14310  0.89480  Biso   1.000  H
  H88      1.0000 0.07960  0.35690  0.39480  Biso   1.000  H
  H89      1.0000 0.98790  0.56210  0.92360  Biso   1.000  H
  H90      1.0000 0.51210  0.93790  0.42360  Biso   1.000  H
  H91      1.0000 0.48790  0.93790  0.07640  Biso   1.000  H
  H92      1.0000 0.01210  0.56210  0.57640  Biso   1.000  H
  H93      1.0000 0.01210  0.43790  0.07640  Biso   1.000  H
  H94      1.0000 0.48790  0.06210  0.57640  Biso   1.000  H
  H95      1.0000 0.51210  0.06210  0.92360  Biso   1.000  H
  H96      1.0000 0.98790  0.43790  0.42360  Biso   1.000  H
  H97      1.0000 0.10430  0.55790  0.94380  Biso   1.000  H
  H98      1.0000 0.39570  0.94210  0.44380  Biso   1.000  H
  H99      1.0000 0.60430  0.94210  0.05620  Biso   1.000  H
  H100     1.0000 0.89570  0.55790  0.55620  Biso   1.000  H
  H101     1.0000 0.89570  0.44210  0.05620  Biso   1.000  H
  H102     1.0000 0.60430  0.05790  0.55620  Biso   1.000  H
  H103     1.0000 0.39570  0.05790  0.94380  Biso   1.000  H
  H104     1.0000 0.10430  0.44210  0.44380  Biso   1.000  H
  C113     1.0000 0.81510  0.00840  0.96831  Biso   1.000  C
  C114     1.0000 0.68490  0.49160  0.46831  Biso   1.000  C
  C115     1.0000 0.31510  0.49160  0.03169  Biso   1.000  C
  C116     1.0000 0.18490  0.00840  0.53169  Biso   1.000  C
  C117     1.0000 0.18490  0.99160  0.03169  Biso   1.000  C
  C118     1.0000 0.31510  0.50840  0.53169  Biso   1.000  C
  C119     1.0000 0.68490  0.50840  0.96831  Biso   1.000  C
  C120     1.0000 0.81510  0.99160  0.46831  Biso   1.000  C
  C121     1.0000 0.70510  0.01340  0.95060  Biso   1.000  C
  C122     1.0000 0.79490  0.48660  0.45060  Biso   1.000  C
  C123     1.0000 0.20510  0.48660  0.04940  Biso   1.000  C
  C124     1.0000 0.29490  0.01340  0.54940  Biso   1.000  C
  C125     1.0000 0.29490  0.98660  0.04940  Biso   1.000  C
  C126     1.0000 0.20510  0.51340  0.54940  Biso   1.000  C
  C127     1.0000 0.79490  0.51340  0.95060  Biso   1.000  C
  C128     1.0000 0.70510  0.98660  0.45060  Biso   1.000  C
  H105     1.0000 0.66000  0.95850  0.97270  Biso   1.000  H
  H106     1.0000 0.84000  0.54150  0.47270  Biso   1.000  H
  H107     1.0000 0.16000  0.54150  0.02730  Biso   1.000  H
  H108     1.0000 0.34000  0.95850  0.52730  Biso   1.000  H
  H109     1.0000 0.34000  0.04150  0.02730  Biso   1.000  H
  H110     1.0000 0.16000  0.45850  0.52730  Biso   1.000  H
  H111     1.0000 0.84000  0.45850  0.97270  Biso   1.000  H
  H112     1.0000 0.66000  0.04150  0.47270  Biso   1.000  H
  H113     1.0000 0.70140  0.96710  0.91890  Biso   1.000  H
  H114     1.0000 0.79860  0.53290  0.41890  Biso   1.000  H
  H115     1.0000 0.20140  0.53290  0.08110  Biso   1.000  H
  H116     1.0000 0.29860  0.96710  0.58110  Biso   1.000  H
  H117     1.0000 0.29860  0.03290  0.08110  Biso   1.000  H
  H118     1.0000 0.20140  0.46710  0.58110  Biso   1.000  H
  H119     1.0000 0.79860  0.46710  0.91890  Biso   1.000  H
  H120     1.0000 0.70140  0.03290  0.41890  Biso   1.000  H
  H121     1.0000 0.68200  0.11790  0.94850  Biso   1.000  H
  H122     1.0000 0.81800  0.38210  0.44850  Biso   1.000  H
  H123     1.0000 0.18200  0.38210  0.05150  Biso   1.000  H
  H124     1.0000 0.31800  0.11790  0.55150  Biso   1.000  H
  H125     1.0000 0.31800  0.88210  0.05150  Biso   1.000  H
  H126     1.0000 0.18200  0.61790  0.55150  Biso   1.000  H
  H127     1.0000 0.81800  0.61790  0.94850  Biso   1.000  H
  H128     1.0000 0.68200  0.88210  0.44850  Biso   1.000  H
  O1       1.0000 0.12170  0.58520  0.77849  Biso   1.000  O
  O2       1.0000 0.37830  0.91480  0.27849  Biso   1.000  O
  O3       1.0000 0.62170  0.91480  0.22151  Biso   1.000  O
  O4       1.0000 0.87830  0.58520  0.72151  Biso   1.000  O
  O5       1.0000 0.87830  0.41480  0.22151  Biso   1.000  O
  O6       1.0000 0.62170  0.08520  0.72151  Biso   1.000  O
  O7       1.0000 0.37830  0.08520  0.77849  Biso   1.000  O
  O8       1.0000 0.12170  0.41480  0.27849  Biso   1.000  O
  O9       1.0000 0.05260  0.88250  0.93301  Biso   1.000  O
  O10      1.0000 0.44740  0.61750  0.43301  Biso   1.000  O
  O11      1.0000 0.55260  0.61750  0.06699  Biso   1.000  O
  O12      1.0000 0.94740  0.88250  0.56699  Biso   1.000  O
  O13      1.0000 0.94740  0.11750  0.06699  Biso   1.000  O
  O14      1.0000 0.55260  0.38250  0.56699  Biso   1.000  O
  O15      1.0000 0.44740  0.38250  0.93301  Biso   1.000  O
  O16      1.0000 0.05260  0.11750  0.43301  Biso   1.000  O
  O17      1.0000 0.99850  0.74770  0.99546  Biso   1.000  O
  O18      1.0000 0.50150  0.75230  0.49546  Biso   1.000  O
  O19      1.0000 0.49850  0.75230  0.00454  Biso   1.000  O
  O20      1.0000 0.00150  0.74770  0.50454  Biso   1.000  O
  O21      1.0000 0.00150  0.25230  0.00454  Biso   1.000  O
  O22      1.0000 0.49850  0.24770  0.50454  Biso   1.000  O
  O23      1.0000 0.50150  0.24770  0.99546  Biso   1.000  O
  O24      1.0000 0.99850  0.25230  0.49546  Biso   1.000  O
  O25      1.0000 0.88420  0.07350  0.94425  Biso   1.000  O
  O26      1.0000 0.61580  0.42650  0.44425  Biso   1.000  O
  O27      1.0000 0.38420  0.42650  0.05575  Biso   1.000  O
  O28      1.0000 0.11580  0.07350  0.55575  Biso   1.000  O
  O29      1.0000 0.11580  0.92650  0.05575  Biso   1.000  O
  O30      1.0000 0.38420  0.57350  0.55575  Biso   1.000  O
  O31      1.0000 0.61580  0.57350  0.94425  Biso   1.000  O
  O32      1.0000 0.88420  0.92650  0.44425  Biso   1.000  O
  O33      1.0000 0.83100  0.94000  0.00643  Biso   1.000  O
  O34      1.0000 0.66900  0.56000  0.50643  Biso   1.000  O
  O35      1.0000 0.33100  0.56000  0.99357  Biso   1.000  O
  O36      1.0000 0.16900  0.94000  0.49357  Biso   1.000  O
  O37      1.0000 0.16900  0.06000  0.99357  Biso   1.000  O
  O38      1.0000 0.33100  0.44000  0.49357  Biso   1.000  O
  O39      1.0000 0.66900  0.44000  0.00643  Biso   1.000  O
  O40      1.0000 0.83100  0.06000  0.50643  Biso   1.000  O
