data_image0
_cell_length_a       10.3222
_cell_length_b       11.5993
_cell_length_c       16.0222
_cell_angle_alpha    90
_cell_angle_beta     101.197
_cell_angle_gamma    90

_symmetry_space_group_name_H-M    "P 1"
_symmetry_int_tables_number       1

loop_
  _symmetry_equiv_pos_as_xyz
  'x, y, z'

loop_
  _atom_site_label
  _atom_site_occupancy
  _atom_site_fract_x
  _atom_site_fract_y
  _atom_site_fract_z
  _atom_site_thermal_displace_type
  _atom_site_B_iso_or_equiv
  _atom_site_type_symbol
  Cu1      1.0000 0.90250  0.88478  0.08551  Biso   1.000  Cu
  Cu2      1.0000 0.59750  0.38478  0.41449  Biso   1.000  Cu
  Cu3      1.0000 0.09750  0.11522  0.91449  Biso   1.000  Cu
  Cu4      1.0000 0.40250  0.61522  0.58551  Biso   1.000  Cu
  O1       1.0000 0.79920  0.90260  0.17569  Biso   1.000  O
  O2       1.0000 0.70080  0.40260  0.32431  Biso   1.000  O
  O3       1.0000 0.20080  0.09740  0.82431  Biso   1.000  O
  O4       1.0000 0.29920  0.59740  0.67569  Biso   1.000  O
  O5       1.0000 0.76310  0.71430  0.18098  Biso   1.000  O
  O6       1.0000 0.73690  0.21430  0.31902  Biso   1.000  O
  O7       1.0000 0.23690  0.28570  0.81902  Biso   1.000  O
  O8       1.0000 0.26310  0.78570  0.68098  Biso   1.000  O
  O9       1.0000 0.64260  0.07200  0.42589  Biso   1.000  O
  O10      1.0000 0.85740  0.57200  0.07411  Biso   1.000  O
  O11      1.0000 0.35740  0.92800  0.57411  Biso   1.000  O
  O12      1.0000 0.14260  0.42800  0.92589  Biso   1.000  O
  H1       1.0000 0.67640  0.11860  0.39810  Biso   1.000  H
  H2       1.0000 0.82360  0.61860  0.10190  Biso   1.000  H
  H3       1.0000 0.32360  0.88140  0.60190  Biso   1.000  H
  H4       1.0000 0.17640  0.38140  0.89810  Biso   1.000  H
  O13      1.0000 0.53310  0.56730  0.40923  Biso   1.000  O
  O14      1.0000 0.96690  0.06730  0.09077  Biso   1.000  O
  O15      1.0000 0.46690  0.43270  0.59077  Biso   1.000  O
  O16      1.0000 0.03310  0.93270  0.90923  Biso   1.000  O
  O17      1.0000 0.49110  0.69340  0.50539  Biso   1.000  O
  O18      1.0000 0.00890  0.19340  0.99461  Biso   1.000  O
  O19      1.0000 0.50890  0.30660  0.49461  Biso   1.000  O
  O20      1.0000 0.99110  0.80660  0.00539  Biso   1.000  O
  N1       1.0000 0.05580  0.84250  0.17980  Biso   1.000  N
  N2       1.0000 0.44420  0.34250  0.32020  Biso   1.000  N
  N3       1.0000 0.94420  0.15750  0.82020  Biso   1.000  N
  N4       1.0000 0.55580  0.65750  0.67980  Biso   1.000  N
  N5       1.0000 0.73630  0.90750  0.99700  Biso   1.000  N
  N6       1.0000 0.76370  0.40750  0.50300  Biso   1.000  N
  N7       1.0000 0.26370  0.09250  0.00300  Biso   1.000  N
  N8       1.0000 0.23630  0.59250  0.49700  Biso   1.000  N
  N9       1.0000 0.59480  0.09760  0.82470  Biso   1.000  N
  N10      1.0000 0.90520  0.59760  0.67530  Biso   1.000  N
  N11      1.0000 0.40520  0.90240  0.17530  Biso   1.000  N
  N12      1.0000 0.09480  0.40240  0.32470  Biso   1.000  N
  H5       1.0000 0.52090  0.10980  0.79040  Biso   1.000  H
  H6       1.0000 0.97910  0.60980  0.70960  Biso   1.000  H
  H7       1.0000 0.47910  0.89020  0.20960  Biso   1.000  H
  H8       1.0000 0.02090  0.39020  0.29040  Biso   1.000  H
  H9       1.0000 0.66140  0.14160  0.82330  Biso   1.000  H
  H10      1.0000 0.83860  0.64160  0.67670  Biso   1.000  H
  H11      1.0000 0.33860  0.85840  0.17670  Biso   1.000  H
  H12      1.0000 0.16140  0.35840  0.32330  Biso   1.000  H
  N13      1.0000 0.21950  0.96410  0.38100  Biso   1.000  N
  N14      1.0000 0.28050  0.46410  0.11900  Biso   1.000  N
  N15      1.0000 0.78050  0.03590  0.61900  Biso   1.000  N
  N16      1.0000 0.71950  0.53590  0.88100  Biso   1.000  N
  H13      1.0000 0.28110  0.94750  0.42370  Biso   1.000  H
  H14      1.0000 0.21890  0.44750  0.07630  Biso   1.000  H
  H15      1.0000 0.71890  0.05250  0.57630  Biso   1.000  H
  H16      1.0000 0.78110  0.55250  0.92370  Biso   1.000  H
  H17      1.0000 0.18140  0.03030  0.37830  Biso   1.000  H
  H18      1.0000 0.31860  0.53030  0.12170  Biso   1.000  H
  H19      1.0000 0.81860  0.96970  0.62170  Biso   1.000  H
  H20      1.0000 0.68140  0.46970  0.87830  Biso   1.000  H
  C1       1.0000 0.76010  0.81330  0.20940  Biso   1.000  C
  C2       1.0000 0.73990  0.31330  0.29060  Biso   1.000  C
  C3       1.0000 0.23990  0.18670  0.79060  Biso   1.000  C
  C4       1.0000 0.26010  0.68670  0.70940  Biso   1.000  C
  C5       1.0000 0.70300  0.83290  0.28770  Biso   1.000  C
  C6       1.0000 0.79700  0.33290  0.21230  Biso   1.000  C
  C7       1.0000 0.29700  0.16710  0.71230  Biso   1.000  C
  C8       1.0000 0.20300  0.66710  0.78770  Biso   1.000  C
  C9       1.0000 0.64970  0.74200  0.32650  Biso   1.000  C
  C10      1.0000 0.85030  0.24200  0.17350  Biso   1.000  C
  C11      1.0000 0.35030  0.25800  0.67350  Biso   1.000  C
  C12      1.0000 0.14970  0.75800  0.82650  Biso   1.000  C
  H21      1.0000 0.65070  0.66760  0.30490  Biso   1.000  H
  H22      1.0000 0.84930  0.16760  0.19510  Biso   1.000  H
  H23      1.0000 0.34930  0.33240  0.69510  Biso   1.000  H
  H24      1.0000 0.15070  0.83240  0.80490  Biso   1.000  H
  C13      1.0000 0.59460  0.76310  0.39810  Biso   1.000  C
  C14      1.0000 0.90540  0.26310  0.10190  Biso   1.000  C
  C15      1.0000 0.40540  0.23690  0.60190  Biso   1.000  C
  C16      1.0000 0.09460  0.73690  0.89810  Biso   1.000  C
  C17      1.0000 0.59290  0.87340  0.43000  Biso   1.000  C
  C18      1.0000 0.90710  0.37340  0.07000  Biso   1.000  C
  C19      1.0000 0.40710  0.12660  0.57000  Biso   1.000  C
  C20      1.0000 0.09290  0.62660  0.93000  Biso   1.000  C
  H25      1.0000 0.55560  0.88720  0.47750  Biso   1.000  H
  H26      1.0000 0.94440  0.38720  0.02250  Biso   1.000  H
  H27      1.0000 0.44440  0.11280  0.52250  Biso   1.000  H
  H28      1.0000 0.05560  0.61280  0.97750  Biso   1.000  H
  C21      1.0000 0.64670  0.96400  0.39130  Biso   1.000  C
  C22      1.0000 0.85330  0.46400  0.10870  Biso   1.000  C
  C23      1.0000 0.35330  0.03600  0.60870  Biso   1.000  C
  C24      1.0000 0.14670  0.53600  0.89130  Biso   1.000  C
  C25      1.0000 0.70150  0.94320  0.32010  Biso   1.000  C
  C26      1.0000 0.79850  0.44320  0.17990  Biso   1.000  C
  C27      1.0000 0.29850  0.05680  0.67990  Biso   1.000  C
  C28      1.0000 0.20150  0.55680  0.82010  Biso   1.000  C
  H29      1.0000 0.73720  0.00390  0.29400  Biso   1.000  H
  H30      1.0000 0.76280  0.50390  0.20600  Biso   1.000  H
  H31      1.0000 0.26280  0.99610  0.70600  Biso   1.000  H
  H32      1.0000 0.23720  0.49610  0.79400  Biso   1.000  H
  C29      1.0000 0.53540  0.66490  0.43970  Biso   1.000  C
  C30      1.0000 0.96460  0.16490  0.06030  Biso   1.000  C
  C31      1.0000 0.46460  0.33510  0.56030  Biso   1.000  C
  C32      1.0000 0.03540  0.83510  0.93970  Biso   1.000  C
  C33      1.0000 0.11410  0.73920  0.18260  Biso   1.000  C
  C34      1.0000 0.38590  0.23920  0.31740  Biso   1.000  C
  C35      1.0000 0.88590  0.26080  0.81740  Biso   1.000  C
  C36      1.0000 0.61410  0.76080  0.68260  Biso   1.000  C
  H33      1.0000 0.09120  0.68920  0.13670  Biso   1.000  H
  H34      1.0000 0.40880  0.18920  0.36330  Biso   1.000  H
  H35      1.0000 0.90880  0.31080  0.86330  Biso   1.000  H
  H36      1.0000 0.59120  0.81080  0.63670  Biso   1.000  H
  C37      1.0000 0.20600  0.70550  0.25120  Biso   1.000  C
  C38      1.0000 0.29400  0.20550  0.24880  Biso   1.000  C
  C39      1.0000 0.79400  0.29450  0.74880  Biso   1.000  C
  C40      1.0000 0.70600  0.79450  0.75120  Biso   1.000  C
  H37      1.0000 0.24550  0.63340  0.25160  Biso   1.000  H
  H38      1.0000 0.25450  0.13340  0.24840  Biso   1.000  H
  H39      1.0000 0.75450  0.36660  0.74840  Biso   1.000  H
  H40      1.0000 0.74550  0.86660  0.75160  Biso   1.000  H
  C41      1.0000 0.24080  0.77880  0.32030  Biso   1.000  C
  C42      1.0000 0.25920  0.27880  0.17970  Biso   1.000  C
  C43      1.0000 0.75920  0.22120  0.67970  Biso   1.000  C
  C44      1.0000 0.74080  0.72120  0.82030  Biso   1.000  C
  H41      1.0000 0.30290  0.75590  0.36750  Biso   1.000  H
  H42      1.0000 0.19710  0.25590  0.13250  Biso   1.000  H
  H43      1.0000 0.69710  0.24410  0.63250  Biso   1.000  H
  H44      1.0000 0.80290  0.74410  0.86750  Biso   1.000  H
  C45      1.0000 0.18240  0.88610  0.31850  Biso   1.000  C
  C46      1.0000 0.31760  0.38610  0.18150  Biso   1.000  C
  C47      1.0000 0.81760  0.11390  0.68150  Biso   1.000  C
  C48      1.0000 0.68240  0.61390  0.81850  Biso   1.000  C
  C49      1.0000 0.08950  0.91300  0.24570  Biso   1.000  C
  C50      1.0000 0.41050  0.41300  0.25430  Biso   1.000  C
  C51      1.0000 0.91050  0.08700  0.75430  Biso   1.000  C
  C52      1.0000 0.58950  0.58700  0.74570  Biso   1.000  C
  H45      1.0000 0.04870  0.98470  0.24310  Biso   1.000  H
  H46      1.0000 0.45130  0.48470  0.25690  Biso   1.000  H
  H47      1.0000 0.95130  0.01530  0.75690  Biso   1.000  H
  H48      1.0000 0.54870  0.51530  0.74310  Biso   1.000  H
  C53      1.0000 0.63020  0.83860  0.99760  Biso   1.000  C
  C54      1.0000 0.86980  0.33860  0.50240  Biso   1.000  C
  C55      1.0000 0.36980  0.16140  0.00240  Biso   1.000  C
  C56      1.0000 0.13020  0.66140  0.49760  Biso   1.000  C
  H49      1.0000 0.63810  0.77990  0.03780  Biso   1.000  H
  H50      1.0000 0.86190  0.27990  0.46220  Biso   1.000  H
  H51      1.0000 0.36190  0.22010  0.96220  Biso   1.000  H
  H52      1.0000 0.13810  0.72010  0.53780  Biso   1.000  H
  C57      1.0000 0.51280  0.85090  0.94240  Biso   1.000  C
  C58      1.0000 0.98720  0.35090  0.55760  Biso   1.000  C
  C59      1.0000 0.48720  0.14910  0.05760  Biso   1.000  C
  C60      1.0000 0.01280  0.64910  0.44240  Biso   1.000  C
  H53      1.0000 0.44290  0.80110  0.94440  Biso   1.000  H
  H54      1.0000 0.05710  0.30110  0.55560  Biso   1.000  H
  H55      1.0000 0.55710  0.19890  0.05560  Biso   1.000  H
  H56      1.0000 0.94290  0.69890  0.44440  Biso   1.000  H
  C61      1.0000 0.50000  0.93800  0.88420  Biso   1.000  C
  C62      1.0000 0.00000  0.43800  0.61580  Biso   1.000  C
  C63      1.0000 0.50000  0.06200  0.11580  Biso   1.000  C
  C64      1.0000 0.00000  0.56200  0.38420  Biso   1.000  C
  H57      1.0000 0.42020  0.94950  0.84670  Biso   1.000  H
  H58      1.0000 0.07980  0.44950  0.65330  Biso   1.000  H
  H59      1.0000 0.57980  0.05050  0.15330  Biso   1.000  H
  H60      1.0000 0.92020  0.55050  0.34670  Biso   1.000  H
  C65      1.0000 0.60610  0.00880  0.88130  Biso   1.000  C
  C66      1.0000 0.89390  0.50880  0.61870  Biso   1.000  C
  C67      1.0000 0.39390  0.99120  0.11870  Biso   1.000  C
  C68      1.0000 0.10610  0.49120  0.38130  Biso   1.000  C
  C69      1.0000 0.72350  0.99020  0.93870  Biso   1.000  C
  C70      1.0000 0.77650  0.49020  0.56130  Biso   1.000  C
  C71      1.0000 0.27650  0.00980  0.06130  Biso   1.000  C
  C72      1.0000 0.22350  0.50980  0.43870  Biso   1.000  C
  H61      1.0000 0.79570  0.03720  0.93620  Biso   1.000  H
  H62      1.0000 0.70430  0.53720  0.56380  Biso   1.000  H
  H63      1.0000 0.20430  0.96280  0.06380  Biso   1.000  H
  H64      1.0000 0.29570  0.46280  0.43620  Biso   1.000  H
  O21      1.0000 0.02180  0.14690  0.38300  Biso   1.000  O
  O22      1.0000 0.47820  0.64690  0.11700  Biso   1.000  O
  O23      1.0000 0.97820  0.85310  0.61700  Biso   1.000  O
  O24      1.0000 0.52180  0.35310  0.88300  Biso   1.000  O
  H65      1.0000 0.94300  0.16600  0.35710  Biso   1.000  H
  H66      1.0000 0.55700  0.66600  0.14290  Biso   1.000  H
  H67      1.0000 0.05700  0.83400  0.64290  Biso   1.000  H
  H68      1.0000 0.44300  0.33400  0.85710  Biso   1.000  H
  H69      1.0000 0.02300  0.15400  0.43630  Biso   1.000  H
  H70      1.0000 0.47700  0.65400  0.06370  Biso   1.000  H
  H71      1.0000 0.97700  0.84600  0.56370  Biso   1.000  H
  H72      1.0000 0.52300  0.34600  0.93630  Biso   1.000  H
  O25      1.0000 0.00100  0.05400  0.46680  Biso   1.000  O
  O26      1.0000 0.49900  0.55400  0.03320  Biso   1.000  O
  O27      1.0000 0.99900  0.94600  0.53320  Biso   1.000  O
  O28      1.0000 0.50100  0.44600  0.96680  Biso   1.000  O
  H73      1.0000 0.01000  0.98100  0.46800  Biso   1.000  H
  H74      1.0000 0.49000  0.48100  0.03200  Biso   1.000  H
  H75      1.0000 0.99000  0.01900  0.53200  Biso   1.000  H
  H76      1.0000 0.51000  0.51900  0.96800  Biso   1.000  H
  H77      1.0000 0.01000  0.07900  0.51700  Biso   1.000  H
  H78      1.0000 0.49000  0.57900  0.98300  Biso   1.000  H
  H79      1.0000 0.99000  0.92100  0.48300  Biso   1.000  H
  H80      1.0000 0.51000  0.42100  0.01700  Biso   1.000  H
