data_image0
_cell_length_a       19.257
_cell_length_b       9.343
_cell_length_c       5.43
_cell_angle_alpha    90
_cell_angle_beta     93.31
_cell_angle_gamma    90

_symmetry_space_group_name_H-M    "P 1"
_symmetry_int_tables_number       1

loop_
  _symmetry_equiv_pos_as_xyz
  'x, y, z'

loop_
  _atom_site_label
  _atom_site_occupancy
  _atom_site_fract_x
  _atom_site_fract_y
  _atom_site_fract_z
  _atom_site_thermal_displace_type
  _atom_site_B_iso_or_equiv
  _atom_site_type_symbol
  Cu1      1.0000 0.18981  0.76854  0.93237  Biso   1.000  Cu
  Cu2      1.0000 0.81019  0.76854  0.06763  Biso   1.000  Cu
  Cu3      1.0000 0.68981  0.26854  0.93237  Biso   1.000  Cu
  Cu4      1.0000 0.31019  0.26854  0.06763  Biso   1.000  Cu
  O1       1.0000 0.24021  0.95610  0.97920  Biso   1.000  O
  O2       1.0000 0.75979  0.95610  0.02080  Biso   1.000  O
  O3       1.0000 0.74021  0.45610  0.97920  Biso   1.000  O
  O4       1.0000 0.25979  0.45610  0.02080  Biso   1.000  O
  O5       1.0000 0.25008  0.17310  0.81390  Biso   1.000  O
  O6       1.0000 0.74992  0.17310  0.18610  Biso   1.000  O
  O7       1.0000 0.75008  0.67310  0.81390  Biso   1.000  O
  O8       1.0000 0.24992  0.67310  0.18610  Biso   1.000  O
  O9       1.0000 0.11218  0.81570  0.23620  Biso   1.000  O
  O10      1.0000 0.88782  0.81570  0.76380  Biso   1.000  O
  O11      1.0000 0.61218  0.31570  0.23620  Biso   1.000  O
  O12      1.0000 0.38782  0.31570  0.76380  Biso   1.000  O
  N1       1.0000 0.13520  0.59810  0.79330  Biso   1.000  N
  N2       1.0000 0.86480  0.59810  0.20670  Biso   1.000  N
  N3       1.0000 0.63520  0.09810  0.79330  Biso   1.000  N
  N4       1.0000 0.36480  0.09810  0.20670  Biso   1.000  N
  H1       1.0000 0.16160  0.51870  0.80600  Biso   1.000  H
  H2       1.0000 0.83840  0.51870  0.19400  Biso   1.000  H
  H3       1.0000 0.66160  0.01870  0.80600  Biso   1.000  H
  H4       1.0000 0.33840  0.01870  0.19400  Biso   1.000  H
  H5       1.0000 0.09720  0.58410  0.87950  Biso   1.000  H
  H6       1.0000 0.90280  0.58410  0.12050  Biso   1.000  H
  H7       1.0000 0.59720  0.08410  0.87950  Biso   1.000  H
  H8       1.0000 0.40280  0.08410  0.12050  Biso   1.000  H
  N5       1.0000 0.15636  0.85830  0.63440  Biso   1.000  N
  N6       1.0000 0.84364  0.85830  0.36560  Biso   1.000  N
  N7       1.0000 0.65636  0.35830  0.63440  Biso   1.000  N
  N8       1.0000 0.34364  0.35830  0.36560  Biso   1.000  N
  C1       1.0000 0.11440  0.62540  0.53450  Biso   1.000  C
  C2       1.0000 0.88560  0.62540  0.46550  Biso   1.000  C
  C3       1.0000 0.61440  0.12540  0.53450  Biso   1.000  C
  C4       1.0000 0.38560  0.12540  0.46550  Biso   1.000  C
  H9       1.0000 0.06520  0.60490  0.50660  Biso   1.000  H
  H10      1.0000 0.93480  0.60490  0.49340  Biso   1.000  H
  H11      1.0000 0.56520  0.10490  0.50660  Biso   1.000  H
  H12      1.0000 0.43480  0.10490  0.49340  Biso   1.000  H
  H13      1.0000 0.13970  0.56110  0.43170  Biso   1.000  H
  H14      1.0000 0.86030  0.56110  0.56830  Biso   1.000  H
  H15      1.0000 0.63970  0.06110  0.43170  Biso   1.000  H
  H16      1.0000 0.36030  0.06110  0.56830  Biso   1.000  H
  C5       1.0000 0.12796  0.77780  0.45840  Biso   1.000  C
  C6       1.0000 0.87204  0.77780  0.54160  Biso   1.000  C
  C7       1.0000 0.62796  0.27780  0.45840  Biso   1.000  C
  C8       1.0000 0.37204  0.27780  0.54160  Biso   1.000  C
  C9       1.0000 0.17737  0.00520  0.59080  Biso   1.000  C
  C10      1.0000 0.82263  0.00520  0.40920  Biso   1.000  C
  C11      1.0000 0.67737  0.50520  0.59080  Biso   1.000  C
  C12      1.0000 0.32263  0.50520  0.40920  Biso   1.000  C
  H17      1.0000 0.20380  0.00770  0.44180  Biso   1.000  H
  H18      1.0000 0.79620  0.00770  0.55820  Biso   1.000  H
  H19      1.0000 0.70380  0.50770  0.44180  Biso   1.000  H
  H20      1.0000 0.29620  0.50770  0.55820  Biso   1.000  H
  C13      1.0000 0.22595  0.04670  0.81230  Biso   1.000  C
  C14      1.0000 0.77405  0.04670  0.18770  Biso   1.000  C
  C15      1.0000 0.72595  0.54670  0.81230  Biso   1.000  C
  C16      1.0000 0.27405  0.54670  0.18770  Biso   1.000  C
  C17      1.0000 0.11410  0.10680  0.55390  Biso   1.000  C
  C18      1.0000 0.88590  0.10680  0.44610  Biso   1.000  C
  C19      1.0000 0.61410  0.60680  0.55390  Biso   1.000  C
  C20      1.0000 0.38590  0.60680  0.44610  Biso   1.000  C
  H21      1.0000 0.08200  0.06170  0.43050  Biso   1.000  H
  H22      1.0000 0.91800  0.06170  0.56950  Biso   1.000  H
  H23      1.0000 0.58200  0.56170  0.43050  Biso   1.000  H
  H24      1.0000 0.41800  0.56170  0.56950  Biso   1.000  H
  C21      1.0000 0.07480  0.12200  0.78720  Biso   1.000  C
  C22      1.0000 0.92520  0.12200  0.21280  Biso   1.000  C
  C23      1.0000 0.57480  0.62200  0.78720  Biso   1.000  C
  C24      1.0000 0.42520  0.62200  0.21280  Biso   1.000  C
  H25      1.0000 0.06350  0.02880  0.84750  Biso   1.000  H
  H26      1.0000 0.93650  0.02880  0.15250  Biso   1.000  H
  H27      1.0000 0.56350  0.52880  0.84750  Biso   1.000  H
  H28      1.0000 0.43650  0.52880  0.15250  Biso   1.000  H
  H29      1.0000 0.03280  0.17510  0.75110  Biso   1.000  H
  H30      1.0000 0.96720  0.17510  0.24890  Biso   1.000  H
  H31      1.0000 0.53280  0.67510  0.75110  Biso   1.000  H
  H32      1.0000 0.46720  0.67510  0.24890  Biso   1.000  H
  H33      1.0000 0.10330  0.17170  0.91030  Biso   1.000  H
  H34      1.0000 0.89670  0.17170  0.08970  Biso   1.000  H
  H35      1.0000 0.60330  0.67170  0.91030  Biso   1.000  H
  H36      1.0000 0.39670  0.67170  0.08970  Biso   1.000  H
  C25      1.0000 0.13340  0.25140  0.44960  Biso   1.000  C
  C26      1.0000 0.86660  0.25140  0.55040  Biso   1.000  C
  C27      1.0000 0.63340  0.75140  0.44960  Biso   1.000  C
  C28      1.0000 0.36660  0.75140  0.55040  Biso   1.000  C
  H37      1.0000 0.09180  0.30350  0.40190  Biso   1.000  H
  H38      1.0000 0.90820  0.30350  0.59810  Biso   1.000  H
  H39      1.0000 0.59180  0.80350  0.40190  Biso   1.000  H
  H40      1.0000 0.40820  0.80350  0.59810  Biso   1.000  H
  H41      1.0000 0.16030  0.23760  0.30810  Biso   1.000  H
  H42      1.0000 0.83970  0.23760  0.69190  Biso   1.000  H
  H43      1.0000 0.66030  0.73760  0.30810  Biso   1.000  H
  H44      1.0000 0.33970  0.73760  0.69190  Biso   1.000  H
  H45      1.0000 0.16030  0.30460  0.57280  Biso   1.000  H
  H46      1.0000 0.83970  0.30460  0.42720  Biso   1.000  H
  H47      1.0000 0.66030  0.80460  0.57280  Biso   1.000  H
  H48      1.0000 0.33970  0.80460  0.42720  Biso   1.000  H
  O13      1.0000 0.00000  0.67920  0.00000  Biso   1.000  O
  O14      1.0000 0.50000  0.17920  0.00000  Biso   1.000  O
  H49      1.0000 0.03100  0.73100  0.07500  Biso   1.000  H
  H50      1.0000 0.96900  0.73100  0.92500  Biso   1.000  H
  H51      1.0000 0.53100  0.23100  0.07500  Biso   1.000  H
  H52      1.0000 0.46900  0.23100  0.92500  Biso   1.000  H
