data_image0
_cell_length_a       18.14
_cell_length_b       16.17
_cell_length_c       20.66
_cell_angle_alpha    90
_cell_angle_beta     114.05
_cell_angle_gamma    90

_symmetry_space_group_name_H-M    "P 1"
_symmetry_int_tables_number       1

loop_
  _symmetry_equiv_pos_as_xyz
  'x, y, z'

loop_
  _atom_site_label
  _atom_site_occupancy
  _atom_site_fract_x
  _atom_site_fract_y
  _atom_site_fract_z
  _atom_site_thermal_displace_type
  _atom_site_B_iso_or_equiv
  _atom_site_type_symbol
  C1       1.0000 0.21990  0.80130  0.11150  Biso   1.000  C
  C2       1.0000 0.28010  0.30130  0.38850  Biso   1.000  C
  C3       1.0000 0.78010  0.19870  0.88850  Biso   1.000  C
  C4       1.0000 0.71990  0.69870  0.61150  Biso   1.000  C
  C5       1.0000 0.43390  0.12060  0.35920  Biso   1.000  C
  C6       1.0000 0.06610  0.62060  0.14080  Biso   1.000  C
  C7       1.0000 0.56610  0.87940  0.64080  Biso   1.000  C
  C8       1.0000 0.93390  0.37940  0.85920  Biso   1.000  C
  H1       1.0000 0.42850  0.17750  0.35260  Biso   1.000  H
  H2       1.0000 0.07150  0.67750  0.14740  Biso   1.000  H
  H3       1.0000 0.57150  0.82250  0.64740  Biso   1.000  H
  H4       1.0000 0.92850  0.32250  0.85260  Biso   1.000  H
  C9       1.0000 0.74500  0.03510  0.41230  Biso   1.000  C
  C10      1.0000 0.75500  0.53510  0.08770  Biso   1.000  C
  C11      1.0000 0.25500  0.96490  0.58770  Biso   1.000  C
  C12      1.0000 0.24500  0.46490  0.91230  Biso   1.000  C
  H5       1.0000 0.77500  0.04250  0.46070  Biso   1.000  H
  H6       1.0000 0.72500  0.54250  0.03930  Biso   1.000  H
  H7       1.0000 0.22500  0.95750  0.53930  Biso   1.000  H
  H8       1.0000 0.27500  0.45750  0.96070  Biso   1.000  H
  C13      1.0000 0.85230  0.76210  0.37530  Biso   1.000  C
  C14      1.0000 0.64770  0.26210  0.12470  Biso   1.000  C
  C15      1.0000 0.14770  0.23790  0.62470  Biso   1.000  C
  C16      1.0000 0.35230  0.73790  0.87530  Biso   1.000  C
  C17      1.0000 0.59790  0.77520  0.09710  Biso   1.000  C
  C18      1.0000 0.90210  0.27520  0.40290  Biso   1.000  C
  C19      1.0000 0.40210  0.22480  0.90290  Biso   1.000  C
  C20      1.0000 0.09790  0.72480  0.59710  Biso   1.000  C
  C21      1.0000 0.21820  0.80150  0.34220  Biso   1.000  C
  C22      1.0000 0.28180  0.30150  0.15780  Biso   1.000  C
  C23      1.0000 0.78180  0.19850  0.65780  Biso   1.000  C
  C24      1.0000 0.71820  0.69850  0.84220  Biso   1.000  C
  C25      1.0000 0.41000  0.99880  0.41640  Biso   1.000  C
  C26      1.0000 0.09000  0.49880  0.08360  Biso   1.000  C
  C27      1.0000 0.59000  0.00120  0.58360  Biso   1.000  C
  C28      1.0000 0.91000  0.50120  0.91640  Biso   1.000  C
  C29      1.0000 0.47990  0.99460  0.33810  Biso   1.000  C
  C30      1.0000 0.02010  0.49460  0.16190  Biso   1.000  C
  C31      1.0000 0.52010  0.00540  0.66190  Biso   1.000  C
  C32      1.0000 0.97990  0.50540  0.83810  Biso   1.000  C
  H9       1.0000 0.50580  0.96280  0.31610  Biso   1.000  H
  H10      1.0000 0.99420  0.46280  0.18390  Biso   1.000  H
  H11      1.0000 0.49420  0.03720  0.68390  Biso   1.000  H
  H12      1.0000 0.00580  0.53720  0.81610  Biso   1.000  H
  C33      1.0000 0.25130  0.75050  0.07580  Biso   1.000  C
  C34      1.0000 0.24870  0.25050  0.42420  Biso   1.000  C
  C35      1.0000 0.74870  0.24950  0.92420  Biso   1.000  C
  C36      1.0000 0.75130  0.74950  0.57580  Biso   1.000  C
  H13      1.0000 0.22400  0.74320  0.02710  Biso   1.000  H
  H14      1.0000 0.27600  0.24320  0.47290  Biso   1.000  H
  H15      1.0000 0.77600  0.25680  0.97290  Biso   1.000  H
  H16      1.0000 0.72400  0.75680  0.52710  Biso   1.000  H
  C37      1.0000 0.66960  0.06890  0.38000  Biso   1.000  C
  C38      1.0000 0.83040  0.56890  0.12000  Biso   1.000  C
  C39      1.0000 0.33040  0.93110  0.62000  Biso   1.000  C
  C40      1.0000 0.16960  0.43110  0.88000  Biso   1.000  C
  H17      1.0000 0.64810  0.09640  0.40790  Biso   1.000  H
  H18      1.0000 0.85190  0.59640  0.09210  Biso   1.000  H
  H19      1.0000 0.35190  0.90360  0.59210  Biso   1.000  H
  H20      1.0000 0.14810  0.40360  0.90790  Biso   1.000  H
  C41      1.0000 0.19900  0.02950  0.19540  Biso   1.000  C
  C42      1.0000 0.30100  0.52950  0.30460  Biso   1.000  C
  C43      1.0000 0.80100  0.97050  0.80460  Biso   1.000  C
  C44      1.0000 0.69900  0.47050  0.69540  Biso   1.000  C
  H21      1.0000 0.24920  0.00470  0.21850  Biso   1.000  H
  H22      1.0000 0.25080  0.50470  0.28150  Biso   1.000  H
  H23      1.0000 0.75080  0.99530  0.78150  Biso   1.000  H
  H24      1.0000 0.74920  0.49530  0.71850  Biso   1.000  H
  C45      1.0000 0.16300  0.03200  0.12180  Biso   1.000  C
  C46      1.0000 0.33700  0.53200  0.37820  Biso   1.000  C
  C47      1.0000 0.83700  0.96800  0.87820  Biso   1.000  C
  C48      1.0000 0.66300  0.46800  0.62180  Biso   1.000  C
  C49      1.0000 0.81780  0.76230  0.30350  Biso   1.000  C
  C50      1.0000 0.68220  0.26230  0.19650  Biso   1.000  C
  C51      1.0000 0.18220  0.23770  0.69650  Biso   1.000  C
  C52      1.0000 0.31780  0.73770  0.80350  Biso   1.000  C
  H25      1.0000 0.76800  0.78770  0.28010  Biso   1.000  H
  H26      1.0000 0.73200  0.28770  0.21990  Biso   1.000  H
  H27      1.0000 0.23200  0.21230  0.71990  Biso   1.000  H
  H28      1.0000 0.26800  0.71230  0.78010  Biso   1.000  H
  C53      1.0000 0.29370  0.91760  0.42370  Biso   1.000  C
  C54      1.0000 0.20630  0.41760  0.07630  Biso   1.000  C
  C55      1.0000 0.70630  0.08240  0.57630  Biso   1.000  C
  C56      1.0000 0.79370  0.58240  0.92370  Biso   1.000  C
  H29      1.0000 0.27700  0.89270  0.45830  Biso   1.000  H
  H30      1.0000 0.22300  0.39270  0.04170  Biso   1.000  H
  H31      1.0000 0.72300  0.10730  0.54170  Biso   1.000  H
  H32      1.0000 0.77700  0.60730  0.95830  Biso   1.000  H
  H33      1.0000 0.25400  0.95920  0.39810  Biso   1.000  H
  H34      1.0000 0.24600  0.45920  0.10190  Biso   1.000  H
  H35      1.0000 0.74600  0.04080  0.60190  Biso   1.000  H
  H36      1.0000 0.75400  0.54080  0.89810  Biso   1.000  H
  C57      1.0000 0.45070  0.95640  0.38330  Biso   1.000  C
  C58      1.0000 0.04930  0.45640  0.11670  Biso   1.000  C
  C59      1.0000 0.54930  0.04360  0.61670  Biso   1.000  C
  C60      1.0000 0.95070  0.54360  0.88330  Biso   1.000  C
  H37      1.0000 0.45910  0.89990  0.39150  Biso   1.000  H
  H38      1.0000 0.04090  0.39990  0.10850  Biso   1.000  H
  H39      1.0000 0.54090  0.10010  0.60850  Biso   1.000  H
  H40      1.0000 0.95910  0.60010  0.89150  Biso   1.000  H
  C61      1.0000 0.73110  0.98510  0.30170  Biso   1.000  C
  C62      1.0000 0.76890  0.48510  0.19830  Biso   1.000  C
  C63      1.0000 0.26890  0.01490  0.69830  Biso   1.000  C
  C64      1.0000 0.23110  0.51490  0.80170  Biso   1.000  C
  H41      1.0000 0.75060  0.95730  0.27250  Biso   1.000  H
  H42      1.0000 0.74940  0.45730  0.22750  Biso   1.000  H
  H43      1.0000 0.24940  0.04270  0.72750  Biso   1.000  H
  H44      1.0000 0.25060  0.54270  0.77250  Biso   1.000  H
  C65      1.0000 0.81560  0.80340  0.42100  Biso   1.000  C
  C66      1.0000 0.68440  0.30340  0.07900  Biso   1.000  C
  C67      1.0000 0.18440  0.19660  0.57900  Biso   1.000  C
  C68      1.0000 0.31560  0.69660  0.92100  Biso   1.000  C
  H45      1.0000 0.76010  0.81870  0.39190  Biso   1.000  H
  H46      1.0000 0.73990  0.31870  0.10810  Biso   1.000  H
  H47      1.0000 0.23990  0.18130  0.60810  Biso   1.000  H
  H48      1.0000 0.26010  0.68130  0.89190  Biso   1.000  H
  H49      1.0000 0.81540  0.76500  0.45690  Biso   1.000  H
  H50      1.0000 0.68460  0.26500  0.04310  Biso   1.000  H
  H51      1.0000 0.18460  0.23500  0.54310  Biso   1.000  H
  H52      1.0000 0.31540  0.73500  0.95690  Biso   1.000  H
  C69      1.0000 0.56030  0.65530  0.14390  Biso   1.000  C
  C70      1.0000 0.93970  0.15530  0.35610  Biso   1.000  C
  C71      1.0000 0.43970  0.34470  0.85610  Biso   1.000  C
  C72      1.0000 0.06030  0.84470  0.64390  Biso   1.000  C
  H53      1.0000 0.56020  0.59800  0.14760  Biso   1.000  H
  H54      1.0000 0.93980  0.09800  0.35240  Biso   1.000  H
  H55      1.0000 0.43980  0.40200  0.85240  Biso   1.000  H
  H56      1.0000 0.06020  0.90200  0.64760  Biso   1.000  H
  C73      1.0000 0.85460  0.72590  0.26470  Biso   1.000  C
  C74      1.0000 0.64540  0.22590  0.23530  Biso   1.000  C
  C75      1.0000 0.14540  0.27410  0.73530  Biso   1.000  C
  C76      1.0000 0.35460  0.77410  0.76470  Biso   1.000  C
  H57      1.0000 0.82830  0.72710  0.21550  Biso   1.000  H
  H58      1.0000 0.67170  0.22710  0.28450  Biso   1.000  H
  H59      1.0000 0.17170  0.27290  0.78450  Biso   1.000  H
  H60      1.0000 0.32830  0.77290  0.71550  Biso   1.000  H
  C77      1.0000 0.77690  0.98930  0.37210  Biso   1.000  C
  C78      1.0000 0.72310  0.48930  0.12790  Biso   1.000  C
  C79      1.0000 0.22310  0.01070  0.62790  Biso   1.000  C
  C80      1.0000 0.27690  0.51070  0.87210  Biso   1.000  C
  C81      1.0000 0.92560  0.72310  0.40520  Biso   1.000  C
  C82      1.0000 0.57440  0.22310  0.09480  Biso   1.000  C
  C83      1.0000 0.07440  0.27690  0.59480  Biso   1.000  C
  C84      1.0000 0.42560  0.77690  0.90520  Biso   1.000  C
  H61      1.0000 0.95200  0.72040  0.45430  Biso   1.000  H
  H62      1.0000 0.54800  0.22040  0.04570  Biso   1.000  H
  H63      1.0000 0.04800  0.27960  0.54570  Biso   1.000  H
  H64      1.0000 0.45200  0.77960  0.95430  Biso   1.000  H
  C85      1.0000 0.26310  0.81070  0.18120  Biso   1.000  C
  C86      1.0000 0.23690  0.31070  0.31880  Biso   1.000  C
  C87      1.0000 0.73690  0.18930  0.81880  Biso   1.000  C
  C88      1.0000 0.76310  0.68930  0.68120  Biso   1.000  C
  H65      1.0000 0.24370  0.84530  0.20670  Biso   1.000  H
  H66      1.0000 0.25630  0.34530  0.29330  Biso   1.000  H
  H67      1.0000 0.75630  0.15470  0.79330  Biso   1.000  H
  H68      1.0000 0.74370  0.65470  0.70670  Biso   1.000  H
  C89      1.0000 0.15110  0.92230  0.03130  Biso   1.000  C
  C90      1.0000 0.34890  0.42230  0.46870  Biso   1.000  C
  C91      1.0000 0.84890  0.07770  0.96870  Biso   1.000  C
  C92      1.0000 0.65110  0.57770  0.53130  Biso   1.000  C
  H69      1.0000 0.17700  0.90420  0.00090  Biso   1.000  H
  H70      1.0000 0.32300  0.40420  0.49910  Biso   1.000  H
  H71      1.0000 0.82300  0.09580  0.99910  Biso   1.000  H
  H72      1.0000 0.67700  0.59580  0.50090  Biso   1.000  H
  H73      1.0000 0.09780  0.94250  0.00080  Biso   1.000  H
  H74      1.0000 0.40220  0.44250  0.49920  Biso   1.000  H
  H75      1.0000 0.90220  0.05750  0.99920  Biso   1.000  H
  H76      1.0000 0.59780  0.55750  0.50080  Biso   1.000  H
  C93      1.0000 0.29450  0.85290  0.37300  Biso   1.000  C
  C94      1.0000 0.20550  0.35290  0.12700  Biso   1.000  C
  C95      1.0000 0.70550  0.14710  0.62700  Biso   1.000  C
  C96      1.0000 0.79450  0.64710  0.87300  Biso   1.000  C
  H77      1.0000 0.33990  0.81630  0.39700  Biso   1.000  H
  H78      1.0000 0.16010  0.31630  0.10300  Biso   1.000  H
  H79      1.0000 0.66010  0.18370  0.60300  Biso   1.000  H
  H80      1.0000 0.83990  0.68370  0.89700  Biso   1.000  H
  H81      1.0000 0.30300  0.87930  0.33440  Biso   1.000  H
  H82      1.0000 0.19700  0.37930  0.16560  Biso   1.000  H
  H83      1.0000 0.69700  0.12070  0.66560  Biso   1.000  H
  H84      1.0000 0.80300  0.62070  0.83440  Biso   1.000  H
  C97      1.0000 0.59700  0.69040  0.10590  Biso   1.000  C
  C98      1.0000 0.90300  0.19040  0.39410  Biso   1.000  C
  C99      1.0000 0.40300  0.30960  0.89410  Biso   1.000  C
  C100     1.0000 0.09700  0.80960  0.60590  Biso   1.000  C
  H85      1.0000 0.62260  0.65670  0.08480  Biso   1.000  H
  H86      1.0000 0.87740  0.15670  0.41520  Biso   1.000  H
  H87      1.0000 0.37740  0.34330  0.91520  Biso   1.000  H
  H88      1.0000 0.12260  0.84330  0.58480  Biso   1.000  H
  C101     1.0000 0.65630  0.02120  0.27270  Biso   1.000  C
  C102     1.0000 0.84370  0.52120  0.22730  Biso   1.000  C
  C103     1.0000 0.34370  0.97880  0.72730  Biso   1.000  C
  C104     1.0000 0.15630  0.47880  0.77270  Biso   1.000  C
  H89      1.0000 0.62580  0.01520  0.22420  Biso   1.000  H
  H90      1.0000 0.87420  0.51520  0.27580  Biso   1.000  H
  H91      1.0000 0.37420  0.98480  0.77580  Biso   1.000  H
  H92      1.0000 0.12580  0.48480  0.72420  Biso   1.000  H
  C105     1.0000 0.85930  0.95000  0.40830  Biso   1.000  C
  C106     1.0000 0.64070  0.45000  0.09170  Biso   1.000  C
  C107     1.0000 0.14070  0.05000  0.59170  Biso   1.000  C
  C108     1.0000 0.35930  0.55000  0.90830  Biso   1.000  C
  H93      1.0000 0.89750  0.99230  0.43500  Biso   1.000  H
  H94      1.0000 0.60250  0.49230  0.06500  Biso   1.000  H
  H95      1.0000 0.10250  0.00770  0.56500  Biso   1.000  H
  H96      1.0000 0.39750  0.50770  0.93500  Biso   1.000  H
  H97      1.0000 0.87600  0.92970  0.37210  Biso   1.000  H
  H98      1.0000 0.62400  0.42970  0.12790  Biso   1.000  H
  H99      1.0000 0.12400  0.07030  0.62790  Biso   1.000  H
  H100     1.0000 0.37600  0.57030  0.87210  Biso   1.000  H
  C109     1.0000 0.86380  0.88090  0.45670  Biso   1.000  C
  C110     1.0000 0.63620  0.38090  0.04330  Biso   1.000  C
  C111     1.0000 0.13620  0.11910  0.54330  Biso   1.000  C
  C112     1.0000 0.36380  0.61910  0.95670  Biso   1.000  C
  H101     1.0000 0.91990  0.86540  0.48210  Biso   1.000  H
  H102     1.0000 0.58010  0.36540  0.01790  Biso   1.000  H
  H103     1.0000 0.08010  0.13460  0.51790  Biso   1.000  H
  H104     1.0000 0.41990  0.63460  0.98210  Biso   1.000  H
  H105     1.0000 0.84450  0.90050  0.49140  Biso   1.000  H
  H106     1.0000 0.65550  0.40050  0.00860  Biso   1.000  H
  H107     1.0000 0.15550  0.09950  0.50860  Biso   1.000  H
  H108     1.0000 0.34450  0.59950  0.99140  Biso   1.000  H
  C113     1.0000 0.32140  0.71140  0.11150  Biso   1.000  C
  C114     1.0000 0.17860  0.21140  0.38850  Biso   1.000  C
  C115     1.0000 0.67860  0.28860  0.88850  Biso   1.000  C
  C116     1.0000 0.82140  0.78860  0.61150  Biso   1.000  C
  H109     1.0000 0.34090  0.67810  0.08540  Biso   1.000  H
  H110     1.0000 0.15910  0.17810  0.41460  Biso   1.000  H
  H111     1.0000 0.65910  0.32190  0.91460  Biso   1.000  H
  H112     1.0000 0.84090  0.82190  0.58540  Biso   1.000  H
  C117     1.0000 0.40330  0.08380  0.40340  Biso   1.000  C
  C118     1.0000 0.09670  0.58380  0.09660  Biso   1.000  C
  C119     1.0000 0.59670  0.91620  0.59660  Biso   1.000  C
  C120     1.0000 0.90330  0.41620  0.90340  Biso   1.000  C
  H113     1.0000 0.37760  0.11640  0.42500  Biso   1.000  H
  H114     1.0000 0.12240  0.61640  0.07500  Biso   1.000  H
  H115     1.0000 0.62240  0.88360  0.57500  Biso   1.000  H
  H116     1.0000 0.87760  0.38360  0.92500  Biso   1.000  H
  C121     1.0000 0.56120  0.82070  0.13260  Biso   1.000  C
  C122     1.0000 0.93880  0.32070  0.36740  Biso   1.000  C
  C123     1.0000 0.43880  0.17930  0.86740  Biso   1.000  C
  C124     1.0000 0.06120  0.67930  0.63260  Biso   1.000  C
  H117     1.0000 0.56150  0.87810  0.13040  Biso   1.000  H
  H118     1.0000 0.93850  0.37810  0.36960  Biso   1.000  H
  H119     1.0000 0.43850  0.12190  0.86960  Biso   1.000  H
  H120     1.0000 0.06150  0.62190  0.63040  Biso   1.000  H
  C125     1.0000 0.37580  0.95990  0.46290  Biso   1.000  C
  C126     1.0000 0.12420  0.45990  0.03710  Biso   1.000  C
  C127     1.0000 0.62420  0.04010  0.53710  Biso   1.000  C
  C128     1.0000 0.87580  0.54010  0.96290  Biso   1.000  C
  H121     1.0000 0.37000  0.00200  0.49390  Biso   1.000  H
  H122     1.0000 0.13000  0.50200  0.00610  Biso   1.000  H
  H123     1.0000 0.63000  0.99800  0.50610  Biso   1.000  H
  H124     1.0000 0.87000  0.49800  0.99390  Biso   1.000  H
  H125     1.0000 0.41390  0.91920  0.49250  Biso   1.000  H
  H126     1.0000 0.08610  0.41920  0.00750  Biso   1.000  H
  H127     1.0000 0.58610  0.08080  0.50750  Biso   1.000  H
  H128     1.0000 0.91390  0.58080  0.99250  Biso   1.000  H
  C129     1.0000 0.52530  0.78330  0.17020  Biso   1.000  C
  C130     1.0000 0.97470  0.28330  0.32980  Biso   1.000  C
  C131     1.0000 0.47470  0.21670  0.82980  Biso   1.000  C
  C132     1.0000 0.02530  0.71670  0.67020  Biso   1.000  C
  H129     1.0000 0.50050  0.81620  0.19240  Biso   1.000  H
  H130     1.0000 0.99950  0.31620  0.30760  Biso   1.000  H
  H131     1.0000 0.49950  0.18380  0.80760  Biso   1.000  H
  H132     1.0000 0.00050  0.68380  0.69240  Biso   1.000  H
  C133     1.0000 0.16050  0.06370  0.23400  Biso   1.000  C
  C134     1.0000 0.33950  0.56370  0.26600  Biso   1.000  C
  C135     1.0000 0.83950  0.93630  0.76600  Biso   1.000  C
  C136     1.0000 0.66050  0.43630  0.73400  Biso   1.000  C
  H133     1.0000 0.18570  0.05940  0.28310  Biso   1.000  H
  H134     1.0000 0.31430  0.55940  0.21690  Biso   1.000  H
  H135     1.0000 0.81430  0.94060  0.71690  Biso   1.000  H
  H136     1.0000 0.68570  0.44060  0.78310  Biso   1.000  H
  C137     1.0000 0.33590  0.77020  0.21640  Biso   1.000  C
  C138     1.0000 0.16410  0.27020  0.28360  Biso   1.000  C
  C139     1.0000 0.66410  0.22980  0.78360  Biso   1.000  C
  C140     1.0000 0.83590  0.72980  0.71640  Biso   1.000  C
  H137     1.0000 0.36530  0.77950  0.26450  Biso   1.000  H
  H138     1.0000 0.13470  0.27950  0.23550  Biso   1.000  H
  H139     1.0000 0.63470  0.22050  0.73550  Biso   1.000  H
  H140     1.0000 0.86530  0.72050  0.76450  Biso   1.000  H
  C141     1.0000 0.96100  0.68780  0.36450  Biso   1.000  C
  C142     1.0000 0.53900  0.18780  0.13550  Biso   1.000  C
  C143     1.0000 0.03900  0.31220  0.63550  Biso   1.000  C
  C144     1.0000 0.46100  0.81220  0.86450  Biso   1.000  C
  H141     1.0000 0.01100  0.66220  0.38730  Biso   1.000  H
  H142     1.0000 0.48900  0.16220  0.11270  Biso   1.000  H
  H143     1.0000 0.98900  0.33780  0.61270  Biso   1.000  H
  H144     1.0000 0.51100  0.83780  0.88730  Biso   1.000  H
  C145     1.0000 0.85970  0.11260  0.17750  Biso   1.000  C
  C146     1.0000 0.64030  0.61260  0.32250  Biso   1.000  C
  C147     1.0000 0.14030  0.88740  0.82250  Biso   1.000  C
  C148     1.0000 0.35970  0.38740  0.67750  Biso   1.000  C
  H145     1.0000 0.85290  0.16870  0.18320  Biso   1.000  H
  H146     1.0000 0.64710  0.66870  0.31680  Biso   1.000  H
  H147     1.0000 0.14710  0.83130  0.81680  Biso   1.000  H
  H148     1.0000 0.35290  0.33130  0.68320  Biso   1.000  H
  C149     1.0000 0.14120  0.84700  0.07240  Biso   1.000  C
  C150     1.0000 0.35880  0.34700  0.42760  Biso   1.000  C
  C151     1.0000 0.85880  0.15300  0.92760  Biso   1.000  C
  C152     1.0000 0.64120  0.65300  0.57240  Biso   1.000  C
  H149     1.0000 0.12010  0.86530  0.10620  Biso   1.000  H
  H150     1.0000 0.37990  0.36530  0.39380  Biso   1.000  H
  H151     1.0000 0.87990  0.13470  0.89380  Biso   1.000  H
  H152     1.0000 0.62010  0.63470  0.60620  Biso   1.000  H
  H153     1.0000 0.10220  0.80940  0.03950  Biso   1.000  H
  H154     1.0000 0.39780  0.30940  0.46050  Biso   1.000  H
  H155     1.0000 0.89780  0.19060  0.96050  Biso   1.000  H
  H156     1.0000 0.60220  0.69060  0.53950  Biso   1.000  H
  C153     1.0000 0.05600  0.10710  0.13420  Biso   1.000  C
  C154     1.0000 0.44400  0.60710  0.36580  Biso   1.000  C
  C155     1.0000 0.94400  0.89290  0.86580  Biso   1.000  C
  C156     1.0000 0.55600  0.39290  0.63420  Biso   1.000  C
  H157     1.0000 0.00700  0.13470  0.11250  Biso   1.000  H
  H158     1.0000 0.49300  0.63470  0.38750  Biso   1.000  H
  H159     1.0000 0.99300  0.86530  0.88750  Biso   1.000  H
  H160     1.0000 0.50700  0.36530  0.61250  Biso   1.000  H
  C157     1.0000 0.63500  0.81550  0.04980  Biso   1.000  C
  C158     1.0000 0.86500  0.31550  0.45020  Biso   1.000  C
  C159     1.0000 0.36500  0.18450  0.95020  Biso   1.000  C
  C160     1.0000 0.13500  0.68450  0.54980  Biso   1.000  C
  H161     1.0000 0.59470  0.84840  0.01310  Biso   1.000  H
  H162     1.0000 0.90530  0.34840  0.48690  Biso   1.000  H
  H163     1.0000 0.40530  0.15160  0.98690  Biso   1.000  H
  H164     1.0000 0.09470  0.65160  0.51310  Biso   1.000  H
  H165     1.0000 0.65450  0.77330  0.02740  Biso   1.000  H
  H166     1.0000 0.84550  0.27330  0.47260  Biso   1.000  H
  H167     1.0000 0.34550  0.22670  0.97260  Biso   1.000  H
  H168     1.0000 0.15450  0.72670  0.52740  Biso   1.000  H
  C161     1.0000 0.21760  0.71960  0.35940  Biso   1.000  C
  C162     1.0000 0.28240  0.21960  0.14060  Biso   1.000  C
  C163     1.0000 0.78240  0.28040  0.64060  Biso   1.000  C
  C164     1.0000 0.71760  0.78040  0.85940  Biso   1.000  C
  H169     1.0000 0.26420  0.69590  0.39290  Biso   1.000  H
  H170     1.0000 0.23580  0.19590  0.10710  Biso   1.000  H
  H171     1.0000 0.73580  0.30410  0.60710  Biso   1.000  H
  H172     1.0000 0.76420  0.80410  0.89290  Biso   1.000  H
  C165     1.0000 0.19960  0.99410  0.07640  Biso   1.000  C
  C166     1.0000 0.30040  0.49410  0.42360  Biso   1.000  C
  C167     1.0000 0.80040  0.00590  0.92360  Biso   1.000  C
  C168     1.0000 0.69960  0.50590  0.57640  Biso   1.000  C
  H173     1.0000 0.25320  0.97450  0.10650  Biso   1.000  H
  H174     1.0000 0.24680  0.47450  0.39350  Biso   1.000  H
  H175     1.0000 0.74680  0.02550  0.89350  Biso   1.000  H
  H176     1.0000 0.75320  0.52550  0.60650  Biso   1.000  H
  H177     1.0000 0.20530  0.03630  0.04540  Biso   1.000  H
  H178     1.0000 0.29470  0.53630  0.45460  Biso   1.000  H
  H179     1.0000 0.79470  0.96370  0.95460  Biso   1.000  H
  H180     1.0000 0.70530  0.46370  0.54540  Biso   1.000  H
  C169     1.0000 0.80140  0.98380  0.12960  Biso   1.000  C
  C170     1.0000 0.69860  0.48380  0.37040  Biso   1.000  C
  C171     1.0000 0.19860  0.01620  0.87040  Biso   1.000  C
  C172     1.0000 0.30140  0.51620  0.62960  Biso   1.000  C
  C173     1.0000 0.79380  0.06690  0.13610  Biso   1.000  C
  C174     1.0000 0.70620  0.56690  0.36390  Biso   1.000  C
  C175     1.0000 0.20620  0.93310  0.86390  Biso   1.000  C
  C176     1.0000 0.29380  0.43310  0.63610  Biso   1.000  C
  H181     1.0000 0.74410  0.09250  0.11240  Biso   1.000  H
  H182     1.0000 0.75590  0.59250  0.38760  Biso   1.000  H
  H183     1.0000 0.25590  0.90750  0.88760  Biso   1.000  H
  H184     1.0000 0.24410  0.40750  0.61240  Biso   1.000  H
  C177     1.0000 0.09010  0.07320  0.09220  Biso   1.000  C
  C178     1.0000 0.40990  0.57320  0.40780  Biso   1.000  C
  C179     1.0000 0.90990  0.92680  0.90780  Biso   1.000  C
  C180     1.0000 0.59010  0.42680  0.59220  Biso   1.000  C
  H185     1.0000 0.06390  0.07810  0.04320  Biso   1.000  H
  H186     1.0000 0.43610  0.57810  0.45680  Biso   1.000  H
  H187     1.0000 0.93610  0.92190  0.95680  Biso   1.000  H
  H188     1.0000 0.56390  0.42190  0.54320  Biso   1.000  H
  C181     1.0000 0.14550  0.83310  0.29640  Biso   1.000  C
  C182     1.0000 0.35450  0.33310  0.20360  Biso   1.000  C
  C183     1.0000 0.85450  0.16690  0.70360  Biso   1.000  C
  C184     1.0000 0.64550  0.66690  0.79640  Biso   1.000  C
  H189     1.0000 0.14150  0.88880  0.28450  Biso   1.000  H
  H190     1.0000 0.35850  0.38880  0.21550  Biso   1.000  H
  H191     1.0000 0.85850  0.11120  0.71550  Biso   1.000  H
  H192     1.0000 0.64150  0.61120  0.78450  Biso   1.000  H
  C185     1.0000 0.93930  0.99880  0.20220  Biso   1.000  C
  C186     1.0000 0.56070  0.49880  0.29780  Biso   1.000  C
  C187     1.0000 0.06070  0.00120  0.79780  Biso   1.000  C
  C188     1.0000 0.43930  0.50120  0.70220  Biso   1.000  C
  H193     1.0000 0.99010  0.97450  0.22270  Biso   1.000  H
  H194     1.0000 0.50990  0.47450  0.27730  Biso   1.000  H
  H195     1.0000 0.00990  0.02550  0.77730  Biso   1.000  H
  H196     1.0000 0.49010  0.52550  0.72270  Biso   1.000  H
  C189     1.0000 0.87550  0.95020  0.16590  Biso   1.000  C
  C190     1.0000 0.62450  0.45020  0.33410  Biso   1.000  C
  C191     1.0000 0.12450  0.04980  0.83410  Biso   1.000  C
  C192     1.0000 0.37550  0.54980  0.66590  Biso   1.000  C
  H197     1.0000 0.88220  0.89320  0.16560  Biso   1.000  H
  H198     1.0000 0.61780  0.39320  0.33440  Biso   1.000  H
  H199     1.0000 0.11780  0.10680  0.83440  Biso   1.000  H
  H200     1.0000 0.38220  0.60680  0.66560  Biso   1.000  H
  C193     1.0000 0.07820  0.78300  0.26780  Biso   1.000  C
  C194     1.0000 0.42180  0.28300  0.23220  Biso   1.000  C
  C195     1.0000 0.92180  0.21700  0.73220  Biso   1.000  C
  C196     1.0000 0.57820  0.71700  0.76780  Biso   1.000  C
  H201     1.0000 0.03010  0.80630  0.23620  Biso   1.000  H
  H202     1.0000 0.46990  0.30630  0.26380  Biso   1.000  H
  H203     1.0000 0.96990  0.19370  0.76380  Biso   1.000  H
  H204     1.0000 0.53010  0.69370  0.73620  Biso   1.000  H
  C197     1.0000 0.14880  0.67170  0.32800  Biso   1.000  C
  C198     1.0000 0.35120  0.17170  0.17200  Biso   1.000  C
  C199     1.0000 0.85120  0.32830  0.67200  Biso   1.000  C
  C200     1.0000 0.64880  0.82830  0.82800  Biso   1.000  C
  H205     1.0000 0.15220  0.61560  0.33870  Biso   1.000  H
  H206     1.0000 0.34780  0.11560  0.16130  Biso   1.000  H
  H207     1.0000 0.84780  0.38440  0.66130  Biso   1.000  H
  H208     1.0000 0.65220  0.88440  0.83870  Biso   1.000  H
  C201     1.0000 0.70860  0.87340  0.09940  Biso   1.000  C
  C202     1.0000 0.79140  0.37340  0.40060  Biso   1.000  C
  C203     1.0000 0.29140  0.12660  0.90060  Biso   1.000  C
  C204     1.0000 0.20860  0.62660  0.59940  Biso   1.000  C
  H209     1.0000 0.73700  0.85540  0.14570  Biso   1.000  H
  H210     1.0000 0.76300  0.35540  0.35430  Biso   1.000  H
  H211     1.0000 0.26300  0.14460  0.85430  Biso   1.000  H
  H212     1.0000 0.23700  0.64460  0.64570  Biso   1.000  H
  C205     1.0000 0.43370  0.98530  0.12570  Biso   1.000  C
  C206     1.0000 0.06630  0.48530  0.37430  Biso   1.000  C
  C207     1.0000 0.56630  0.01470  0.87430  Biso   1.000  C
  C208     1.0000 0.93370  0.51470  0.62570  Biso   1.000  C
  C209     1.0000 0.07700  0.98130  0.38210  Biso   1.000  C
  C210     1.0000 0.42300  0.48130  0.11790  Biso   1.000  C
  C211     1.0000 0.92300  0.01870  0.61790  Biso   1.000  C
  C212     1.0000 0.57700  0.51870  0.88210  Biso   1.000  C
  C213     1.0000 0.73020  0.93460  0.08430  Biso   1.000  C
  C214     1.0000 0.76980  0.43460  0.41570  Biso   1.000  C
  C215     1.0000 0.26980  0.06540  0.91570  Biso   1.000  C
  C216     1.0000 0.23020  0.56540  0.58430  Biso   1.000  C
  H213     1.0000 0.70000  0.95510  0.03910  Biso   1.000  H
  H214     1.0000 0.80000  0.45510  0.46090  Biso   1.000  H
  H215     1.0000 0.30000  0.04490  0.96090  Biso   1.000  H
  H216     1.0000 0.20000  0.54490  0.53910  Biso   1.000  H
  Cu1      1.0000 0.52038  0.12987  0.26325  Biso   1.000  Cu
  Cu2      1.0000 0.97962  0.62987  0.23675  Biso   1.000  Cu
  Cu3      1.0000 0.47962  0.87013  0.73675  Biso   1.000  Cu
  Cu4      1.0000 0.02038  0.37013  0.76325  Biso   1.000  Cu
  Cu5      1.0000 0.03430  0.14677  0.26752  Biso   1.000  Cu
  Cu6      1.0000 0.46570  0.64677  0.23248  Biso   1.000  Cu
  Cu7      1.0000 0.96570  0.85323  0.73248  Biso   1.000  Cu
  Cu8      1.0000 0.53430  0.35323  0.76752  Biso   1.000  Cu
  N1       1.0000 0.47130  0.07750  0.32530  Biso   1.000  N
  N2       1.0000 0.02870  0.57750  0.17470  Biso   1.000  N
  N3       1.0000 0.52870  0.92250  0.67470  Biso   1.000  N
  N4       1.0000 0.97130  0.42250  0.82530  Biso   1.000  N
  N5       1.0000 0.62520  0.06400  0.30980  Biso   1.000  N
  N6       1.0000 0.87480  0.56400  0.19020  Biso   1.000  N
  N7       1.0000 0.37480  0.93600  0.69020  Biso   1.000  N
  N8       1.0000 0.12520  0.43600  0.80980  Biso   1.000  N
  N9       1.0000 0.92720  0.68850  0.29430  Biso   1.000  N
  N10      1.0000 0.57280  0.18850  0.20570  Biso   1.000  N
  N11      1.0000 0.07280  0.31150  0.70570  Biso   1.000  N
  N12      1.0000 0.42720  0.81150  0.79430  Biso   1.000  N
  N13      1.0000 0.07890  0.70160  0.28350  Biso   1.000  N
  N14      1.0000 0.42110  0.20160  0.21650  Biso   1.000  N
  N15      1.0000 0.92110  0.29840  0.71650  Biso   1.000  N
  N16      1.0000 0.57890  0.79840  0.78350  Biso   1.000  N
  N17      1.0000 0.09040  0.10220  0.20630  Biso   1.000  N
  N18      1.0000 0.40960  0.60220  0.29370  Biso   1.000  N
  N19      1.0000 0.90960  0.89780  0.79370  Biso   1.000  N
  N20      1.0000 0.59040  0.39780  0.70630  Biso   1.000  N
  N21      1.0000 0.93340  0.07990  0.21020  Biso   1.000  N
  N22      1.0000 0.56660  0.57990  0.28980  Biso   1.000  N
  N23      1.0000 0.06660  0.92010  0.78980  Biso   1.000  N
  N24      1.0000 0.43340  0.42010  0.71020  Biso   1.000  N
  N25      1.0000 0.52340  0.70130  0.17710  Biso   1.000  N
  N26      1.0000 0.97660  0.20130  0.32290  Biso   1.000  N
  N27      1.0000 0.47660  0.29870  0.82290  Biso   1.000  N
  N28      1.0000 0.02340  0.79870  0.67710  Biso   1.000  N
  N29      1.0000 0.36540  0.71600  0.18070  Biso   1.000  N
  N30      1.0000 0.13460  0.21600  0.31930  Biso   1.000  N
  N31      1.0000 0.63460  0.28400  0.81930  Biso   1.000  N
  N32      1.0000 0.86540  0.78400  0.68070  Biso   1.000  N
  N33      1.0000 0.46760  0.02000  0.17710  Biso   1.000  N
  N34      1.0000 0.03240  0.52000  0.32290  Biso   1.000  N
  N35      1.0000 0.53240  0.98000  0.82290  Biso   1.000  N
  N36      1.0000 0.96760  0.48000  0.67710  Biso   1.000  N
  N37      1.0000 0.08640  0.03790  0.35000  Biso   1.000  N
  N38      1.0000 0.41360  0.53790  0.15000  Biso   1.000  N
  N39      1.0000 0.91360  0.96210  0.65000  Biso   1.000  N
  N40      1.0000 0.58640  0.46210  0.85000  Biso   1.000  N
  N41      1.0000 0.58490  0.26850  0.41590  Biso   1.000  N
  N42      1.0000 0.91510  0.76850  0.08410  Biso   1.000  N
  N43      1.0000 0.41510  0.73150  0.58410  Biso   1.000  N
  N44      1.0000 0.08490  0.23150  0.91590  Biso   1.000  N
  N45      1.0000 0.92520  0.29520  0.13180  Biso   1.000  N
  N46      1.0000 0.57480  0.79520  0.36820  Biso   1.000  N
  N47      1.0000 0.07480  0.70480  0.86820  Biso   1.000  N
  N48      1.0000 0.42520  0.20480  0.63180  Biso   1.000  N
  O1       1.0000 0.58510  0.24310  0.36210  Biso   1.000  O
  O2       1.0000 0.91490  0.74310  0.13790  Biso   1.000  O
  O3       1.0000 0.41490  0.75690  0.63790  Biso   1.000  O
  O4       1.0000 0.08510  0.25690  0.86210  Biso   1.000  O
  O5       1.0000 0.65210  0.24620  0.47070  Biso   1.000  O
  O6       1.0000 0.84790  0.74620  0.02930  Biso   1.000  O
  O7       1.0000 0.34790  0.75380  0.52930  Biso   1.000  O
  O8       1.0000 0.15210  0.25380  0.97070  Biso   1.000  O
  O9       1.0000 0.54360  0.32460  0.43030  Biso   1.000  O
  O10      1.0000 0.95640  0.82460  0.06970  Biso   1.000  O
  O11      1.0000 0.45640  0.67540  0.56970  Biso   1.000  O
  O12      1.0000 0.04360  0.17540  0.93030  Biso   1.000  O
  O13      1.0000 0.98750  0.27140  0.17680  Biso   1.000  O
  O14      1.0000 0.51250  0.77140  0.32320  Biso   1.000  O
  O15      1.0000 0.01250  0.72860  0.82320  Biso   1.000  O
  O16      1.0000 0.48750  0.22860  0.67680  Biso   1.000  O
  O17      1.0000 0.88110  0.34180  0.14330  Biso   1.000  O
  O18      1.0000 0.61890  0.84180  0.35670  Biso   1.000  O
  O19      1.0000 0.11890  0.65820  0.85670  Biso   1.000  O
  O20      1.0000 0.38110  0.15820  0.64330  Biso   1.000  O
  O21      1.0000 0.90980  0.26420  0.06930  Biso   1.000  O
  O22      1.0000 0.59020  0.76420  0.43070  Biso   1.000  O
  O23      1.0000 0.09020  0.73580  0.93070  Biso   1.000  O
  O24      1.0000 0.40980  0.23580  0.56930  Biso   1.000  O
  S1       1.0000 0.38470  0.93080  0.05660  Biso   1.000  S
  S2       1.0000 0.11530  0.43080  0.44340  Biso   1.000  S
  S3       1.0000 0.61530  0.06920  0.94340  Biso   1.000  S
  S4       1.0000 0.88470  0.56920  0.55660  Biso   1.000  S
  S5       1.0000 0.06557  0.90343  0.42231  Biso   1.000  S
  S6       1.0000 0.43443  0.40343  0.07769  Biso   1.000  S
  S7       1.0000 0.93443  0.09657  0.57769  Biso   1.000  S
  S8       1.0000 0.56557  0.59657  0.92231  Biso   1.000  S
