data_image0
_cell_length_a       6.697
_cell_length_b       8.639
_cell_length_c       11.398
_cell_angle_alpha    90
_cell_angle_beta     90.93
_cell_angle_gamma    90

_symmetry_space_group_name_H-M    "P 1"
_symmetry_int_tables_number       1

loop_
  _symmetry_equiv_pos_as_xyz
  'x, y, z'

loop_
  _atom_site_label
  _atom_site_occupancy
  _atom_site_fract_x
  _atom_site_fract_y
  _atom_site_fract_z
  _atom_site_thermal_displace_type
  _atom_site_B_iso_or_equiv
  _atom_site_type_symbol
  Cu1      1.0000 0.04706  0.93685  0.94665  Biso   1.000  Cu
  Cu2      1.0000 0.04706  0.06315  0.44665  Biso   1.000  Cu
  O1       1.0000 0.21900  0.93100  0.08010  Biso   1.000  O
  O2       1.0000 0.21900  0.06900  0.58010  Biso   1.000  O
  O3       1.0000 0.01740  0.73890  0.12420  Biso   1.000  O
  O4       1.0000 0.01740  0.26110  0.62420  Biso   1.000  O
  O5       1.0000 0.82700  0.01530  0.33450  Biso   1.000  O
  O6       1.0000 0.82700  0.98470  0.83450  Biso   1.000  O
  O7       1.0000 0.83890  0.91780  0.50890  Biso   1.000  O
  O8       1.0000 0.83890  0.08220  0.00890  Biso   1.000  O
  N1       1.0000 0.21740  0.66780  0.67450  Biso   1.000  N
  N2       1.0000 0.21740  0.33220  0.17450  Biso   1.000  N
  N3       1.0000 0.18430  0.80220  0.83910  Biso   1.000  N
  N4       1.0000 0.18430  0.19780  0.33910  Biso   1.000  N
  C1       1.0000 0.27500  0.70520  0.46200  Biso   1.000  C
  C2       1.0000 0.27500  0.29480  0.96200  Biso   1.000  C
  C3       1.0000 0.18550  0.72140  0.35280  Biso   1.000  C
  C4       1.0000 0.18550  0.27860  0.85280  Biso   1.000  C
  H1       1.0000 0.06090  0.67190  0.33810  Biso   1.000  H
  H2       1.0000 0.06090  0.32810  0.83810  Biso   1.000  H
  C5       1.0000 0.27010  0.80690  0.26370  Biso   1.000  C
  C6       1.0000 0.27010  0.19310  0.76370  Biso   1.000  C
  C7       1.0000 0.45550  0.87490  0.28180  Biso   1.000  C
  C8       1.0000 0.45550  0.12510  0.78180  Biso   1.000  C
  H3       1.0000 0.51660  0.93170  0.22060  Biso   1.000  H
  H4       1.0000 0.51660  0.06830  0.72060  Biso   1.000  H
  C9       1.0000 0.55150  0.85910  0.39050  Biso   1.000  C
  C10      1.0000 0.55150  0.14090  0.89050  Biso   1.000  C
  C11      1.0000 0.46300  0.77730  0.47880  Biso   1.000  C
  C12      1.0000 0.46300  0.22270  0.97880  Biso   1.000  C
  H5       1.0000 0.52940  0.76890  0.55290  Biso   1.000  H
  H6       1.0000 0.52940  0.23110  0.05290  Biso   1.000  H
  C13      1.0000 0.17370  0.61730  0.55510  Biso   1.000  C
  C14      1.0000 0.17370  0.38270  0.05510  Biso   1.000  C
  H7       1.0000 0.02770  0.62440  0.54110  Biso   1.000  H
  H8       1.0000 0.02770  0.37560  0.04110  Biso   1.000  H
  H9       1.0000 0.21160  0.50700  0.54820  Biso   1.000  H
  H10      1.0000 0.21160  0.49300  0.04820  Biso   1.000  H
  C15      1.0000 0.10950  0.76750  0.73770  Biso   1.000  C
  C16      1.0000 0.10950  0.23250  0.23770  Biso   1.000  C
  H11      1.0000 0.98670  0.80950  0.70960  Biso   1.000  H
  H12      1.0000 0.98670  0.19050  0.20960  Biso   1.000  H
  C17      1.0000 0.36450  0.71760  0.84490  Biso   1.000  C
  C18      1.0000 0.36450  0.28240  0.34490  Biso   1.000  C
  C19      1.0000 0.38540  0.63290  0.74370  Biso   1.000  C
  C20      1.0000 0.38540  0.36710  0.24370  Biso   1.000  C
  C21      1.0000 0.55050  0.53900  0.72230  Biso   1.000  C
  C22      1.0000 0.55050  0.46100  0.22230  Biso   1.000  C
  H13      1.0000 0.56210  0.48060  0.65210  Biso   1.000  H
  H14      1.0000 0.56210  0.51940  0.15210  Biso   1.000  H
  C23      1.0000 0.69470  0.53620  0.80890  Biso   1.000  C
  C24      1.0000 0.69470  0.46380  0.30890  Biso   1.000  C
  H15      1.0000 0.80920  0.47310  0.79850  Biso   1.000  H
  H16      1.0000 0.80920  0.52690  0.29850  Biso   1.000  H
  C25      1.0000 0.67970  0.62260  0.91190  Biso   1.000  C
  C26      1.0000 0.67970  0.37740  0.41190  Biso   1.000  C
  H17      1.0000 0.78530  0.61890  0.96850  Biso   1.000  H
  H18      1.0000 0.78530  0.38110  0.46850  Biso   1.000  H
  C27      1.0000 0.51560  0.71270  0.93300  Biso   1.000  C
  C28      1.0000 0.51560  0.28730  0.43300  Biso   1.000  C
  H19      1.0000 0.50390  0.76960  0.00380  Biso   1.000  H
  H20      1.0000 0.50390  0.23040  0.50380  Biso   1.000  H
  C29      1.0000 0.15860  0.82240  0.14780  Biso   1.000  C
  C30      1.0000 0.15860  0.17760  0.64780  Biso   1.000  C
  C31      1.0000 0.74910  0.93420  0.41230  Biso   1.000  C
  C32      1.0000 0.74910  0.06580  0.91230  Biso   1.000  C
