data_image0
_cell_length_a       7.078
_cell_length_b       27.526
_cell_length_c       11.604
_cell_angle_alpha    90
_cell_angle_beta     102.393
_cell_angle_gamma    90

_symmetry_space_group_name_H-M    "P 1"
_symmetry_int_tables_number       1

loop_
  _symmetry_equiv_pos_as_xyz
  'x, y, z'

loop_
  _atom_site_label
  _atom_site_occupancy
  _atom_site_fract_x
  _atom_site_fract_y
  _atom_site_fract_z
  _atom_site_thermal_displace_type
  _atom_site_B_iso_or_equiv
  _atom_site_type_symbol
  Cu1      1.0000 0.85751  0.09584  0.69352  Biso   1.000  Cu
  Cu2      1.0000 0.14249  0.59584  0.80648  Biso   1.000  Cu
  Cu3      1.0000 0.14249  0.90416  0.30648  Biso   1.000  Cu
  Cu4      1.0000 0.85751  0.40416  0.19352  Biso   1.000  Cu
  Cu5      1.0000 0.13055  0.17061  0.16981  Biso   1.000  Cu
  Cu6      1.0000 0.86945  0.67061  0.33019  Biso   1.000  Cu
  Cu7      1.0000 0.86945  0.82939  0.83019  Biso   1.000  Cu
  Cu8      1.0000 0.13055  0.32939  0.66981  Biso   1.000  Cu
  N1       1.0000 0.61760  0.06510  0.64720  Biso   1.000  N
  N2       1.0000 0.38240  0.56510  0.85280  Biso   1.000  N
  N3       1.0000 0.38240  0.93490  0.35280  Biso   1.000  N
  N4       1.0000 0.61760  0.43490  0.14720  Biso   1.000  N
  N5       1.0000 0.33560  0.18491  0.29510  Biso   1.000  N
  N6       1.0000 0.66440  0.68491  0.20490  Biso   1.000  N
  N7       1.0000 0.66440  0.81509  0.70490  Biso   1.000  N
  N8       1.0000 0.33560  0.31509  0.79510  Biso   1.000  N
  N9       1.0000 0.49390  0.21861  0.46180  Biso   1.000  N
  N10      1.0000 0.50610  0.71861  0.03820  Biso   1.000  N
  N11      1.0000 0.50610  0.78139  0.53820  Biso   1.000  N
  N12      1.0000 0.49390  0.28139  0.96180  Biso   1.000  N
  O1       1.0000 0.08400  0.13028  0.71840  Biso   1.000  O
  O2       1.0000 0.91600  0.63028  0.78160  Biso   1.000  O
  O3       1.0000 0.91600  0.86972  0.28160  Biso   1.000  O
  O4       1.0000 0.08400  0.36972  0.21840  Biso   1.000  O
  O5       1.0000 0.24030  0.10001  0.88950  Biso   1.000  O
  O6       1.0000 0.75970  0.60001  0.61050  Biso   1.000  O
  O7       1.0000 0.75970  0.89999  0.11050  Biso   1.000  O
  O8       1.0000 0.24030  0.39999  0.38950  Biso   1.000  O
  O9       1.0000 0.91340  0.16033  0.04900  Biso   1.000  O
  O10      1.0000 0.08660  0.66033  0.45100  Biso   1.000  O
  O11      1.0000 0.08660  0.83967  0.95100  Biso   1.000  O
  O12      1.0000 0.91340  0.33967  0.54900  Biso   1.000  O
  O13      1.0000 0.03840  0.21556  0.95020  Biso   1.000  O
  O14      1.0000 0.96160  0.71556  0.54980  Biso   1.000  O
  O15      1.0000 0.96160  0.78444  0.04980  Biso   1.000  O
  O16      1.0000 0.03840  0.28444  0.45020  Biso   1.000  O
  O17      1.0000 0.49970  0.04610  0.04640  Biso   1.000  O
  O18      1.0000 0.50030  0.54610  0.45360  Biso   1.000  O
  O19      1.0000 0.50030  0.95390  0.95360  Biso   1.000  O
  O20      1.0000 0.49970  0.45390  0.54640  Biso   1.000  O
  H1       1.0000 0.42490  0.05250  0.96420  Biso   1.000  H
  H2       1.0000 0.57510  0.55250  0.53580  Biso   1.000  H
  H3       1.0000 0.57510  0.94750  0.03580  Biso   1.000  H
  H4       1.0000 0.42490  0.44750  0.46420  Biso   1.000  H
  H5       1.0000 0.63960  0.04650  0.05860  Biso   1.000  H
  H6       1.0000 0.36040  0.54650  0.44140  Biso   1.000  H
  H7       1.0000 0.36040  0.95350  0.94140  Biso   1.000  H
  H8       1.0000 0.63960  0.45350  0.55860  Biso   1.000  H
  O21      1.0000 0.92140  0.05530  0.96270  Biso   1.000  O
  O22      1.0000 0.07860  0.55530  0.53730  Biso   1.000  O
  O23      1.0000 0.07860  0.94470  0.03730  Biso   1.000  O
  O24      1.0000 0.92140  0.44470  0.46270  Biso   1.000  O
  O25      1.0000 0.16600  0.05750  0.20020  Biso   1.000  O
  O26      1.0000 0.83400  0.55750  0.29980  Biso   1.000  O
  O27      1.0000 0.83400  0.94250  0.79980  Biso   1.000  O
  O28      1.0000 0.16600  0.44250  0.70020  Biso   1.000  O
  C1       1.0000 0.54340  0.21556  0.67830  Biso   1.000  C
  C2       1.0000 0.45660  0.71556  0.82170  Biso   1.000  C
  C3       1.0000 0.45660  0.78444  0.32170  Biso   1.000  C
  C4       1.0000 0.54340  0.28444  0.17830  Biso   1.000  C
  C5       1.0000 0.38760  0.18692  0.69200  Biso   1.000  C
  C6       1.0000 0.61240  0.68692  0.80800  Biso   1.000  C
  C7       1.0000 0.61240  0.81308  0.30800  Biso   1.000  C
  C8       1.0000 0.38760  0.31308  0.19200  Biso   1.000  C
  H9       1.0000 0.27410  0.18720  0.63410  Biso   1.000  H
  H10      1.0000 0.72590  0.68720  0.86590  Biso   1.000  H
  H11      1.0000 0.72590  0.81280  0.36590  Biso   1.000  H
  H12      1.0000 0.27410  0.31280  0.13410  Biso   1.000  H
  C9       1.0000 0.40020  0.15792  0.79140  Biso   1.000  C
  C10      1.0000 0.59980  0.65792  0.70860  Biso   1.000  C
  C11      1.0000 0.59980  0.84208  0.20860  Biso   1.000  C
  C12      1.0000 0.40020  0.34208  0.29140  Biso   1.000  C
  C13      1.0000 0.56970  0.15773  0.87730  Biso   1.000  C
  C14      1.0000 0.43030  0.65773  0.62270  Biso   1.000  C
  C15      1.0000 0.43030  0.84227  0.12270  Biso   1.000  C
  C16      1.0000 0.56970  0.34227  0.37730  Biso   1.000  C
  H13      1.0000 0.57810  0.13840  0.94390  Biso   1.000  H
  H14      1.0000 0.42190  0.63840  0.55610  Biso   1.000  H
  H15      1.0000 0.42190  0.86160  0.05610  Biso   1.000  H
  H16      1.0000 0.57810  0.36160  0.44390  Biso   1.000  H
  C17      1.0000 0.72640  0.18580  0.86550  Biso   1.000  C
  C18      1.0000 0.27360  0.68580  0.63450  Biso   1.000  C
  C19      1.0000 0.27360  0.81420  0.13450  Biso   1.000  C
  C20      1.0000 0.72640  0.31420  0.36550  Biso   1.000  C
  C21      1.0000 0.71370  0.21450  0.76470  Biso   1.000  C
  C22      1.0000 0.28630  0.71450  0.73530  Biso   1.000  C
  C23      1.0000 0.28630  0.78550  0.23530  Biso   1.000  C
  C24      1.0000 0.71370  0.28550  0.26470  Biso   1.000  C
  H17      1.0000 0.81950  0.23300  0.75530  Biso   1.000  H
  H18      1.0000 0.18050  0.73300  0.74470  Biso   1.000  H
  H19      1.0000 0.18050  0.76700  0.24470  Biso   1.000  H
  H20      1.0000 0.81950  0.26700  0.25530  Biso   1.000  H
  C25      1.0000 0.52600  0.24754  0.57070  Biso   1.000  C
  C26      1.0000 0.47400  0.74754  0.92930  Biso   1.000  C
  C27      1.0000 0.47400  0.75246  0.42930  Biso   1.000  C
  C28      1.0000 0.52600  0.25246  0.07070  Biso   1.000  C
  H21      1.0000 0.41900  0.26990  0.56710  Biso   1.000  H
  H22      1.0000 0.58100  0.76990  0.93290  Biso   1.000  H
  H23      1.0000 0.58100  0.73010  0.43290  Biso   1.000  H
  H24      1.0000 0.41900  0.23010  0.06710  Biso   1.000  H
  H25      1.0000 0.64330  0.26650  0.57740  Biso   1.000  H
  H26      1.0000 0.35670  0.76650  0.92260  Biso   1.000  H
  H27      1.0000 0.35670  0.73350  0.42260  Biso   1.000  H
  H28      1.0000 0.64330  0.23350  0.07740  Biso   1.000  H
  C29      1.0000 0.32700  0.21524  0.38080  Biso   1.000  C
  C30      1.0000 0.67300  0.71524  0.11920  Biso   1.000  C
  C31      1.0000 0.67300  0.78476  0.61920  Biso   1.000  C
  C32      1.0000 0.32700  0.28476  0.88080  Biso   1.000  C
  H29      1.0000 0.21630  0.23270  0.38530  Biso   1.000  H
  H30      1.0000 0.78370  0.73270  0.11470  Biso   1.000  H
  H31      1.0000 0.78370  0.76730  0.61470  Biso   1.000  H
  H32      1.0000 0.21630  0.26730  0.88530  Biso   1.000  H
  C33      1.0000 0.52480  0.16636  0.32090  Biso   1.000  C
  C34      1.0000 0.47520  0.66636  0.17910  Biso   1.000  C
  C35      1.0000 0.47520  0.83364  0.67910  Biso   1.000  C
  C36      1.0000 0.52480  0.33364  0.82090  Biso   1.000  C
  C37      1.0000 0.62410  0.18709  0.42590  Biso   1.000  C
  C38      1.0000 0.37590  0.68709  0.07410  Biso   1.000  C
  C39      1.0000 0.37590  0.81291  0.57410  Biso   1.000  C
  C40      1.0000 0.62410  0.31291  0.92590  Biso   1.000  C
  C41      1.0000 0.81390  0.17578  0.47630  Biso   1.000  C
  C42      1.0000 0.18610  0.67578  0.02370  Biso   1.000  C
  C43      1.0000 0.18610  0.82422  0.52370  Biso   1.000  C
  C44      1.0000 0.81390  0.32422  0.97630  Biso   1.000  C
  H33      1.0000 0.87890  0.19000  0.54630  Biso   1.000  H
  H34      1.0000 0.12110  0.69000  0.95370  Biso   1.000  H
  H35      1.0000 0.12110  0.81000  0.45370  Biso   1.000  H
  H36      1.0000 0.87890  0.31000  0.04630  Biso   1.000  H
  C45      1.0000 0.90160  0.14220  0.41660  Biso   1.000  C
  C46      1.0000 0.09840  0.64220  0.08340  Biso   1.000  C
  C47      1.0000 0.09840  0.85780  0.58340  Biso   1.000  C
  C48      1.0000 0.90160  0.35780  0.91660  Biso   1.000  C
  H37      1.0000 0.02790  0.13270  0.44880  Biso   1.000  H
  H38      1.0000 0.97210  0.63270  0.05120  Biso   1.000  H
  H39      1.0000 0.97210  0.86730  0.55120  Biso   1.000  H
  H40      1.0000 0.02790  0.36730  0.94880  Biso   1.000  H
  C49      1.0000 0.80670  0.12230  0.30980  Biso   1.000  C
  C50      1.0000 0.19330  0.62230  0.19020  Biso   1.000  C
  C51      1.0000 0.19330  0.87770  0.69020  Biso   1.000  C
  C52      1.0000 0.80670  0.37770  0.80980  Biso   1.000  C
  H41      1.0000 0.87290  0.10090  0.27070  Biso   1.000  H
  H42      1.0000 0.12710  0.60090  0.22930  Biso   1.000  H
  H43      1.0000 0.12710  0.89910  0.72930  Biso   1.000  H
  H44      1.0000 0.87290  0.39910  0.77070  Biso   1.000  H
  C53      1.0000 0.61480  0.13370  0.26000  Biso   1.000  C
  C54      1.0000 0.38520  0.63370  0.24000  Biso   1.000  C
  C55      1.0000 0.38520  0.86630  0.74000  Biso   1.000  C
  C56      1.0000 0.61480  0.36630  0.76000  Biso   1.000  C
  H45      1.0000 0.55030  0.11990  0.18930  Biso   1.000  H
  H46      1.0000 0.44970  0.61990  0.31070  Biso   1.000  H
  H47      1.0000 0.44970  0.88010  0.81070  Biso   1.000  H
  H48      1.0000 0.55030  0.38010  0.68930  Biso   1.000  H
  C57      1.0000 0.23150  0.12643  0.80280  Biso   1.000  C
  C58      1.0000 0.76850  0.62643  0.69720  Biso   1.000  C
  C59      1.0000 0.76850  0.87357  0.19720  Biso   1.000  C
  C60      1.0000 0.23150  0.37357  0.30280  Biso   1.000  C
  C61      1.0000 0.90770  0.18794  0.96060  Biso   1.000  C
  C62      1.0000 0.09230  0.68794  0.53940  Biso   1.000  C
  C63      1.0000 0.09230  0.81206  0.03940  Biso   1.000  C
  C64      1.0000 0.90770  0.31206  0.46060  Biso   1.000  C
  C65      1.0000 0.51460  0.06965  0.53660  Biso   1.000  C
  C66      1.0000 0.48540  0.56965  0.96340  Biso   1.000  C
  C67      1.0000 0.48540  0.93035  0.46340  Biso   1.000  C
  C68      1.0000 0.51460  0.43035  0.03660  Biso   1.000  C
  H49      1.0000 0.56740  0.08640  0.48150  Biso   1.000  H
  H50      1.0000 0.43260  0.58640  0.01850  Biso   1.000  H
  H51      1.0000 0.43260  0.91360  0.51850  Biso   1.000  H
  H52      1.0000 0.56740  0.41360  0.98150  Biso   1.000  H
  C69      1.0000 0.33010  0.04990  0.50240  Biso   1.000  C
  C70      1.0000 0.66990  0.54990  0.99760  Biso   1.000  C
  C71      1.0000 0.66990  0.95010  0.49760  Biso   1.000  C
  C72      1.0000 0.33010  0.45010  0.00240  Biso   1.000  C
  H53      1.0000 0.26000  0.05430  0.42560  Biso   1.000  H
  H54      1.0000 0.74000  0.55430  0.07440  Biso   1.000  H
  H55      1.0000 0.74000  0.94570  0.57440  Biso   1.000  H
  H56      1.0000 0.26000  0.44570  0.92560  Biso   1.000  H
  C73      1.0000 0.25060  0.02369  0.58120  Biso   1.000  C
  C74      1.0000 0.74940  0.52369  0.91880  Biso   1.000  C
  C75      1.0000 0.74940  0.97631  0.41880  Biso   1.000  C
  C76      1.0000 0.25060  0.47631  0.08120  Biso   1.000  C
  C77      1.0000 0.35960  0.01870  0.69360  Biso   1.000  C
  C78      1.0000 0.64040  0.51870  0.80640  Biso   1.000  C
  C79      1.0000 0.64040  0.98130  0.30640  Biso   1.000  C
  C80      1.0000 0.35960  0.48130  0.19360  Biso   1.000  C
  H57      1.0000 0.31190  0.00160  0.75030  Biso   1.000  H
  H58      1.0000 0.68810  0.50160  0.74970  Biso   1.000  H
  H59      1.0000 0.68810  0.99840  0.24970  Biso   1.000  H
  H60      1.0000 0.31190  0.49840  0.25030  Biso   1.000  H
  C81      1.0000 0.53820  0.03920  0.72060  Biso   1.000  C
  C82      1.0000 0.46180  0.53920  0.77940  Biso   1.000  C
  C83      1.0000 0.46180  0.96080  0.27940  Biso   1.000  C
  C84      1.0000 0.53820  0.46080  0.22060  Biso   1.000  C
  H61      1.0000 0.61060  0.03470  0.79680  Biso   1.000  H
  H62      1.0000 0.38940  0.53470  0.70320  Biso   1.000  H
  H63      1.0000 0.38940  0.96530  0.20320  Biso   1.000  H
  H64      1.0000 0.61060  0.46530  0.29680  Biso   1.000  H
  C85      1.0000 0.05380  0.00140  0.55350  Biso   1.000  C
  C86      1.0000 0.94620  0.50140  0.94650  Biso   1.000  C
  C87      1.0000 0.94620  0.99860  0.44650  Biso   1.000  C
  C88      1.0000 0.05380  0.49860  0.05350  Biso   1.000  C
  H65      1.0000 0.00470  0.98890  0.61550  Biso   1.000  H
  H66      1.0000 0.99530  0.48890  0.88450  Biso   1.000  H
  H67      1.0000 0.99530  0.01110  0.38450  Biso   1.000  H
  H68      1.0000 0.00470  0.51110  0.11550  Biso   1.000  H
