data_image0
_cell_length_a       10.64
_cell_length_b       16.041
_cell_length_c       16.498
_cell_angle_alpha    90
_cell_angle_beta     104.648
_cell_angle_gamma    90

_symmetry_space_group_name_H-M    "P 1"
_symmetry_int_tables_number       1

loop_
  _symmetry_equiv_pos_as_xyz
  'x, y, z'

loop_
  _atom_site_label
  _atom_site_occupancy
  _atom_site_fract_x
  _atom_site_fract_y
  _atom_site_fract_z
  _atom_site_thermal_displace_type
  _atom_site_B_iso_or_equiv
  _atom_site_type_symbol
  Cu1      1.0000 0.50000  0.21658  0.25000  Biso   1.000  Cu
  Cu2      1.0000 0.00000  0.71658  0.25000  Biso   1.000  Cu
  Cu3      1.0000 0.50000  0.78342  0.75000  Biso   1.000  Cu
  Cu4      1.0000 0.00000  0.28342  0.75000  Biso   1.000  Cu
  O1       1.0000 0.41120  0.29950  0.30090  Biso   1.000  O
  O2       1.0000 0.58880  0.29950  0.19910  Biso   1.000  O
  O3       1.0000 0.91120  0.79950  0.30090  Biso   1.000  O
  O4       1.0000 0.08880  0.79950  0.19910  Biso   1.000  O
  O5       1.0000 0.58880  0.70050  0.69910  Biso   1.000  O
  O6       1.0000 0.41120  0.70050  0.80090  Biso   1.000  O
  O7       1.0000 0.08880  0.20050  0.69910  Biso   1.000  O
  O8       1.0000 0.91120  0.20050  0.80090  Biso   1.000  O
  O9       1.0000 0.59110  0.33560  0.39760  Biso   1.000  O
  O10      1.0000 0.40890  0.33560  0.10240  Biso   1.000  O
  O11      1.0000 0.09110  0.83560  0.39760  Biso   1.000  O
  O12      1.0000 0.90890  0.83560  0.10240  Biso   1.000  O
  O13      1.0000 0.40890  0.66440  0.60240  Biso   1.000  O
  O14      1.0000 0.59110  0.66440  0.89760  Biso   1.000  O
  O15      1.0000 0.90890  0.16440  0.60240  Biso   1.000  O
  O16      1.0000 0.09110  0.16440  0.89760  Biso   1.000  O
  O17      1.0000 0.11800  0.62930  0.47540  Biso   1.000  O
  O18      1.0000 0.88200  0.62930  0.02460  Biso   1.000  O
  O19      1.0000 0.61800  0.12930  0.47540  Biso   1.000  O
  O20      1.0000 0.38200  0.12930  0.02460  Biso   1.000  O
  O21      1.0000 0.88200  0.37070  0.52460  Biso   1.000  O
  O22      1.0000 0.11800  0.37070  0.97540  Biso   1.000  O
  O23      1.0000 0.38200  0.87070  0.52460  Biso   1.000  O
  O24      1.0000 0.61800  0.87070  0.97540  Biso   1.000  O
  O25      1.0000 0.22400  0.69940  0.39860  Biso   1.000  O
  O26      1.0000 0.77600  0.69940  0.10140  Biso   1.000  O
  O27      1.0000 0.72400  0.19940  0.39860  Biso   1.000  O
  O28      1.0000 0.27600  0.19940  0.10140  Biso   1.000  O
  O29      1.0000 0.77600  0.30060  0.60140  Biso   1.000  O
  O30      1.0000 0.22400  0.30060  0.89860  Biso   1.000  O
  O31      1.0000 0.27600  0.80060  0.60140  Biso   1.000  O
  O32      1.0000 0.72400  0.80060  0.89860  Biso   1.000  O
  H1       1.0000 0.16890  0.73520  0.39820  Biso   1.000  H
  H2       1.0000 0.83110  0.73520  0.10180  Biso   1.000  H
  H3       1.0000 0.66890  0.23520  0.39820  Biso   1.000  H
  H4       1.0000 0.33110  0.23520  0.10180  Biso   1.000  H
  H5       1.0000 0.83110  0.26480  0.60180  Biso   1.000  H
  H6       1.0000 0.16890  0.26480  0.89820  Biso   1.000  H
  H7       1.0000 0.33110  0.76480  0.60180  Biso   1.000  H
  H8       1.0000 0.66890  0.76480  0.89820  Biso   1.000  H
  N1       1.0000 0.41030  0.12290  0.28930  Biso   1.000  N
  N2       1.0000 0.58970  0.12290  0.21070  Biso   1.000  N
  N3       1.0000 0.91030  0.62290  0.28930  Biso   1.000  N
  N4       1.0000 0.08970  0.62290  0.21070  Biso   1.000  N
  N5       1.0000 0.58970  0.87710  0.71070  Biso   1.000  N
  N6       1.0000 0.41030  0.87710  0.78930  Biso   1.000  N
  N7       1.0000 0.08970  0.37710  0.71070  Biso   1.000  N
  N8       1.0000 0.91030  0.37710  0.78930  Biso   1.000  N
  C1       1.0000 0.31830  0.12870  0.33000  Biso   1.000  C
  C2       1.0000 0.68170  0.12870  0.17000  Biso   1.000  C
  C3       1.0000 0.81830  0.62870  0.33000  Biso   1.000  C
  C4       1.0000 0.18170  0.62870  0.17000  Biso   1.000  C
  C5       1.0000 0.68170  0.87130  0.67000  Biso   1.000  C
  C6       1.0000 0.31830  0.87130  0.83000  Biso   1.000  C
  C7       1.0000 0.18170  0.37130  0.67000  Biso   1.000  C
  C8       1.0000 0.81830  0.37130  0.83000  Biso   1.000  C
  H9       1.0000 0.29310  0.18180  0.34230  Biso   1.000  H
  H10      1.0000 0.70690  0.18180  0.15770  Biso   1.000  H
  H11      1.0000 0.79310  0.68180  0.34230  Biso   1.000  H
  H12      1.0000 0.20690  0.68180  0.15770  Biso   1.000  H
  H13      1.0000 0.70690  0.81820  0.65770  Biso   1.000  H
  H14      1.0000 0.29310  0.81820  0.84230  Biso   1.000  H
  H15      1.0000 0.20690  0.31820  0.65770  Biso   1.000  H
  H16      1.0000 0.79310  0.31820  0.84230  Biso   1.000  H
  C9       1.0000 0.25790  0.06250  0.35510  Biso   1.000  C
  C10      1.0000 0.74210  0.06250  0.14490  Biso   1.000  C
  C11      1.0000 0.75790  0.56250  0.35510  Biso   1.000  C
  C12      1.0000 0.24210  0.56250  0.14490  Biso   1.000  C
  C13      1.0000 0.74210  0.93750  0.64490  Biso   1.000  C
  C14      1.0000 0.25790  0.93750  0.85510  Biso   1.000  C
  C15      1.0000 0.24210  0.43750  0.64490  Biso   1.000  C
  C16      1.0000 0.75790  0.43750  0.85510  Biso   1.000  C
  H17      1.0000 0.19290  0.06990  0.38300  Biso   1.000  H
  H18      1.0000 0.80710  0.06990  0.11700  Biso   1.000  H
  H19      1.0000 0.69290  0.56990  0.38300  Biso   1.000  H
  H20      1.0000 0.30710  0.56990  0.11700  Biso   1.000  H
  H21      1.0000 0.80710  0.93010  0.61700  Biso   1.000  H
  H22      1.0000 0.19290  0.93010  0.88300  Biso   1.000  H
  H23      1.0000 0.30710  0.43010  0.61700  Biso   1.000  H
  H24      1.0000 0.69290  0.43010  0.88300  Biso   1.000  H
  C17      1.0000 0.29690  0.98330  0.33750  Biso   1.000  C
  C18      1.0000 0.70310  0.98330  0.16250  Biso   1.000  C
  C19      1.0000 0.79690  0.48330  0.33750  Biso   1.000  C
  C20      1.0000 0.20310  0.48330  0.16250  Biso   1.000  C
  C21      1.0000 0.70310  0.01670  0.66250  Biso   1.000  C
  C22      1.0000 0.29690  0.01670  0.83750  Biso   1.000  C
  C23      1.0000 0.20310  0.51670  0.66250  Biso   1.000  C
  C24      1.0000 0.79690  0.51670  0.83750  Biso   1.000  C
  H25      1.0000 0.25810  0.93640  0.35380  Biso   1.000  H
  H26      1.0000 0.74190  0.93640  0.14620  Biso   1.000  H
  H27      1.0000 0.75810  0.43640  0.35380  Biso   1.000  H
  H28      1.0000 0.24190  0.43640  0.14620  Biso   1.000  H
  H29      1.0000 0.74190  0.06360  0.64620  Biso   1.000  H
  H30      1.0000 0.25810  0.06360  0.85380  Biso   1.000  H
  H31      1.0000 0.24190  0.56360  0.64620  Biso   1.000  H
  H32      1.0000 0.75810  0.56360  0.85380  Biso   1.000  H
  C25      1.0000 0.39360  0.97450  0.29570  Biso   1.000  C
  C26      1.0000 0.60640  0.97450  0.20430  Biso   1.000  C
  C27      1.0000 0.89360  0.47450  0.29570  Biso   1.000  C
  C28      1.0000 0.10640  0.47450  0.20430  Biso   1.000  C
  C29      1.0000 0.60640  0.02550  0.70430  Biso   1.000  C
  C30      1.0000 0.39360  0.02550  0.79570  Biso   1.000  C
  C31      1.0000 0.10640  0.52550  0.70430  Biso   1.000  C
  C32      1.0000 0.89360  0.52550  0.79570  Biso   1.000  C
  H33      1.0000 0.42070  0.92200  0.28320  Biso   1.000  H
  H34      1.0000 0.57930  0.92200  0.21680  Biso   1.000  H
  H35      1.0000 0.92070  0.42200  0.28320  Biso   1.000  H
  H36      1.0000 0.07930  0.42200  0.21680  Biso   1.000  H
  H37      1.0000 0.57930  0.07800  0.71680  Biso   1.000  H
  H38      1.0000 0.42070  0.07800  0.78320  Biso   1.000  H
  H39      1.0000 0.07930  0.57800  0.71680  Biso   1.000  H
  H40      1.0000 0.92070  0.57800  0.78320  Biso   1.000  H
  C33      1.0000 0.44940  0.04670  0.27290  Biso   1.000  C
  C34      1.0000 0.55060  0.04670  0.22710  Biso   1.000  C
  C35      1.0000 0.94940  0.54670  0.27290  Biso   1.000  C
  C36      1.0000 0.05060  0.54670  0.22710  Biso   1.000  C
  C37      1.0000 0.55060  0.95330  0.72710  Biso   1.000  C
  C38      1.0000 0.44940  0.95330  0.77290  Biso   1.000  C
  C39      1.0000 0.05060  0.45330  0.72710  Biso   1.000  C
  C40      1.0000 0.94940  0.45330  0.77290  Biso   1.000  C
  C41      1.0000 0.47680  0.34520  0.36140  Biso   1.000  C
  C42      1.0000 0.52320  0.34520  0.13860  Biso   1.000  C
  C43      1.0000 0.97680  0.84520  0.36140  Biso   1.000  C
  C44      1.0000 0.02320  0.84520  0.13860  Biso   1.000  C
  C45      1.0000 0.52320  0.65480  0.63860  Biso   1.000  C
  C46      1.0000 0.47680  0.65480  0.86140  Biso   1.000  C
  C47      1.0000 0.02320  0.15480  0.63860  Biso   1.000  C
  C48      1.0000 0.97680  0.15480  0.86140  Biso   1.000  C
  C49      1.0000 0.40250  0.41610  0.38600  Biso   1.000  C
  C50      1.0000 0.59750  0.41610  0.11400  Biso   1.000  C
  C51      1.0000 0.90250  0.91610  0.38600  Biso   1.000  C
  C52      1.0000 0.09750  0.91610  0.11400  Biso   1.000  C
  C53      1.0000 0.59750  0.58390  0.61400  Biso   1.000  C
  C54      1.0000 0.40250  0.58390  0.88600  Biso   1.000  C
  C55      1.0000 0.09750  0.08390  0.61400  Biso   1.000  C
  C56      1.0000 0.90250  0.08390  0.88600  Biso   1.000  C
  C57      1.0000 0.30540  0.40780  0.42960  Biso   1.000  C
  C58      1.0000 0.69460  0.40780  0.07040  Biso   1.000  C
  C59      1.0000 0.80540  0.90780  0.42960  Biso   1.000  C
  C60      1.0000 0.19460  0.90780  0.07040  Biso   1.000  C
  C61      1.0000 0.69460  0.59220  0.57040  Biso   1.000  C
  C62      1.0000 0.30540  0.59220  0.92960  Biso   1.000  C
  C63      1.0000 0.19460  0.09220  0.57040  Biso   1.000  C
  C64      1.0000 0.80540  0.09220  0.92960  Biso   1.000  C
  C65      1.0000 0.27630  0.32600  0.46450  Biso   1.000  C
  C66      1.0000 0.72370  0.32600  0.03550  Biso   1.000  C
  C67      1.0000 0.77630  0.82600  0.46450  Biso   1.000  C
  C68      1.0000 0.22370  0.82600  0.03550  Biso   1.000  C
  C69      1.0000 0.72370  0.67400  0.53550  Biso   1.000  C
  C70      1.0000 0.27630  0.67400  0.96450  Biso   1.000  C
  C71      1.0000 0.22370  0.17400  0.53550  Biso   1.000  C
  C72      1.0000 0.77630  0.17400  0.96450  Biso   1.000  C
  C73      1.0000 0.37520  0.27360  0.50570  Biso   1.000  C
  C74      1.0000 0.62480  0.27360  0.99430  Biso   1.000  C
  C75      1.0000 0.87520  0.77360  0.50570  Biso   1.000  C
  C76      1.0000 0.12480  0.77360  0.99430  Biso   1.000  C
  C77      1.0000 0.62480  0.72640  0.49430  Biso   1.000  C
  C78      1.0000 0.37520  0.72640  0.00570  Biso   1.000  C
  C79      1.0000 0.12480  0.22640  0.49430  Biso   1.000  C
  C80      1.0000 0.87520  0.22640  0.00570  Biso   1.000  C
  H41      1.0000 0.46090  0.28860  0.50950  Biso   1.000  H
  H42      1.0000 0.53910  0.28860  0.99050  Biso   1.000  H
  H43      1.0000 0.96090  0.78860  0.50950  Biso   1.000  H
  H44      1.0000 0.03910  0.78860  0.99050  Biso   1.000  H
  H45      1.0000 0.53910  0.71140  0.49050  Biso   1.000  H
  H46      1.0000 0.46090  0.71140  0.00950  Biso   1.000  H
  H47      1.0000 0.03910  0.21140  0.49050  Biso   1.000  H
  H48      1.0000 0.96090  0.21140  0.00950  Biso   1.000  H
  C81      1.0000 0.14990  0.30060  0.45870  Biso   1.000  C
  C82      1.0000 0.85010  0.30060  0.04130  Biso   1.000  C
  C83      1.0000 0.64990  0.80060  0.45870  Biso   1.000  C
  C84      1.0000 0.35010  0.80060  0.04130  Biso   1.000  C
  C85      1.0000 0.85010  0.69940  0.54130  Biso   1.000  C
  C86      1.0000 0.14990  0.69940  0.95870  Biso   1.000  C
  C87      1.0000 0.35010  0.19940  0.54130  Biso   1.000  C
  C88      1.0000 0.64990  0.19940  0.95870  Biso   1.000  C
  H49      1.0000 0.08110  0.33390  0.43050  Biso   1.000  H
  H50      1.0000 0.91890  0.33390  0.06950  Biso   1.000  H
  H51      1.0000 0.58110  0.83390  0.43050  Biso   1.000  H
  H52      1.0000 0.41890  0.83390  0.06950  Biso   1.000  H
  H53      1.0000 0.91890  0.66610  0.56950  Biso   1.000  H
  H54      1.0000 0.08110  0.66610  0.93050  Biso   1.000  H
  H55      1.0000 0.41890  0.16610  0.56950  Biso   1.000  H
  H56      1.0000 0.58110  0.16610  0.93050  Biso   1.000  H
  C89      1.0000 0.23910  0.47840  0.44290  Biso   1.000  C
  C90      1.0000 0.76090  0.47840  0.05710  Biso   1.000  C
  C91      1.0000 0.73910  0.97840  0.44290  Biso   1.000  C
  C92      1.0000 0.26090  0.97840  0.05710  Biso   1.000  C
  C93      1.0000 0.76090  0.52160  0.55710  Biso   1.000  C
  C94      1.0000 0.23910  0.52160  0.94290  Biso   1.000  C
  C95      1.0000 0.26090  0.02160  0.55710  Biso   1.000  C
  C96      1.0000 0.73910  0.02160  0.94290  Biso   1.000  C
  H57      1.0000 0.17290  0.47320  0.47010  Biso   1.000  H
  H58      1.0000 0.82710  0.47320  0.02990  Biso   1.000  H
  H59      1.0000 0.67290  0.97320  0.47010  Biso   1.000  H
  H60      1.0000 0.32710  0.97320  0.02990  Biso   1.000  H
  H61      1.0000 0.82710  0.52680  0.52990  Biso   1.000  H
  H62      1.0000 0.17290  0.52680  0.97010  Biso   1.000  H
  H63      1.0000 0.32710  0.02680  0.52990  Biso   1.000  H
  H64      1.0000 0.67290  0.02680  0.97010  Biso   1.000  H
  C97      1.0000 0.26760  0.55640  0.41720  Biso   1.000  C
  C98      1.0000 0.73240  0.55640  0.08280  Biso   1.000  C
  C99      1.0000 0.76760  0.05640  0.41720  Biso   1.000  C
  C100     1.0000 0.23240  0.05640  0.08280  Biso   1.000  C
  C101     1.0000 0.73240  0.44360  0.58280  Biso   1.000  C
  C102     1.0000 0.26760  0.44360  0.91720  Biso   1.000  C
  C103     1.0000 0.23240  0.94360  0.58280  Biso   1.000  C
  C104     1.0000 0.76760  0.94360  0.91720  Biso   1.000  C
  C105     1.0000 0.19420  0.63090  0.43480  Biso   1.000  C
  C106     1.0000 0.80580  0.63090  0.06520  Biso   1.000  C
  C107     1.0000 0.69420  0.13090  0.43480  Biso   1.000  C
  C108     1.0000 0.30580  0.13090  0.06520  Biso   1.000  C
  C109     1.0000 0.80580  0.36910  0.56520  Biso   1.000  C
  C110     1.0000 0.19420  0.36910  0.93480  Biso   1.000  C
  C111     1.0000 0.30580  0.86910  0.56520  Biso   1.000  C
  C112     1.0000 0.69420  0.86910  0.93480  Biso   1.000  C
  C113     1.0000 0.36470  0.56430  0.37540  Biso   1.000  C
  C114     1.0000 0.63530  0.56430  0.12460  Biso   1.000  C
  C115     1.0000 0.86470  0.06430  0.37540  Biso   1.000  C
  C116     1.0000 0.13530  0.06430  0.12460  Biso   1.000  C
  C117     1.0000 0.63530  0.43570  0.62460  Biso   1.000  C
  C118     1.0000 0.36470  0.43570  0.87540  Biso   1.000  C
  C119     1.0000 0.13530  0.93570  0.62460  Biso   1.000  C
  C120     1.0000 0.86470  0.93570  0.87540  Biso   1.000  C
  H65      1.0000 0.38610  0.61660  0.35840  Biso   1.000  H
  H66      1.0000 0.61390  0.61660  0.14160  Biso   1.000  H
  H67      1.0000 0.88610  0.11660  0.35840  Biso   1.000  H
  H68      1.0000 0.11390  0.11660  0.14160  Biso   1.000  H
  H69      1.0000 0.61390  0.38340  0.64160  Biso   1.000  H
  H70      1.0000 0.38610  0.38340  0.85840  Biso   1.000  H
  H71      1.0000 0.11390  0.88340  0.64160  Biso   1.000  H
  H72      1.0000 0.88610  0.88340  0.85840  Biso   1.000  H
  C121     1.0000 0.42920  0.49460  0.35930  Biso   1.000  C
  C122     1.0000 0.57080  0.49460  0.14070  Biso   1.000  C
  C123     1.0000 0.92920  0.99460  0.35930  Biso   1.000  C
  C124     1.0000 0.07080  0.99460  0.14070  Biso   1.000  C
  C125     1.0000 0.57080  0.50540  0.64070  Biso   1.000  C
  C126     1.0000 0.42920  0.50540  0.85930  Biso   1.000  C
  C127     1.0000 0.07080  0.00540  0.64070  Biso   1.000  C
  C128     1.0000 0.92920  0.00540  0.85930  Biso   1.000  C
  H73      1.0000 0.49240  0.50010  0.32980  Biso   1.000  H
  H74      1.0000 0.50760  0.50010  0.17020  Biso   1.000  H
  H75      1.0000 0.99240  0.00010  0.32980  Biso   1.000  H
  H76      1.0000 0.00760  0.00010  0.17020  Biso   1.000  H
  H77      1.0000 0.50760  0.49990  0.67020  Biso   1.000  H
  H78      1.0000 0.49240  0.49990  0.82980  Biso   1.000  H
  H79      1.0000 0.00760  0.99990  0.67020  Biso   1.000  H
  H80      1.0000 0.99240  0.99990  0.82980  Biso   1.000  H
