data_image0
_cell_length_a       18.9739
_cell_length_b       5.68801
_cell_length_c       7.59694
_cell_angle_alpha    90
_cell_angle_beta     98.7652
_cell_angle_gamma    90

_symmetry_space_group_name_H-M    "P 1"
_symmetry_int_tables_number       1

loop_
  _symmetry_equiv_pos_as_xyz
  'x, y, z'

loop_
  _atom_site_label
  _atom_site_occupancy
  _atom_site_fract_x
  _atom_site_fract_y
  _atom_site_fract_z
  _atom_site_thermal_displace_type
  _atom_site_B_iso_or_equiv
  _atom_site_type_symbol
  P1       1.0000 0.90750  0.41840  0.99020  Biso   1.000  P
  P2       1.0000 0.09250  0.91840  0.50980  Biso   1.000  P
  P3       1.0000 0.09250  0.58160  0.00980  Biso   1.000  P
  P4       1.0000 0.90750  0.08160  0.49020  Biso   1.000  P
  O1       1.0000 0.90840  0.53750  0.81460  Biso   1.000  O
  O2       1.0000 0.09160  0.03750  0.68540  Biso   1.000  O
  O3       1.0000 0.09160  0.46250  0.18540  Biso   1.000  O
  O4       1.0000 0.90840  0.96250  0.31460  Biso   1.000  O
  O5       1.0000 0.95050  0.18810  0.99250  Biso   1.000  O
  O6       1.0000 0.04950  0.68810  0.50750  Biso   1.000  O
  O7       1.0000 0.04950  0.81190  0.00750  Biso   1.000  O
  O8       1.0000 0.95050  0.31190  0.49250  Biso   1.000  O
  O9       1.0000 0.94630  0.55670  0.14450  Biso   1.000  O
  O10      1.0000 0.05370  0.05670  0.35550  Biso   1.000  O
  O11      1.0000 0.05370  0.44330  0.85550  Biso   1.000  O
  O12      1.0000 0.94630  0.94330  0.64450  Biso   1.000  O
  C1       1.0000 0.81590  0.36900  0.01630  Biso   1.000  C
  C2       1.0000 0.18410  0.86900  0.48370  Biso   1.000  C
  C3       1.0000 0.18410  0.63100  0.98370  Biso   1.000  C
  C4       1.0000 0.81590  0.13100  0.51630  Biso   1.000  C
  C5       1.0000 0.79490  0.49680  0.14200  Biso   1.000  C
  C6       1.0000 0.20510  0.99680  0.35800  Biso   1.000  C
  C7       1.0000 0.20510  0.50320  0.85800  Biso   1.000  C
  C8       1.0000 0.79490  0.00320  0.64200  Biso   1.000  C
  C9       1.0000 0.71630  0.49000  0.15190  Biso   1.000  C
  C10      1.0000 0.28370  0.99000  0.34810  Biso   1.000  C
  C11      1.0000 0.28370  0.51000  0.84810  Biso   1.000  C
  C12      1.0000 0.71630  0.01000  0.65190  Biso   1.000  C
  C13      1.0000 0.69000  0.68360  0.23600  Biso   1.000  C
  C14      1.0000 0.31000  0.18360  0.26400  Biso   1.000  C
  C15      1.0000 0.31000  0.31640  0.76400  Biso   1.000  C
  C16      1.0000 0.69000  0.81640  0.73600  Biso   1.000  C
  C17      1.0000 0.61770  0.68870  0.25860  Biso   1.000  C
  C18      1.0000 0.38230  0.18870  0.24140  Biso   1.000  C
  C19      1.0000 0.38230  0.31130  0.74140  Biso   1.000  C
  C20      1.0000 0.61770  0.81130  0.75860  Biso   1.000  C
  C21      1.0000 0.57130  0.51400  0.18150  Biso   1.000  C
  C22      1.0000 0.42870  0.01400  0.31850  Biso   1.000  C
  C23      1.0000 0.42870  0.48600  0.81850  Biso   1.000  C
  C24      1.0000 0.57130  0.98600  0.68150  Biso   1.000  C
  C25      1.0000 0.59930  0.31790  0.10910  Biso   1.000  C
  C26      1.0000 0.40070  0.81790  0.39090  Biso   1.000  C
  C27      1.0000 0.40070  0.68210  0.89090  Biso   1.000  C
  C28      1.0000 0.59930  0.18210  0.60910  Biso   1.000  C
  C29      1.0000 0.66920  0.32230  0.07260  Biso   1.000  C
  C30      1.0000 0.33080  0.82230  0.42740  Biso   1.000  C
  C31      1.0000 0.33080  0.67770  0.92740  Biso   1.000  C
  C32      1.0000 0.66920  0.17770  0.57260  Biso   1.000  C
  Cu1      1.0000 0.97783  0.61090  0.66580  Biso   1.000  Cu
  Cu2      1.0000 0.02217  0.11090  0.83420  Biso   1.000  Cu
  Cu3      1.0000 0.02217  0.38910  0.33420  Biso   1.000  Cu
  Cu4      1.0000 0.97783  0.88910  0.16580  Biso   1.000  Cu
