data_image0
_cell_length_a       21.4151
_cell_length_b       25.177
_cell_length_c       11.1233
_cell_angle_alpha    90
_cell_angle_beta     90
_cell_angle_gamma    90

_symmetry_space_group_name_H-M    "P 1"
_symmetry_int_tables_number       1

loop_
  _symmetry_equiv_pos_as_xyz
  'x, y, z'

loop_
  _atom_site_label
  _atom_site_occupancy
  _atom_site_fract_x
  _atom_site_fract_y
  _atom_site_fract_z
  _atom_site_thermal_displace_type
  _atom_site_B_iso_or_equiv
  _atom_site_type_symbol
  Cu1      1.0000 0.00000  0.00000  0.00114  Biso   1.000  Cu
  Cu2      1.0000 0.25000  0.25000  0.25114  Biso   1.000  Cu
  Cu3      1.0000 0.00000  0.50000  0.50114  Biso   1.000  Cu
  Cu4      1.0000 0.25000  0.75000  0.75114  Biso   1.000  Cu
  Cu5      1.0000 0.50000  0.00000  0.50114  Biso   1.000  Cu
  Cu6      1.0000 0.75000  0.25000  0.75114  Biso   1.000  Cu
  Cu7      1.0000 0.50000  0.50000  0.00114  Biso   1.000  Cu
  Cu8      1.0000 0.75000  0.75000  0.25114  Biso   1.000  Cu
  O1       1.0000 0.09638  0.93020  0.95038  Biso   1.000  O
  O2       1.0000 0.90362  0.06980  0.95038  Biso   1.000  O
  O3       1.0000 0.34638  0.31980  0.20038  Biso   1.000  O
  O4       1.0000 0.15362  0.18020  0.20038  Biso   1.000  O
  O5       1.0000 0.09638  0.43020  0.45038  Biso   1.000  O
  O6       1.0000 0.90362  0.56980  0.45038  Biso   1.000  O
  O7       1.0000 0.34638  0.81980  0.70038  Biso   1.000  O
  O8       1.0000 0.15362  0.68020  0.70038  Biso   1.000  O
  O9       1.0000 0.59638  0.93020  0.45038  Biso   1.000  O
  O10      1.0000 0.40362  0.06980  0.45038  Biso   1.000  O
  O11      1.0000 0.84638  0.31980  0.70038  Biso   1.000  O
  O12      1.0000 0.65362  0.18020  0.70038  Biso   1.000  O
  O13      1.0000 0.59638  0.43020  0.95038  Biso   1.000  O
  O14      1.0000 0.40362  0.56980  0.95038  Biso   1.000  O
  O15      1.0000 0.84638  0.81980  0.20038  Biso   1.000  O
  O16      1.0000 0.65362  0.68020  0.20038  Biso   1.000  O
  O17      1.0000 0.08790  0.01587  0.99589  Biso   1.000  O
  O18      1.0000 0.91210  0.98413  0.99589  Biso   1.000  O
  O19      1.0000 0.33790  0.23413  0.24589  Biso   1.000  O
  O20      1.0000 0.16210  0.26587  0.24589  Biso   1.000  O
  O21      1.0000 0.08790  0.51587  0.49589  Biso   1.000  O
  O22      1.0000 0.91210  0.48413  0.49589  Biso   1.000  O
  O23      1.0000 0.33790  0.73413  0.74589  Biso   1.000  O
  O24      1.0000 0.16210  0.76587  0.74589  Biso   1.000  O
  O25      1.0000 0.58790  0.01587  0.49589  Biso   1.000  O
  O26      1.0000 0.41210  0.98413  0.49589  Biso   1.000  O
  O27      1.0000 0.83790  0.23413  0.74589  Biso   1.000  O
  O28      1.0000 0.66210  0.26587  0.74589  Biso   1.000  O
  O29      1.0000 0.58790  0.51587  0.99589  Biso   1.000  O
  O30      1.0000 0.41210  0.48413  0.99589  Biso   1.000  O
  O31      1.0000 0.83790  0.73413  0.24589  Biso   1.000  O
  O32      1.0000 0.66210  0.76587  0.24589  Biso   1.000  O
  Cl1      1.0000 0.20134  0.08769  0.02042  Biso   1.000  Cl
  Cl2      1.0000 0.79866  0.91231  0.02042  Biso   1.000  Cl
  Cl3      1.0000 0.45134  0.16231  0.27042  Biso   1.000  Cl
  Cl4      1.0000 0.04866  0.33769  0.27042  Biso   1.000  Cl
  Cl5      1.0000 0.20134  0.58769  0.52042  Biso   1.000  Cl
  Cl6      1.0000 0.79866  0.41231  0.52042  Biso   1.000  Cl
  Cl7      1.0000 0.45134  0.66231  0.77042  Biso   1.000  Cl
  Cl8      1.0000 0.04866  0.83769  0.77042  Biso   1.000  Cl
  Cl9      1.0000 0.70134  0.08769  0.52042  Biso   1.000  Cl
  Cl10     1.0000 0.29866  0.91231  0.52042  Biso   1.000  Cl
  Cl11     1.0000 0.95134  0.16231  0.77042  Biso   1.000  Cl
  Cl12     1.0000 0.54866  0.33769  0.77042  Biso   1.000  Cl
  Cl13     1.0000 0.70134  0.58769  0.02042  Biso   1.000  Cl
  Cl14     1.0000 0.29866  0.41231  0.02042  Biso   1.000  Cl
  Cl15     1.0000 0.95134  0.66231  0.27042  Biso   1.000  Cl
  Cl16     1.0000 0.54866  0.83769  0.27042  Biso   1.000  Cl
  N1       1.0000 0.27561  0.02400  0.89217  Biso   1.000  N
  N2       1.0000 0.72439  0.97600  0.89217  Biso   1.000  N
  N3       1.0000 0.52561  0.22600  0.14217  Biso   1.000  N
  N4       1.0000 0.97439  0.27400  0.14217  Biso   1.000  N
  N5       1.0000 0.27561  0.52400  0.39217  Biso   1.000  N
  N6       1.0000 0.72439  0.47600  0.39217  Biso   1.000  N
  N7       1.0000 0.52561  0.72600  0.64217  Biso   1.000  N
  N8       1.0000 0.97439  0.77400  0.64217  Biso   1.000  N
  N9       1.0000 0.77561  0.02400  0.39217  Biso   1.000  N
  N10      1.0000 0.22439  0.97600  0.39217  Biso   1.000  N
  N11      1.0000 0.02561  0.22600  0.64217  Biso   1.000  N
  N12      1.0000 0.47439  0.27400  0.64217  Biso   1.000  N
  N13      1.0000 0.77561  0.52400  0.89217  Biso   1.000  N
  N14      1.0000 0.22439  0.47600  0.89217  Biso   1.000  N
  N15      1.0000 0.02561  0.72600  0.14217  Biso   1.000  N
  N16      1.0000 0.47439  0.77400  0.14217  Biso   1.000  N
  N17      1.0000 0.27953  0.97534  0.83698  Biso   1.000  N
  N18      1.0000 0.72047  0.02466  0.83698  Biso   1.000  N
  N19      1.0000 0.52953  0.27466  0.08698  Biso   1.000  N
  N20      1.0000 0.97047  0.22534  0.08698  Biso   1.000  N
  N21      1.0000 0.27953  0.47534  0.33698  Biso   1.000  N
  N22      1.0000 0.72047  0.52466  0.33698  Biso   1.000  N
  N23      1.0000 0.52953  0.77466  0.58698  Biso   1.000  N
  N24      1.0000 0.97047  0.72534  0.58698  Biso   1.000  N
  N25      1.0000 0.77953  0.97534  0.33698  Biso   1.000  N
  N26      1.0000 0.22047  0.02466  0.33698  Biso   1.000  N
  N27      1.0000 0.02953  0.27466  0.58698  Biso   1.000  N
  N28      1.0000 0.47047  0.22534  0.58698  Biso   1.000  N
  N29      1.0000 0.77953  0.47534  0.83698  Biso   1.000  N
  N30      1.0000 0.22047  0.52466  0.83698  Biso   1.000  N
  N31      1.0000 0.02953  0.77466  0.08698  Biso   1.000  N
  N32      1.0000 0.47047  0.72534  0.08698  Biso   1.000  N
  N33      1.0000 0.00000  0.00000  0.18260  Biso   1.000  N
  N34      1.0000 0.25000  0.25000  0.43260  Biso   1.000  N
  N35      1.0000 0.00000  0.50000  0.68260  Biso   1.000  N
  N36      1.0000 0.25000  0.75000  0.93260  Biso   1.000  N
  N37      1.0000 0.50000  0.00000  0.68260  Biso   1.000  N
  N38      1.0000 0.75000  0.25000  0.93260  Biso   1.000  N
  N39      1.0000 0.50000  0.50000  0.18260  Biso   1.000  N
  N40      1.0000 0.75000  0.75000  0.43260  Biso   1.000  N
  N41      1.0000 0.00000  0.00000  0.81870  Biso   1.000  N
  N42      1.0000 0.25000  0.25000  0.06870  Biso   1.000  N
  N43      1.0000 0.00000  0.50000  0.31870  Biso   1.000  N
  N44      1.0000 0.25000  0.75000  0.56870  Biso   1.000  N
  N45      1.0000 0.50000  0.00000  0.31870  Biso   1.000  N
  N46      1.0000 0.75000  0.25000  0.56870  Biso   1.000  N
  N47      1.0000 0.50000  0.50000  0.81870  Biso   1.000  N
  N48      1.0000 0.75000  0.75000  0.06870  Biso   1.000  N
  C1       1.0000 0.34248  0.07462  0.76010  Biso   1.000  C
  C2       1.0000 0.65752  0.92538  0.76010  Biso   1.000  C
  C3       1.0000 0.59248  0.17538  0.01010  Biso   1.000  C
  C4       1.0000 0.90752  0.32462  0.01010  Biso   1.000  C
  C5       1.0000 0.34248  0.57462  0.26010  Biso   1.000  C
  C6       1.0000 0.65752  0.42538  0.26010  Biso   1.000  C
  C7       1.0000 0.59248  0.67538  0.51010  Biso   1.000  C
  C8       1.0000 0.90752  0.82462  0.51010  Biso   1.000  C
  C9       1.0000 0.84248  0.07462  0.26010  Biso   1.000  C
  C10      1.0000 0.15752  0.92538  0.26010  Biso   1.000  C
  C11      1.0000 0.09248  0.17538  0.51010  Biso   1.000  C
  C12      1.0000 0.40752  0.32462  0.51010  Biso   1.000  C
  C13      1.0000 0.84248  0.57462  0.76010  Biso   1.000  C
  C14      1.0000 0.15752  0.42538  0.76010  Biso   1.000  C
  C15      1.0000 0.09248  0.67538  0.01010  Biso   1.000  C
  C16      1.0000 0.40752  0.82462  0.01010  Biso   1.000  C
  H1       1.0000 0.32070  0.06050  0.69520  Biso   1.000  H
  H2       1.0000 0.67930  0.93950  0.69520  Biso   1.000  H
  H3       1.0000 0.57070  0.18950  0.94520  Biso   1.000  H
  H4       1.0000 0.92930  0.31050  0.94520  Biso   1.000  H
  H5       1.0000 0.32070  0.56050  0.19520  Biso   1.000  H
  H6       1.0000 0.67930  0.43950  0.19520  Biso   1.000  H
  H7       1.0000 0.57070  0.68950  0.44520  Biso   1.000  H
  H8       1.0000 0.92930  0.81050  0.44520  Biso   1.000  H
  H9       1.0000 0.82070  0.06050  0.19520  Biso   1.000  H
  H10      1.0000 0.17930  0.93950  0.19520  Biso   1.000  H
  H11      1.0000 0.07070  0.18950  0.44520  Biso   1.000  H
  H12      1.0000 0.42930  0.31050  0.44520  Biso   1.000  H
  H13      1.0000 0.82070  0.56050  0.69520  Biso   1.000  H
  H14      1.0000 0.17930  0.43950  0.69520  Biso   1.000  H
  H15      1.0000 0.07070  0.68950  0.94520  Biso   1.000  H
  H16      1.0000 0.42930  0.81050  0.94520  Biso   1.000  H
  C17      1.0000 0.39207  0.10892  0.74080  Biso   1.000  C
  C18      1.0000 0.60793  0.89108  0.74080  Biso   1.000  C
  C19      1.0000 0.64207  0.14108  0.99080  Biso   1.000  C
  C20      1.0000 0.85793  0.35892  0.99080  Biso   1.000  C
  C21      1.0000 0.39207  0.60892  0.24080  Biso   1.000  C
  C22      1.0000 0.60793  0.39108  0.24080  Biso   1.000  C
  C23      1.0000 0.64207  0.64108  0.49080  Biso   1.000  C
  C24      1.0000 0.85793  0.85892  0.49080  Biso   1.000  C
  C25      1.0000 0.89207  0.10892  0.24080  Biso   1.000  C
  C26      1.0000 0.10793  0.89108  0.24080  Biso   1.000  C
  C27      1.0000 0.14207  0.14108  0.49080  Biso   1.000  C
  C28      1.0000 0.35793  0.35892  0.49080  Biso   1.000  C
  C29      1.0000 0.89207  0.60892  0.74080  Biso   1.000  C
  C30      1.0000 0.10793  0.39108  0.74080  Biso   1.000  C
  C31      1.0000 0.14207  0.64108  0.99080  Biso   1.000  C
  C32      1.0000 0.35793  0.85892  0.99080  Biso   1.000  C
  H17      1.0000 0.40430  0.11750  0.66290  Biso   1.000  H
  H18      1.0000 0.59570  0.88250  0.66290  Biso   1.000  H
  H19      1.0000 0.65430  0.13250  0.91290  Biso   1.000  H
  H20      1.0000 0.84570  0.36750  0.91290  Biso   1.000  H
  H21      1.0000 0.40430  0.61750  0.16290  Biso   1.000  H
  H22      1.0000 0.59570  0.38250  0.16290  Biso   1.000  H
  H23      1.0000 0.65430  0.63250  0.41290  Biso   1.000  H
  H24      1.0000 0.84570  0.86750  0.41290  Biso   1.000  H
  H25      1.0000 0.90430  0.11750  0.16290  Biso   1.000  H
  H26      1.0000 0.09570  0.88250  0.16290  Biso   1.000  H
  H27      1.0000 0.15430  0.13250  0.41290  Biso   1.000  H
  H28      1.0000 0.34570  0.36750  0.41290  Biso   1.000  H
  H29      1.0000 0.90430  0.61750  0.66290  Biso   1.000  H
  H30      1.0000 0.09570  0.38250  0.66290  Biso   1.000  H
  H31      1.0000 0.15430  0.63250  0.91290  Biso   1.000  H
  H32      1.0000 0.34570  0.86750  0.91290  Biso   1.000  H
  C33      1.0000 0.42297  0.13013  0.83770  Biso   1.000  C
  C34      1.0000 0.57703  0.86987  0.83770  Biso   1.000  C
  C35      1.0000 0.67297  0.11987  0.08770  Biso   1.000  C
  C36      1.0000 0.82703  0.38013  0.08770  Biso   1.000  C
  C37      1.0000 0.42297  0.63013  0.33770  Biso   1.000  C
  C38      1.0000 0.57703  0.36987  0.33770  Biso   1.000  C
  C39      1.0000 0.67297  0.61987  0.58770  Biso   1.000  C
  C40      1.0000 0.82703  0.88013  0.58770  Biso   1.000  C
  C41      1.0000 0.92297  0.13013  0.33770  Biso   1.000  C
  C42      1.0000 0.07703  0.86987  0.33770  Biso   1.000  C
  C43      1.0000 0.17297  0.11987  0.58770  Biso   1.000  C
  C44      1.0000 0.32703  0.38013  0.58770  Biso   1.000  C
  C45      1.0000 0.92297  0.63013  0.83770  Biso   1.000  C
  C46      1.0000 0.07703  0.36987  0.83770  Biso   1.000  C
  C47      1.0000 0.17297  0.61987  0.08770  Biso   1.000  C
  C48      1.0000 0.32703  0.88013  0.08770  Biso   1.000  C
  H33      1.0000 0.45590  0.15360  0.82510  Biso   1.000  H
  H34      1.0000 0.54410  0.84640  0.82510  Biso   1.000  H
  H35      1.0000 0.70590  0.09640  0.07510  Biso   1.000  H
  H36      1.0000 0.79410  0.40360  0.07510  Biso   1.000  H
  H37      1.0000 0.45590  0.65360  0.32510  Biso   1.000  H
  H38      1.0000 0.54410  0.34640  0.32510  Biso   1.000  H
  H39      1.0000 0.70590  0.59640  0.57510  Biso   1.000  H
  H40      1.0000 0.79410  0.90360  0.57510  Biso   1.000  H
  H41      1.0000 0.95590  0.15360  0.32510  Biso   1.000  H
  H42      1.0000 0.04410  0.84640  0.32510  Biso   1.000  H
  H43      1.0000 0.20590  0.09640  0.57510  Biso   1.000  H
  H44      1.0000 0.29410  0.40360  0.57510  Biso   1.000  H
  H45      1.0000 0.95590  0.65360  0.82510  Biso   1.000  H
  H46      1.0000 0.04410  0.34640  0.82510  Biso   1.000  H
  H47      1.0000 0.20590  0.59640  0.07510  Biso   1.000  H
  H48      1.0000 0.29410  0.90360  0.07510  Biso   1.000  H
  C49      1.0000 0.40589  0.11724  0.95290  Biso   1.000  C
  C50      1.0000 0.59411  0.88276  0.95290  Biso   1.000  C
  C51      1.0000 0.65589  0.13276  0.20290  Biso   1.000  C
  C52      1.0000 0.84411  0.36724  0.20290  Biso   1.000  C
  C53      1.0000 0.40589  0.61724  0.45290  Biso   1.000  C
  C54      1.0000 0.59411  0.38276  0.45290  Biso   1.000  C
  C55      1.0000 0.65589  0.63276  0.70290  Biso   1.000  C
  C56      1.0000 0.84411  0.86724  0.70290  Biso   1.000  C
  C57      1.0000 0.90589  0.11724  0.45290  Biso   1.000  C
  C58      1.0000 0.09411  0.88276  0.45290  Biso   1.000  C
  C59      1.0000 0.15589  0.13276  0.70290  Biso   1.000  C
  C60      1.0000 0.34411  0.36724  0.70290  Biso   1.000  C
  C61      1.0000 0.90589  0.61724  0.95290  Biso   1.000  C
  C62      1.0000 0.09411  0.38276  0.95290  Biso   1.000  C
  C63      1.0000 0.15589  0.63276  0.20290  Biso   1.000  C
  C64      1.0000 0.34411  0.86724  0.20290  Biso   1.000  C
  H49      1.0000 0.42730  0.13180  0.01770  Biso   1.000  H
  H50      1.0000 0.57270  0.86820  0.01770  Biso   1.000  H
  H51      1.0000 0.67730  0.11820  0.26770  Biso   1.000  H
  H52      1.0000 0.82270  0.38180  0.26770  Biso   1.000  H
  H53      1.0000 0.42730  0.63180  0.51770  Biso   1.000  H
  H54      1.0000 0.57270  0.36820  0.51770  Biso   1.000  H
  H55      1.0000 0.67730  0.61820  0.76770  Biso   1.000  H
  H56      1.0000 0.82270  0.88180  0.76770  Biso   1.000  H
  H57      1.0000 0.92730  0.13180  0.51770  Biso   1.000  H
  H58      1.0000 0.07270  0.86820  0.51770  Biso   1.000  H
  H59      1.0000 0.17730  0.11820  0.76770  Biso   1.000  H
  H60      1.0000 0.32270  0.38180  0.76770  Biso   1.000  H
  H61      1.0000 0.92730  0.63180  0.01770  Biso   1.000  H
  H62      1.0000 0.07270  0.36820  0.01770  Biso   1.000  H
  H63      1.0000 0.17730  0.61820  0.26770  Biso   1.000  H
  H64      1.0000 0.32270  0.88180  0.26770  Biso   1.000  H
  C65      1.0000 0.35662  0.08234  0.97290  Biso   1.000  C
  C66      1.0000 0.64338  0.91766  0.97290  Biso   1.000  C
  C67      1.0000 0.60662  0.16766  0.22290  Biso   1.000  C
  C68      1.0000 0.89338  0.33234  0.22290  Biso   1.000  C
  C69      1.0000 0.35662  0.58234  0.47290  Biso   1.000  C
  C70      1.0000 0.64338  0.41766  0.47290  Biso   1.000  C
  C71      1.0000 0.60662  0.66766  0.72290  Biso   1.000  C
  C72      1.0000 0.89338  0.83234  0.72290  Biso   1.000  C
  C73      1.0000 0.85662  0.08234  0.47290  Biso   1.000  C
  C74      1.0000 0.14338  0.91766  0.47290  Biso   1.000  C
  C75      1.0000 0.10662  0.16766  0.72290  Biso   1.000  C
  C76      1.0000 0.39338  0.33234  0.72290  Biso   1.000  C
  C77      1.0000 0.85662  0.58234  0.97290  Biso   1.000  C
  C78      1.0000 0.14338  0.41766  0.97290  Biso   1.000  C
  C79      1.0000 0.10662  0.66766  0.22290  Biso   1.000  C
  C80      1.0000 0.39338  0.83234  0.22290  Biso   1.000  C
  H65      1.0000 0.34500  0.07330  0.05080  Biso   1.000  H
  H66      1.0000 0.65500  0.92670  0.05080  Biso   1.000  H
  H67      1.0000 0.59500  0.17670  0.30080  Biso   1.000  H
  H68      1.0000 0.90500  0.32330  0.30080  Biso   1.000  H
  H69      1.0000 0.34500  0.57330  0.55080  Biso   1.000  H
  H70      1.0000 0.65500  0.42670  0.55080  Biso   1.000  H
  H71      1.0000 0.59500  0.67670  0.80080  Biso   1.000  H
  H72      1.0000 0.90500  0.82330  0.80080  Biso   1.000  H
  H73      1.0000 0.84500  0.07330  0.55080  Biso   1.000  H
  H74      1.0000 0.15500  0.92670  0.55080  Biso   1.000  H
  H75      1.0000 0.09500  0.17670  0.80080  Biso   1.000  H
  H76      1.0000 0.40500  0.32330  0.80080  Biso   1.000  H
  H77      1.0000 0.84500  0.57330  0.05080  Biso   1.000  H
  H78      1.0000 0.15500  0.42670  0.05080  Biso   1.000  H
  H79      1.0000 0.09500  0.67670  0.30080  Biso   1.000  H
  H80      1.0000 0.40500  0.82330  0.30080  Biso   1.000  H
  C81      1.0000 0.32548  0.06154  0.87615  Biso   1.000  C
  C82      1.0000 0.67452  0.93846  0.87615  Biso   1.000  C
  C83      1.0000 0.57548  0.18846  0.12615  Biso   1.000  C
  C84      1.0000 0.92452  0.31154  0.12615  Biso   1.000  C
  C85      1.0000 0.32548  0.56154  0.37615  Biso   1.000  C
  C86      1.0000 0.67452  0.43846  0.37615  Biso   1.000  C
  C87      1.0000 0.57548  0.68846  0.62615  Biso   1.000  C
  C88      1.0000 0.92452  0.81154  0.62615  Biso   1.000  C
  C89      1.0000 0.82548  0.06154  0.37615  Biso   1.000  C
  C90      1.0000 0.17452  0.93846  0.37615  Biso   1.000  C
  C91      1.0000 0.07548  0.18846  0.62615  Biso   1.000  C
  C92      1.0000 0.42452  0.31154  0.62615  Biso   1.000  C
  C93      1.0000 0.82548  0.56154  0.87615  Biso   1.000  C
  C94      1.0000 0.17452  0.43846  0.87615  Biso   1.000  C
  C95      1.0000 0.07548  0.68846  0.12615  Biso   1.000  C
  C96      1.0000 0.42452  0.81154  0.12615  Biso   1.000  C
  C97      1.0000 0.22520  0.95172  0.85974  Biso   1.000  C
  C98      1.0000 0.77480  0.04828  0.85974  Biso   1.000  C
  C99      1.0000 0.47520  0.29828  0.10974  Biso   1.000  C
  C100     1.0000 0.02480  0.20172  0.10974  Biso   1.000  C
  C101     1.0000 0.22520  0.45172  0.35974  Biso   1.000  C
  C102     1.0000 0.77480  0.54828  0.35974  Biso   1.000  C
  C103     1.0000 0.47520  0.79828  0.60974  Biso   1.000  C
  C104     1.0000 0.02480  0.70172  0.60974  Biso   1.000  C
  C105     1.0000 0.72520  0.95172  0.35974  Biso   1.000  C
  C106     1.0000 0.27480  0.04828  0.35974  Biso   1.000  C
  C107     1.0000 0.97520  0.29828  0.60974  Biso   1.000  C
  C108     1.0000 0.52480  0.20172  0.60974  Biso   1.000  C
  C109     1.0000 0.72520  0.45172  0.85974  Biso   1.000  C
  C110     1.0000 0.27480  0.54828  0.85974  Biso   1.000  C
  C111     1.0000 0.97520  0.79828  0.10974  Biso   1.000  C
  C112     1.0000 0.52480  0.70172  0.10974  Biso   1.000  C
  C113     1.0000 0.18495  0.98524  0.92754  Biso   1.000  C
  C114     1.0000 0.81505  0.01476  0.92754  Biso   1.000  C
  C115     1.0000 0.43495  0.26476  0.17754  Biso   1.000  C
  C116     1.0000 0.06505  0.23524  0.17754  Biso   1.000  C
  C117     1.0000 0.18495  0.48524  0.42754  Biso   1.000  C
  C118     1.0000 0.81505  0.51476  0.42754  Biso   1.000  C
  C119     1.0000 0.43495  0.76476  0.67754  Biso   1.000  C
  C120     1.0000 0.06505  0.73524  0.67754  Biso   1.000  C
  C121     1.0000 0.68495  0.98524  0.42754  Biso   1.000  C
  C122     1.0000 0.31505  0.01476  0.42754  Biso   1.000  C
  C123     1.0000 0.93495  0.26476  0.67754  Biso   1.000  C
  C124     1.0000 0.56505  0.23524  0.67754  Biso   1.000  C
  C125     1.0000 0.68495  0.48524  0.92754  Biso   1.000  C
  C126     1.0000 0.31505  0.51476  0.92754  Biso   1.000  C
  C127     1.0000 0.93495  0.76476  0.17754  Biso   1.000  C
  C128     1.0000 0.56505  0.73524  0.17754  Biso   1.000  C
  C129     1.0000 0.21929  0.03058  0.94605  Biso   1.000  C
  C130     1.0000 0.78071  0.96942  0.94605  Biso   1.000  C
  C131     1.0000 0.46929  0.21942  0.19605  Biso   1.000  C
  C132     1.0000 0.03071  0.28058  0.19605  Biso   1.000  C
  C133     1.0000 0.21929  0.53058  0.44605  Biso   1.000  C
  C134     1.0000 0.78071  0.46942  0.44605  Biso   1.000  C
  C135     1.0000 0.46929  0.71942  0.69605  Biso   1.000  C
  C136     1.0000 0.03071  0.78058  0.69605  Biso   1.000  C
  C137     1.0000 0.71929  0.03058  0.44605  Biso   1.000  C
  C138     1.0000 0.28071  0.96942  0.44605  Biso   1.000  C
  C139     1.0000 0.96929  0.21942  0.69605  Biso   1.000  C
  C140     1.0000 0.53071  0.28058  0.69605  Biso   1.000  C
  C141     1.0000 0.71929  0.53058  0.94605  Biso   1.000  C
  C142     1.0000 0.28071  0.46942  0.94605  Biso   1.000  C
  C143     1.0000 0.96929  0.71942  0.19605  Biso   1.000  C
  C144     1.0000 0.53071  0.78058  0.19605  Biso   1.000  C
  C145     1.0000 0.21357  0.89698  0.81520  Biso   1.000  C
  C146     1.0000 0.78643  0.10302  0.81520  Biso   1.000  C
  C147     1.0000 0.46357  0.35302  0.06520  Biso   1.000  C
  C148     1.0000 0.03643  0.14698  0.06520  Biso   1.000  C
  C149     1.0000 0.21357  0.39698  0.31520  Biso   1.000  C
  C150     1.0000 0.78643  0.60302  0.31520  Biso   1.000  C
  C151     1.0000 0.46357  0.85302  0.56520  Biso   1.000  C
  C152     1.0000 0.03643  0.64698  0.56520  Biso   1.000  C
  C153     1.0000 0.71357  0.89698  0.31520  Biso   1.000  C
  C154     1.0000 0.28643  0.10302  0.31520  Biso   1.000  C
  C155     1.0000 0.96357  0.35302  0.56520  Biso   1.000  C
  C156     1.0000 0.53643  0.14698  0.56520  Biso   1.000  C
  C157     1.0000 0.71357  0.39698  0.81520  Biso   1.000  C
  C158     1.0000 0.28643  0.60302  0.81520  Biso   1.000  C
  C159     1.0000 0.96357  0.85302  0.06520  Biso   1.000  C
  C160     1.0000 0.53643  0.64698  0.06520  Biso   1.000  C
  H81      1.0000 0.24900  0.88500  0.76990  Biso   1.000  H
  H82      1.0000 0.75100  0.11500  0.76990  Biso   1.000  H
  H83      1.0000 0.49900  0.36500  0.01990  Biso   1.000  H
  H84      1.0000 0.00100  0.13500  0.01990  Biso   1.000  H
  H85      1.0000 0.24900  0.38500  0.26990  Biso   1.000  H
  H86      1.0000 0.75100  0.61500  0.26990  Biso   1.000  H
  H87      1.0000 0.49900  0.86500  0.51990  Biso   1.000  H
  H88      1.0000 0.00100  0.63500  0.51990  Biso   1.000  H
  H89      1.0000 0.74900  0.88500  0.26990  Biso   1.000  H
  H90      1.0000 0.25100  0.11500  0.26990  Biso   1.000  H
  H91      1.0000 0.99900  0.36500  0.51990  Biso   1.000  H
  H92      1.0000 0.50100  0.13500  0.51990  Biso   1.000  H
  H93      1.0000 0.74900  0.38500  0.76990  Biso   1.000  H
  H94      1.0000 0.25100  0.61500  0.76990  Biso   1.000  H
  H95      1.0000 0.99900  0.86500  0.01990  Biso   1.000  H
  H96      1.0000 0.50100  0.63500  0.01990  Biso   1.000  H
  H97      1.0000 0.17720  0.89690  0.76470  Biso   1.000  H
  H98      1.0000 0.82280  0.10310  0.76470  Biso   1.000  H
  H99      1.0000 0.42720  0.35310  0.01470  Biso   1.000  H
  H100     1.0000 0.07280  0.14690  0.01470  Biso   1.000  H
  H101     1.0000 0.17720  0.39690  0.26470  Biso   1.000  H
  H102     1.0000 0.82280  0.60310  0.26470  Biso   1.000  H
  H103     1.0000 0.42720  0.85310  0.51470  Biso   1.000  H
  H104     1.0000 0.07280  0.64690  0.51470  Biso   1.000  H
  H105     1.0000 0.67720  0.89690  0.26470  Biso   1.000  H
  H106     1.0000 0.32280  0.10310  0.26470  Biso   1.000  H
  H107     1.0000 0.92720  0.35310  0.51470  Biso   1.000  H
  H108     1.0000 0.57280  0.14690  0.51470  Biso   1.000  H
  H109     1.0000 0.67720  0.39690  0.76470  Biso   1.000  H
  H110     1.0000 0.32280  0.60310  0.76470  Biso   1.000  H
  H111     1.0000 0.92720  0.85310  0.01470  Biso   1.000  H
  H112     1.0000 0.57280  0.64690  0.01470  Biso   1.000  H
  H113     1.0000 0.20690  0.87370  0.88230  Biso   1.000  H
  H114     1.0000 0.79310  0.12630  0.88230  Biso   1.000  H
  H115     1.0000 0.45690  0.37630  0.13230  Biso   1.000  H
  H116     1.0000 0.04310  0.12370  0.13230  Biso   1.000  H
  H117     1.0000 0.20690  0.37370  0.38230  Biso   1.000  H
  H118     1.0000 0.79310  0.62630  0.38230  Biso   1.000  H
  H119     1.0000 0.45690  0.87630  0.63230  Biso   1.000  H
  H120     1.0000 0.04310  0.62370  0.63230  Biso   1.000  H
  H121     1.0000 0.70690  0.87370  0.38230  Biso   1.000  H
  H122     1.0000 0.29310  0.12630  0.38230  Biso   1.000  H
  H123     1.0000 0.95690  0.37630  0.63230  Biso   1.000  H
  H124     1.0000 0.54310  0.12370  0.63230  Biso   1.000  H
  H125     1.0000 0.70690  0.37370  0.88230  Biso   1.000  H
  H126     1.0000 0.29310  0.62630  0.88230  Biso   1.000  H
  H127     1.0000 0.95690  0.87630  0.13230  Biso   1.000  H
  H128     1.0000 0.54310  0.62370  0.13230  Biso   1.000  H
  C161     1.0000 0.11869  0.97514  0.96015  Biso   1.000  C
  C162     1.0000 0.88131  0.02486  0.96015  Biso   1.000  C
  C163     1.0000 0.36869  0.27486  0.21015  Biso   1.000  C
  C164     1.0000 0.13131  0.22514  0.21015  Biso   1.000  C
  C165     1.0000 0.11869  0.47514  0.46015  Biso   1.000  C
  C166     1.0000 0.88131  0.52486  0.46015  Biso   1.000  C
  C167     1.0000 0.36869  0.77486  0.71015  Biso   1.000  C
  C168     1.0000 0.13131  0.72514  0.71015  Biso   1.000  C
  C169     1.0000 0.61869  0.97514  0.46015  Biso   1.000  C
  C170     1.0000 0.38131  0.02486  0.46015  Biso   1.000  C
  C171     1.0000 0.86869  0.27486  0.71015  Biso   1.000  C
  C172     1.0000 0.63131  0.22514  0.71015  Biso   1.000  C
  C173     1.0000 0.61869  0.47514  0.96015  Biso   1.000  C
  C174     1.0000 0.38131  0.52486  0.96015  Biso   1.000  C
  C175     1.0000 0.86869  0.77486  0.21015  Biso   1.000  C
  C176     1.0000 0.63131  0.72514  0.21015  Biso   1.000  C
  C177     1.0000 0.04791  0.02050  0.24479  Biso   1.000  C
  C178     1.0000 0.95209  0.97950  0.24479  Biso   1.000  C
  C179     1.0000 0.29791  0.22950  0.49479  Biso   1.000  C
  C180     1.0000 0.20209  0.27050  0.49479  Biso   1.000  C
  C181     1.0000 0.04791  0.52050  0.74479  Biso   1.000  C
  C182     1.0000 0.95209  0.47950  0.74479  Biso   1.000  C
  C183     1.0000 0.29791  0.72950  0.99479  Biso   1.000  C
  C184     1.0000 0.20209  0.77050  0.99479  Biso   1.000  C
  C185     1.0000 0.54791  0.02050  0.74479  Biso   1.000  C
  C186     1.0000 0.45209  0.97950  0.74479  Biso   1.000  C
  C187     1.0000 0.79791  0.22950  0.99479  Biso   1.000  C
  C188     1.0000 0.70209  0.27050  0.99479  Biso   1.000  C
  C189     1.0000 0.54791  0.52050  0.24479  Biso   1.000  C
  C190     1.0000 0.45209  0.47950  0.24479  Biso   1.000  C
  C191     1.0000 0.79791  0.72950  0.49479  Biso   1.000  C
  C192     1.0000 0.70209  0.77050  0.49479  Biso   1.000  C
  H129     1.0000 0.08160  0.03460  0.20260  Biso   1.000  H
  H130     1.0000 0.91840  0.96540  0.20260  Biso   1.000  H
  H131     1.0000 0.33160  0.21540  0.45260  Biso   1.000  H
  H132     1.0000 0.16840  0.28460  0.45260  Biso   1.000  H
  H133     1.0000 0.08160  0.53460  0.70260  Biso   1.000  H
  H134     1.0000 0.91840  0.46540  0.70260  Biso   1.000  H
  H135     1.0000 0.33160  0.71540  0.95260  Biso   1.000  H
  H136     1.0000 0.16840  0.78460  0.95260  Biso   1.000  H
  H137     1.0000 0.58160  0.03460  0.70260  Biso   1.000  H
  H138     1.0000 0.41840  0.96540  0.70260  Biso   1.000  H
  H139     1.0000 0.83160  0.21540  0.95260  Biso   1.000  H
  H140     1.0000 0.66840  0.28460  0.95260  Biso   1.000  H
  H141     1.0000 0.58160  0.53460  0.20260  Biso   1.000  H
  H142     1.0000 0.41840  0.46540  0.20260  Biso   1.000  H
  H143     1.0000 0.83160  0.71540  0.45260  Biso   1.000  H
  H144     1.0000 0.66840  0.78460  0.45260  Biso   1.000  H
  C193     1.0000 0.04934  0.02158  0.36889  Biso   1.000  C
  C194     1.0000 0.95066  0.97842  0.36889  Biso   1.000  C
  C195     1.0000 0.29934  0.22842  0.61889  Biso   1.000  C
  C196     1.0000 0.20066  0.27158  0.61889  Biso   1.000  C
  C197     1.0000 0.04934  0.52158  0.86889  Biso   1.000  C
  C198     1.0000 0.95066  0.47842  0.86889  Biso   1.000  C
  C199     1.0000 0.29934  0.72842  0.11889  Biso   1.000  C
  C200     1.0000 0.20066  0.77158  0.11889  Biso   1.000  C
  C201     1.0000 0.54934  0.02158  0.86889  Biso   1.000  C
  C202     1.0000 0.45066  0.97842  0.86889  Biso   1.000  C
  C203     1.0000 0.79934  0.22842  0.11889  Biso   1.000  C
  C204     1.0000 0.70066  0.27158  0.11889  Biso   1.000  C
  C205     1.0000 0.54934  0.52158  0.36889  Biso   1.000  C
  C206     1.0000 0.45066  0.47842  0.36889  Biso   1.000  C
  C207     1.0000 0.79934  0.72842  0.61889  Biso   1.000  C
  C208     1.0000 0.70066  0.77158  0.61889  Biso   1.000  C
  H145     1.0000 0.08310  0.03670  0.40880  Biso   1.000  H
  H146     1.0000 0.91690  0.96330  0.40880  Biso   1.000  H
  H147     1.0000 0.33310  0.21330  0.65880  Biso   1.000  H
  H148     1.0000 0.16690  0.28670  0.65880  Biso   1.000  H
  H149     1.0000 0.08310  0.53670  0.90880  Biso   1.000  H
  H150     1.0000 0.91690  0.46330  0.90880  Biso   1.000  H
  H151     1.0000 0.33310  0.71330  0.15880  Biso   1.000  H
  H152     1.0000 0.16690  0.78670  0.15880  Biso   1.000  H
  H153     1.0000 0.58310  0.03670  0.90880  Biso   1.000  H
  H154     1.0000 0.41690  0.96330  0.90880  Biso   1.000  H
  H155     1.0000 0.83310  0.21330  0.15880  Biso   1.000  H
  H156     1.0000 0.66690  0.28670  0.15880  Biso   1.000  H
  H157     1.0000 0.58310  0.53670  0.40880  Biso   1.000  H
  H158     1.0000 0.41690  0.46330  0.40880  Biso   1.000  H
  H159     1.0000 0.83310  0.71330  0.65880  Biso   1.000  H
  H160     1.0000 0.66690  0.78670  0.65880  Biso   1.000  H
  C209     1.0000 0.00000  0.00000  0.43380  Biso   1.000  C
  C210     1.0000 0.25000  0.25000  0.68380  Biso   1.000  C
  C211     1.0000 0.00000  0.50000  0.93380  Biso   1.000  C
  C212     1.0000 0.25000  0.75000  0.18380  Biso   1.000  C
  C213     1.0000 0.50000  0.00000  0.93380  Biso   1.000  C
  C214     1.0000 0.75000  0.25000  0.18380  Biso   1.000  C
  C215     1.0000 0.50000  0.50000  0.43380  Biso   1.000  C
  C216     1.0000 0.75000  0.75000  0.68380  Biso   1.000  C
  C217     1.0000 0.00000  0.00000  0.56690  Biso   1.000  C
  C218     1.0000 0.25000  0.25000  0.81690  Biso   1.000  C
  C219     1.0000 0.00000  0.50000  0.06690  Biso   1.000  C
  C220     1.0000 0.25000  0.75000  0.31690  Biso   1.000  C
  C221     1.0000 0.50000  0.00000  0.06690  Biso   1.000  C
  C222     1.0000 0.75000  0.25000  0.31690  Biso   1.000  C
  C223     1.0000 0.50000  0.50000  0.56690  Biso   1.000  C
  C224     1.0000 0.75000  0.75000  0.81690  Biso   1.000  C
  C225     1.0000 0.03038  0.03927  0.63326  Biso   1.000  C
  C226     1.0000 0.96962  0.96073  0.63326  Biso   1.000  C
  C227     1.0000 0.28038  0.21073  0.88326  Biso   1.000  C
  C228     1.0000 0.21962  0.28927  0.88326  Biso   1.000  C
  C229     1.0000 0.03038  0.53927  0.13326  Biso   1.000  C
  C230     1.0000 0.96962  0.46073  0.13326  Biso   1.000  C
  C231     1.0000 0.28038  0.71073  0.38326  Biso   1.000  C
  C232     1.0000 0.21962  0.78927  0.38326  Biso   1.000  C
  C233     1.0000 0.53038  0.03927  0.13326  Biso   1.000  C
  C234     1.0000 0.46962  0.96073  0.13326  Biso   1.000  C
  C235     1.0000 0.78038  0.21073  0.38326  Biso   1.000  C
  C236     1.0000 0.71962  0.28927  0.38326  Biso   1.000  C
  C237     1.0000 0.53038  0.53927  0.63326  Biso   1.000  C
  C238     1.0000 0.46962  0.46073  0.63326  Biso   1.000  C
  C239     1.0000 0.78038  0.71073  0.88326  Biso   1.000  C
  C240     1.0000 0.71962  0.78927  0.88326  Biso   1.000  C
  H161     1.0000 0.05100  0.06670  0.59390  Biso   1.000  H
  H162     1.0000 0.94900  0.93330  0.59390  Biso   1.000  H
  H163     1.0000 0.30100  0.18330  0.84390  Biso   1.000  H
  H164     1.0000 0.19900  0.31670  0.84390  Biso   1.000  H
  H165     1.0000 0.05100  0.56670  0.09390  Biso   1.000  H
  H166     1.0000 0.94900  0.43330  0.09390  Biso   1.000  H
  H167     1.0000 0.30100  0.68330  0.34390  Biso   1.000  H
  H168     1.0000 0.19900  0.81670  0.34390  Biso   1.000  H
  H169     1.0000 0.55100  0.06670  0.09390  Biso   1.000  H
  H170     1.0000 0.44900  0.93330  0.09390  Biso   1.000  H
  H171     1.0000 0.80100  0.18330  0.34390  Biso   1.000  H
  H172     1.0000 0.69900  0.31670  0.34390  Biso   1.000  H
  H173     1.0000 0.55100  0.56670  0.59390  Biso   1.000  H
  H174     1.0000 0.44900  0.43330  0.59390  Biso   1.000  H
  H175     1.0000 0.80100  0.68330  0.84390  Biso   1.000  H
  H176     1.0000 0.69900  0.81670  0.84390  Biso   1.000  H
  C241     1.0000 0.02979  0.03742  0.75644  Biso   1.000  C
  C242     1.0000 0.97021  0.96258  0.75644  Biso   1.000  C
  C243     1.0000 0.27979  0.21258  0.00644  Biso   1.000  C
  C244     1.0000 0.22021  0.28742  0.00644  Biso   1.000  C
  C245     1.0000 0.02979  0.53742  0.25644  Biso   1.000  C
  C246     1.0000 0.97021  0.46258  0.25644  Biso   1.000  C
  C247     1.0000 0.27979  0.71258  0.50644  Biso   1.000  C
  C248     1.0000 0.22021  0.78742  0.50644  Biso   1.000  C
  C249     1.0000 0.52979  0.03742  0.25644  Biso   1.000  C
  C250     1.0000 0.47021  0.96258  0.25644  Biso   1.000  C
  C251     1.0000 0.77979  0.21258  0.50644  Biso   1.000  C
  C252     1.0000 0.72021  0.28742  0.50644  Biso   1.000  C
  C253     1.0000 0.52979  0.53742  0.75644  Biso   1.000  C
  C254     1.0000 0.47021  0.46258  0.75644  Biso   1.000  C
  C255     1.0000 0.77979  0.71258  0.00644  Biso   1.000  C
  C256     1.0000 0.72021  0.78742  0.00644  Biso   1.000  C
  H177     1.0000 0.05130  0.06360  0.79860  Biso   1.000  H
  H178     1.0000 0.94870  0.93640  0.79860  Biso   1.000  H
  H179     1.0000 0.30130  0.18640  0.04860  Biso   1.000  H
  H180     1.0000 0.19870  0.31360  0.04860  Biso   1.000  H
  H181     1.0000 0.05130  0.56360  0.29860  Biso   1.000  H
  H182     1.0000 0.94870  0.43640  0.29860  Biso   1.000  H
  H183     1.0000 0.30130  0.68640  0.54860  Biso   1.000  H
  H184     1.0000 0.19870  0.81360  0.54860  Biso   1.000  H
  H185     1.0000 0.55130  0.06360  0.29860  Biso   1.000  H
  H186     1.0000 0.44870  0.93640  0.29860  Biso   1.000  H
  H187     1.0000 0.80130  0.18640  0.54860  Biso   1.000  H
  H188     1.0000 0.69870  0.31360  0.54860  Biso   1.000  H
  H189     1.0000 0.55130  0.56360  0.79860  Biso   1.000  H
  H190     1.0000 0.44870  0.43640  0.79860  Biso   1.000  H
  H191     1.0000 0.80130  0.68640  0.04860  Biso   1.000  H
  H192     1.0000 0.69870  0.81360  0.04860  Biso   1.000  H
