data_image0
_cell_length_a       18.7155
_cell_length_b       11.1512
_cell_length_c       15.2955
_cell_angle_alpha    90
_cell_angle_beta     110.939
_cell_angle_gamma    90

_symmetry_space_group_name_H-M    "P 1"
_symmetry_int_tables_number       1

loop_
  _symmetry_equiv_pos_as_xyz
  'x, y, z'

loop_
  _atom_site_label
  _atom_site_occupancy
  _atom_site_fract_x
  _atom_site_fract_y
  _atom_site_fract_z
  _atom_site_thermal_displace_type
  _atom_site_B_iso_or_equiv
  _atom_site_type_symbol
  Cu1      1.0000 0.00000  0.24261  0.25000  Biso   1.000  Cu
  Cu2      1.0000 0.50000  0.74261  0.25000  Biso   1.000  Cu
  Cu3      1.0000 0.00000  0.75739  0.75000  Biso   1.000  Cu
  Cu4      1.0000 0.50000  0.25739  0.75000  Biso   1.000  Cu
  O1       1.0000 0.94754  0.23917  0.11421  Biso   1.000  O
  O2       1.0000 0.05246  0.23917  0.38579  Biso   1.000  O
  O3       1.0000 0.44754  0.73917  0.11421  Biso   1.000  O
  O4       1.0000 0.55246  0.73917  0.38579  Biso   1.000  O
  O5       1.0000 0.05246  0.76083  0.88579  Biso   1.000  O
  O6       1.0000 0.94754  0.76083  0.61421  Biso   1.000  O
  O7       1.0000 0.55246  0.26083  0.88579  Biso   1.000  O
  O8       1.0000 0.44754  0.26083  0.61421  Biso   1.000  O
  N1       1.0000 0.84231  0.22497  0.92474  Biso   1.000  N
  N2       1.0000 0.15769  0.22497  0.57526  Biso   1.000  N
  N3       1.0000 0.34231  0.72497  0.92474  Biso   1.000  N
  N4       1.0000 0.65769  0.72497  0.57526  Biso   1.000  N
  N5       1.0000 0.15769  0.77503  0.07526  Biso   1.000  N
  N6       1.0000 0.84231  0.77503  0.42474  Biso   1.000  N
  N7       1.0000 0.65769  0.27503  0.07526  Biso   1.000  N
  N8       1.0000 0.34231  0.27503  0.42474  Biso   1.000  N
  O9       1.0000 0.03221  0.32044  0.05813  Biso   1.000  O
  O10      1.0000 0.96779  0.32044  0.44187  Biso   1.000  O
  O11      1.0000 0.53221  0.82044  0.05813  Biso   1.000  O
  O12      1.0000 0.46779  0.82044  0.44187  Biso   1.000  O
  O13      1.0000 0.96779  0.67956  0.94187  Biso   1.000  O
  O14      1.0000 0.03221  0.67956  0.55813  Biso   1.000  O
  O15      1.0000 0.46779  0.17956  0.94187  Biso   1.000  O
  O16      1.0000 0.53221  0.17956  0.55813  Biso   1.000  O
  N9       1.0000 0.78873  0.27085  0.84578  Biso   1.000  N
  N10      1.0000 0.21127  0.27085  0.65422  Biso   1.000  N
  N11      1.0000 0.28873  0.77085  0.84578  Biso   1.000  N
  N12      1.0000 0.71127  0.77085  0.65422  Biso   1.000  N
  N13      1.0000 0.21127  0.72915  0.15422  Biso   1.000  N
  N14      1.0000 0.78873  0.72915  0.34578  Biso   1.000  N
  N15      1.0000 0.71127  0.22915  0.15422  Biso   1.000  N
  N16      1.0000 0.28873  0.22915  0.34578  Biso   1.000  N
  C1       1.0000 0.96828  0.28354  0.05098  Biso   1.000  C
  C2       1.0000 0.03172  0.28354  0.44902  Biso   1.000  C
  C3       1.0000 0.46828  0.78354  0.05098  Biso   1.000  C
  C4       1.0000 0.53172  0.78354  0.44902  Biso   1.000  C
  C5       1.0000 0.03172  0.71646  0.94902  Biso   1.000  C
  C6       1.0000 0.96828  0.71646  0.55098  Biso   1.000  C
  C7       1.0000 0.53172  0.21646  0.94902  Biso   1.000  C
  C8       1.0000 0.46828  0.21646  0.55098  Biso   1.000  C
  C9       1.0000 0.88617  0.02278  0.97452  Biso   1.000  C
  C10      1.0000 0.11383  0.02278  0.52548  Biso   1.000  C
  C11      1.0000 0.38617  0.52278  0.97452  Biso   1.000  C
  C12      1.0000 0.61383  0.52278  0.52548  Biso   1.000  C
  C13      1.0000 0.11383  0.97722  0.02548  Biso   1.000  C
  C14      1.0000 0.88617  0.97722  0.47452  Biso   1.000  C
  C15      1.0000 0.61383  0.47722  0.02548  Biso   1.000  C
  C16      1.0000 0.38617  0.47722  0.47452  Biso   1.000  C
  H1       1.0000 0.93090  0.03860  0.96320  Biso   1.000  H
  H2       1.0000 0.06910  0.03860  0.53680  Biso   1.000  H
  H3       1.0000 0.43090  0.53860  0.96320  Biso   1.000  H
  H4       1.0000 0.56910  0.53860  0.53680  Biso   1.000  H
  H5       1.0000 0.06910  0.96140  0.03680  Biso   1.000  H
  H6       1.0000 0.93090  0.96140  0.46320  Biso   1.000  H
  H7       1.0000 0.56910  0.46140  0.03680  Biso   1.000  H
  H8       1.0000 0.43090  0.46140  0.46320  Biso   1.000  H
  C17      1.0000 0.83054  0.11016  0.95858  Biso   1.000  C
  C18      1.0000 0.16946  0.11016  0.54142  Biso   1.000  C
  C19      1.0000 0.33054  0.61016  0.95858  Biso   1.000  C
  C20      1.0000 0.66946  0.61016  0.54142  Biso   1.000  C
  C21      1.0000 0.16946  0.88984  0.04142  Biso   1.000  C
  C22      1.0000 0.83054  0.88984  0.45858  Biso   1.000  C
  C23      1.0000 0.66946  0.38984  0.04142  Biso   1.000  C
  C24      1.0000 0.33054  0.38984  0.45858  Biso   1.000  C
  C25      1.0000 0.90438  0.29893  0.95824  Biso   1.000  C
  C26      1.0000 0.09562  0.29893  0.54176  Biso   1.000  C
  C27      1.0000 0.40438  0.79893  0.95824  Biso   1.000  C
  C28      1.0000 0.59562  0.79893  0.54176  Biso   1.000  C
  C29      1.0000 0.09562  0.70107  0.04176  Biso   1.000  C
  C30      1.0000 0.90438  0.70107  0.45824  Biso   1.000  C
  C31      1.0000 0.59562  0.20107  0.04176  Biso   1.000  C
  C32      1.0000 0.40438  0.20107  0.45824  Biso   1.000  C
  C33      1.0000 0.81748  0.37486  0.83117  Biso   1.000  C
  C34      1.0000 0.18252  0.37486  0.66883  Biso   1.000  C
  C35      1.0000 0.31748  0.87486  0.83117  Biso   1.000  C
  C36      1.0000 0.68252  0.87486  0.66883  Biso   1.000  C
  C37      1.0000 0.18252  0.62514  0.16883  Biso   1.000  C
  C38      1.0000 0.81748  0.62514  0.33117  Biso   1.000  C
  C39      1.0000 0.68252  0.12514  0.16883  Biso   1.000  C
  C40      1.0000 0.31748  0.12514  0.33117  Biso   1.000  C
  C41      1.0000 0.89011  0.39542  0.89889  Biso   1.000  C
  C42      1.0000 0.10989  0.39542  0.60111  Biso   1.000  C
  C43      1.0000 0.39011  0.89542  0.89889  Biso   1.000  C
  C44      1.0000 0.60989  0.89542  0.60111  Biso   1.000  C
  C45      1.0000 0.10989  0.60458  0.10111  Biso   1.000  C
  C46      1.0000 0.89011  0.60458  0.39889  Biso   1.000  C
  C47      1.0000 0.60989  0.10458  0.10111  Biso   1.000  C
  C48      1.0000 0.39011  0.10458  0.39889  Biso   1.000  C
  H9       1.0000 0.92190  0.46080  0.90270  Biso   1.000  H
  H10      1.0000 0.07810  0.46080  0.59730  Biso   1.000  H
  H11      1.0000 0.42190  0.96080  0.90270  Biso   1.000  H
  H12      1.0000 0.57810  0.96080  0.59730  Biso   1.000  H
  H13      1.0000 0.07810  0.53920  0.09730  Biso   1.000  H
  H14      1.0000 0.92190  0.53920  0.40270  Biso   1.000  H
  H15      1.0000 0.57810  0.03920  0.09730  Biso   1.000  H
  H16      1.0000 0.42190  0.03920  0.40270  Biso   1.000  H
  C49      1.0000 0.76342  0.08744  0.97343  Biso   1.000  C
  C50      1.0000 0.23658  0.08744  0.52657  Biso   1.000  C
  C51      1.0000 0.26342  0.58744  0.97343  Biso   1.000  C
  C52      1.0000 0.73658  0.58744  0.52657  Biso   1.000  C
  C53      1.0000 0.23658  0.91256  0.02657  Biso   1.000  C
  C54      1.0000 0.76342  0.91256  0.47343  Biso   1.000  C
  C55      1.0000 0.73658  0.41256  0.02657  Biso   1.000  C
  C56      1.0000 0.26342  0.41256  0.47343  Biso   1.000  C
  H17      1.0000 0.72580  0.14610  0.96120  Biso   1.000  H
  H18      1.0000 0.27420  0.14610  0.53880  Biso   1.000  H
  H19      1.0000 0.22580  0.64610  0.96120  Biso   1.000  H
  H20      1.0000 0.77420  0.64610  0.53880  Biso   1.000  H
  H21      1.0000 0.27420  0.85390  0.03880  Biso   1.000  H
  H22      1.0000 0.72580  0.85390  0.46120  Biso   1.000  H
  H23      1.0000 0.77420  0.35390  0.03880  Biso   1.000  H
  H24      1.0000 0.22580  0.35390  0.46120  Biso   1.000  H
  C57      1.0000 0.77189  0.45530  0.75258  Biso   1.000  C
  C58      1.0000 0.22811  0.45530  0.74742  Biso   1.000  C
  C59      1.0000 0.27189  0.95530  0.75258  Biso   1.000  C
  C60      1.0000 0.72811  0.95530  0.74742  Biso   1.000  C
  C61      1.0000 0.22811  0.54470  0.24742  Biso   1.000  C
  C62      1.0000 0.77189  0.54470  0.25258  Biso   1.000  C
  C63      1.0000 0.72811  0.04470  0.24742  Biso   1.000  C
  C64      1.0000 0.27189  0.04470  0.25258  Biso   1.000  C
  H25      1.0000 0.73870  0.40770  0.70210  Biso   1.000  H
  H26      1.0000 0.26130  0.40770  0.79790  Biso   1.000  H
  H27      1.0000 0.23870  0.90770  0.70210  Biso   1.000  H
  H28      1.0000 0.76130  0.90770  0.79790  Biso   1.000  H
  H29      1.0000 0.26130  0.59230  0.29790  Biso   1.000  H
  H30      1.0000 0.73870  0.59230  0.20210  Biso   1.000  H
  H31      1.0000 0.76130  0.09230  0.29790  Biso   1.000  H
  H32      1.0000 0.23870  0.09230  0.20210  Biso   1.000  H
  H33      1.0000 0.80600  0.50080  0.73110  Biso   1.000  H
  H34      1.0000 0.19400  0.50080  0.76890  Biso   1.000  H
  H35      1.0000 0.30600  0.00080  0.73110  Biso   1.000  H
  H36      1.0000 0.69400  0.00080  0.76890  Biso   1.000  H
  H37      1.0000 0.19400  0.49920  0.26890  Biso   1.000  H
  H38      1.0000 0.80600  0.49920  0.23110  Biso   1.000  H
  H39      1.0000 0.69400  0.99920  0.26890  Biso   1.000  H
  H40      1.0000 0.30600  0.99920  0.23110  Biso   1.000  H
  H41      1.0000 0.74180  0.50910  0.77430  Biso   1.000  H
  H42      1.0000 0.25820  0.50910  0.72570  Biso   1.000  H
  H43      1.0000 0.24180  0.00910  0.77430  Biso   1.000  H
  H44      1.0000 0.75820  0.00910  0.72570  Biso   1.000  H
  H45      1.0000 0.25820  0.49090  0.22570  Biso   1.000  H
  H46      1.0000 0.74180  0.49090  0.27430  Biso   1.000  H
  H47      1.0000 0.75820  0.99090  0.22570  Biso   1.000  H
  H48      1.0000 0.24180  0.99090  0.27430  Biso   1.000  H
  C65      1.0000 0.75273  0.97580  0.00683  Biso   1.000  C
  C66      1.0000 0.24727  0.97580  0.49317  Biso   1.000  C
  C67      1.0000 0.25273  0.47580  0.00683  Biso   1.000  C
  C68      1.0000 0.74727  0.47580  0.49317  Biso   1.000  C
  C69      1.0000 0.24727  0.02420  0.99317  Biso   1.000  C
  C70      1.0000 0.75273  0.02420  0.50683  Biso   1.000  C
  C71      1.0000 0.74727  0.52420  0.99317  Biso   1.000  C
  C72      1.0000 0.25273  0.52420  0.50683  Biso   1.000  C
  H49      1.0000 0.70780  0.95950  0.01760  Biso   1.000  H
  H50      1.0000 0.29220  0.95950  0.48240  Biso   1.000  H
  H51      1.0000 0.20780  0.45950  0.01760  Biso   1.000  H
  H52      1.0000 0.79220  0.45950  0.48240  Biso   1.000  H
  H53      1.0000 0.29220  0.04050  0.98240  Biso   1.000  H
  H54      1.0000 0.70780  0.04050  0.51760  Biso   1.000  H
  H55      1.0000 0.79220  0.54050  0.98240  Biso   1.000  H
  H56      1.0000 0.20780  0.54050  0.51760  Biso   1.000  H
  C73      1.0000 0.87462  0.91162  0.00741  Biso   1.000  C
  C74      1.0000 0.12538  0.91162  0.49259  Biso   1.000  C
  C75      1.0000 0.37462  0.41162  0.00741  Biso   1.000  C
  C76      1.0000 0.62538  0.41162  0.49259  Biso   1.000  C
  C77      1.0000 0.12538  0.08838  0.99259  Biso   1.000  C
  C78      1.0000 0.87462  0.08838  0.50741  Biso   1.000  C
  C79      1.0000 0.62538  0.58838  0.99259  Biso   1.000  C
  C80      1.0000 0.37462  0.58838  0.50741  Biso   1.000  C
  H57      1.0000 0.91160  0.85220  0.01820  Biso   1.000  H
  H58      1.0000 0.08840  0.85220  0.48180  Biso   1.000  H
  H59      1.0000 0.41160  0.35220  0.01820  Biso   1.000  H
  H60      1.0000 0.58840  0.35220  0.48180  Biso   1.000  H
  H61      1.0000 0.08840  0.14780  0.98180  Biso   1.000  H
  H62      1.0000 0.91160  0.14780  0.51820  Biso   1.000  H
  H63      1.0000 0.58840  0.64780  0.98180  Biso   1.000  H
  H64      1.0000 0.41160  0.64780  0.51820  Biso   1.000  H
  C81      1.0000 0.80838  0.88911  0.02409  Biso   1.000  C
  C82      1.0000 0.19162  0.88911  0.47591  Biso   1.000  C
  C83      1.0000 0.30838  0.38911  0.02409  Biso   1.000  C
  C84      1.0000 0.69162  0.38911  0.47591  Biso   1.000  C
  C85      1.0000 0.19162  0.11089  0.97591  Biso   1.000  C
  C86      1.0000 0.80838  0.11089  0.52409  Biso   1.000  C
  C87      1.0000 0.69162  0.61089  0.97591  Biso   1.000  C
  C88      1.0000 0.30838  0.61089  0.52409  Biso   1.000  C
  H65      1.0000 0.80120  0.81480  0.04720  Biso   1.000  H
  H66      1.0000 0.19880  0.81480  0.45280  Biso   1.000  H
  H67      1.0000 0.30120  0.31480  0.04720  Biso   1.000  H
  H68      1.0000 0.69880  0.31480  0.45280  Biso   1.000  H
  H69      1.0000 0.19880  0.18520  0.95280  Biso   1.000  H
  H70      1.0000 0.80120  0.18520  0.54720  Biso   1.000  H
  H71      1.0000 0.69880  0.68520  0.95280  Biso   1.000  H
  H72      1.0000 0.30120  0.68520  0.54720  Biso   1.000  H
  N17      1.0000 0.00000  0.06014  0.25000  Biso   1.000  N
  N18      1.0000 0.50000  0.56014  0.25000  Biso   1.000  N
  N19      1.0000 0.00000  0.93986  0.75000  Biso   1.000  N
  N20      1.0000 0.50000  0.43986  0.75000  Biso   1.000  N
  C89      1.0000 0.94212  0.99802  0.25825  Biso   1.000  C
  C90      1.0000 0.05788  0.99802  0.24175  Biso   1.000  C
  C91      1.0000 0.44212  0.49802  0.25825  Biso   1.000  C
  C92      1.0000 0.55788  0.49802  0.24175  Biso   1.000  C
  C93      1.0000 0.05788  0.00198  0.74175  Biso   1.000  C
  C94      1.0000 0.94212  0.00198  0.75825  Biso   1.000  C
  C95      1.0000 0.55788  0.50198  0.74175  Biso   1.000  C
  C96      1.0000 0.44212  0.50198  0.75825  Biso   1.000  C
  H73      1.0000 0.90120  0.04000  0.26440  Biso   1.000  H
  H74      1.0000 0.09880  0.04000  0.23560  Biso   1.000  H
  H75      1.0000 0.40120  0.54000  0.26440  Biso   1.000  H
  H76      1.0000 0.59880  0.54000  0.23560  Biso   1.000  H
  H77      1.0000 0.09880  0.96000  0.73560  Biso   1.000  H
  H78      1.0000 0.90120  0.96000  0.76440  Biso   1.000  H
  H79      1.0000 0.59880  0.46000  0.73560  Biso   1.000  H
  H80      1.0000 0.40120  0.46000  0.76440  Biso   1.000  H
  C97      1.0000 0.93972  0.87441  0.25820  Biso   1.000  C
  C98      1.0000 0.06028  0.87441  0.24180  Biso   1.000  C
  C99      1.0000 0.43972  0.37441  0.25820  Biso   1.000  C
  C100     1.0000 0.56028  0.37441  0.24180  Biso   1.000  C
  C101     1.0000 0.06028  0.12559  0.74180  Biso   1.000  C
  C102     1.0000 0.93972  0.12559  0.75820  Biso   1.000  C
  C103     1.0000 0.56028  0.62559  0.74180  Biso   1.000  C
  C104     1.0000 0.43972  0.62559  0.75820  Biso   1.000  C
  H81      1.0000 0.89780  0.83480  0.26370  Biso   1.000  H
  H82      1.0000 0.10220  0.83480  0.23630  Biso   1.000  H
  H83      1.0000 0.39780  0.33480  0.26370  Biso   1.000  H
  H84      1.0000 0.60220  0.33480  0.23630  Biso   1.000  H
  H85      1.0000 0.10220  0.16520  0.73630  Biso   1.000  H
  H86      1.0000 0.89780  0.16520  0.76370  Biso   1.000  H
  H87      1.0000 0.60220  0.66520  0.73630  Biso   1.000  H
  H88      1.0000 0.39780  0.66520  0.76370  Biso   1.000  H
  C105     1.0000 0.00000  0.80992  0.25000  Biso   1.000  C
  C106     1.0000 0.50000  0.30992  0.25000  Biso   1.000  C
  C107     1.0000 0.00000  0.19008  0.75000  Biso   1.000  C
  C108     1.0000 0.50000  0.69008  0.75000  Biso   1.000  C
  C109     1.0000 0.00000  0.67691  0.25000  Biso   1.000  C
  C110     1.0000 0.50000  0.17691  0.25000  Biso   1.000  C
  C111     1.0000 0.00000  0.32309  0.75000  Biso   1.000  C
  C112     1.0000 0.50000  0.82309  0.75000  Biso   1.000  C
  C113     1.0000 0.93931  0.61204  0.18995  Biso   1.000  C
  C114     1.0000 0.06069  0.61204  0.31005  Biso   1.000  C
  C115     1.0000 0.43931  0.11204  0.18995  Biso   1.000  C
  C116     1.0000 0.56069  0.11204  0.31005  Biso   1.000  C
  C117     1.0000 0.06069  0.38796  0.81005  Biso   1.000  C
  C118     1.0000 0.93931  0.38796  0.68995  Biso   1.000  C
  C119     1.0000 0.56069  0.88796  0.81005  Biso   1.000  C
  C120     1.0000 0.43931  0.88796  0.68995  Biso   1.000  C
  H89      1.0000 0.89710  0.65170  0.14840  Biso   1.000  H
  H90      1.0000 0.10290  0.65170  0.35160  Biso   1.000  H
  H91      1.0000 0.39710  0.15170  0.14840  Biso   1.000  H
  H92      1.0000 0.60290  0.15170  0.35160  Biso   1.000  H
  H93      1.0000 0.10290  0.34830  0.85160  Biso   1.000  H
  H94      1.0000 0.89710  0.34830  0.64840  Biso   1.000  H
  H95      1.0000 0.60290  0.84830  0.85160  Biso   1.000  H
  H96      1.0000 0.39710  0.84830  0.64840  Biso   1.000  H
  C121     1.0000 0.94144  0.48853  0.19173  Biso   1.000  C
  C122     1.0000 0.05856  0.48853  0.30827  Biso   1.000  C
  C123     1.0000 0.44144  0.98853  0.19173  Biso   1.000  C
  C124     1.0000 0.55856  0.98853  0.30827  Biso   1.000  C
  C125     1.0000 0.05856  0.51147  0.80827  Biso   1.000  C
  C126     1.0000 0.94144  0.51147  0.69173  Biso   1.000  C
  C127     1.0000 0.55856  0.01147  0.80827  Biso   1.000  C
  C128     1.0000 0.44144  0.01147  0.69173  Biso   1.000  C
  H97      1.0000 0.90020  0.44660  0.15040  Biso   1.000  H
  H98      1.0000 0.09980  0.44660  0.34960  Biso   1.000  H
  H99      1.0000 0.40020  0.94660  0.15040  Biso   1.000  H
  H100     1.0000 0.59980  0.94660  0.34960  Biso   1.000  H
  H101     1.0000 0.09980  0.55340  0.84960  Biso   1.000  H
  H102     1.0000 0.90020  0.55340  0.65040  Biso   1.000  H
  H103     1.0000 0.59980  0.05340  0.84960  Biso   1.000  H
  H104     1.0000 0.40020  0.05340  0.65040  Biso   1.000  H
  N21      1.0000 0.00000  0.42639  0.25000  Biso   1.000  N
  N22      1.0000 0.50000  0.92639  0.25000  Biso   1.000  N
  N23      1.0000 0.00000  0.57361  0.75000  Biso   1.000  N
  N24      1.0000 0.50000  0.07361  0.75000  Biso   1.000  N
  O17      1.0000 0.12452  0.25516  0.23620  Biso   1.000  O
  O18      1.0000 0.87548  0.25516  0.26380  Biso   1.000  O
  O19      1.0000 0.62452  0.75516  0.23620  Biso   1.000  O
  O20      1.0000 0.37548  0.75516  0.26380  Biso   1.000  O
  O21      1.0000 0.87548  0.74484  0.76380  Biso   1.000  O
  O22      1.0000 0.12452  0.74484  0.73620  Biso   1.000  O
  O23      1.0000 0.37548  0.24484  0.76380  Biso   1.000  O
  O24      1.0000 0.62452  0.24484  0.73620  Biso   1.000  O
  H105     1.0000 0.17160  0.26320  0.26800  Biso   1.000  H
  H106     1.0000 0.82840  0.26320  0.23200  Biso   1.000  H
  H107     1.0000 0.67160  0.76320  0.26800  Biso   1.000  H
  H108     1.0000 0.32840  0.76320  0.23200  Biso   1.000  H
  H109     1.0000 0.82840  0.73680  0.73200  Biso   1.000  H
  H110     1.0000 0.17160  0.73680  0.76800  Biso   1.000  H
  H111     1.0000 0.32840  0.23680  0.73200  Biso   1.000  H
  H112     1.0000 0.67160  0.23680  0.76800  Biso   1.000  H
  H113     1.0000 0.12060  0.28840  0.18690  Biso   1.000  H
  H114     1.0000 0.87940  0.28840  0.31310  Biso   1.000  H
  H115     1.0000 0.62060  0.78840  0.18690  Biso   1.000  H
  H116     1.0000 0.37940  0.78840  0.31310  Biso   1.000  H
  H117     1.0000 0.87940  0.71160  0.81310  Biso   1.000  H
  H118     1.0000 0.12060  0.71160  0.68690  Biso   1.000  H
  H119     1.0000 0.37940  0.21160  0.81310  Biso   1.000  H
  H120     1.0000 0.62060  0.21160  0.68690  Biso   1.000  H
