data_image0
_cell_length_a       12.632
_cell_length_b       14.783
_cell_length_c       14.48
_cell_angle_alpha    90
_cell_angle_beta     98.42
_cell_angle_gamma    90

_symmetry_space_group_name_H-M    "P 1"
_symmetry_int_tables_number       1

loop_
  _symmetry_equiv_pos_as_xyz
  'x, y, z'

loop_
  _atom_site_label
  _atom_site_occupancy
  _atom_site_fract_x
  _atom_site_fract_y
  _atom_site_fract_z
  _atom_site_thermal_displace_type
  _atom_site_B_iso_or_equiv
  _atom_site_type_symbol
  Cu1      1.0000 0.36790  0.40430  0.75510  Biso   1.000  Cu
  Cu2      1.0000 0.13210  0.90430  0.24490  Biso   1.000  Cu
  Cu3      1.0000 0.63210  0.59570  0.24490  Biso   1.000  Cu
  Cu4      1.0000 0.86790  0.09570  0.75510  Biso   1.000  Cu
  Cl1      1.0000 0.33060  0.71330  0.97040  Biso   1.000  Cl
  Cl2      1.0000 0.16940  0.21330  0.02960  Biso   1.000  Cl
  Cl3      1.0000 0.66940  0.28670  0.02960  Biso   1.000  Cl
  Cl4      1.0000 0.83060  0.78670  0.97040  Biso   1.000  Cl
  Cl5      1.0000 0.46530  0.09300  0.72370  Biso   1.000  Cl
  Cl6      1.0000 0.03470  0.59300  0.27630  Biso   1.000  Cl
  Cl7      1.0000 0.53470  0.90700  0.27630  Biso   1.000  Cl
  Cl8      1.0000 0.96530  0.40700  0.72370  Biso   1.000  Cl
  S1       1.0000 0.04820  0.07080  0.62680  Biso   1.000  S
  S2       1.0000 0.45180  0.57080  0.37320  Biso   1.000  S
  S3       1.0000 0.95180  0.92920  0.37320  Biso   1.000  S
  S4       1.0000 0.54820  0.42920  0.62680  Biso   1.000  S
  S5       1.0000 0.26640  0.36200  0.53240  Biso   1.000  S
  S6       1.0000 0.23360  0.86200  0.46760  Biso   1.000  S
  S7       1.0000 0.73360  0.63800  0.46760  Biso   1.000  S
  S8       1.0000 0.76640  0.13800  0.53240  Biso   1.000  S
  O1       1.0000 0.31140  0.69410  0.87640  Biso   1.000  O
  O2       1.0000 0.18860  0.19410  0.12360  Biso   1.000  O
  O3       1.0000 0.68860  0.30590  0.12360  Biso   1.000  O
  O4       1.0000 0.81140  0.80590  0.87640  Biso   1.000  O
  O5       1.0000 0.23400  0.73230  0.00040  Biso   1.000  O
  O6       1.0000 0.26600  0.23230  0.99960  Biso   1.000  O
  O7       1.0000 0.76600  0.26770  0.99960  Biso   1.000  O
  O8       1.0000 0.73400  0.76770  0.00040  Biso   1.000  O
  O9       1.0000 0.38050  0.63890  0.02230  Biso   1.000  O
  O10      1.0000 0.11950  0.13890  0.97770  Biso   1.000  O
  O11      1.0000 0.61950  0.36110  0.97770  Biso   1.000  O
  O12      1.0000 0.88050  0.86110  0.02230  Biso   1.000  O
  O13      1.0000 0.39500  0.78680  0.98730  Biso   1.000  O
  O14      1.0000 0.10500  0.28680  0.01270  Biso   1.000  O
  O15      1.0000 0.60500  0.21320  0.01270  Biso   1.000  O
  O16      1.0000 0.89500  0.71320  0.98730  Biso   1.000  O
  O17      1.0000 0.48900  0.12950  0.81000  Biso   1.000  O
  O18      1.0000 0.01100  0.62950  0.19000  Biso   1.000  O
  O19      1.0000 0.51100  0.87050  0.19000  Biso   1.000  O
  O20      1.0000 0.98900  0.37050  0.81000  Biso   1.000  O
  O21      1.0000 0.43300  0.16540  0.66620  Biso   1.000  O
  O22      1.0000 0.06700  0.66540  0.33380  Biso   1.000  O
  O23      1.0000 0.56700  0.83460  0.33380  Biso   1.000  O
  O24      1.0000 0.93300  0.33460  0.66620  Biso   1.000  O
  O25      1.0000 0.38310  0.03470  0.71600  Biso   1.000  O
  O26      1.0000 0.11690  0.53470  0.28400  Biso   1.000  O
  O27      1.0000 0.61690  0.96530  0.28400  Biso   1.000  O
  O28      1.0000 0.88310  0.46530  0.71600  Biso   1.000  O
  O29      1.0000 0.54730  0.04900  0.69500  Biso   1.000  O
  O30      1.0000 0.95270  0.54900  0.30500  Biso   1.000  O
  O31      1.0000 0.45270  0.95100  0.30500  Biso   1.000  O
  O32      1.0000 0.04730  0.45100  0.69500  Biso   1.000  O
  O33      1.0000 0.45010  0.31160  0.83570  Biso   1.000  O
  O34      1.0000 0.04990  0.81160  0.16430  Biso   1.000  O
  O35      1.0000 0.54990  0.68840  0.16430  Biso   1.000  O
  O36      1.0000 0.95010  0.18840  0.83570  Biso   1.000  O
  O37      1.0000 0.51780  0.28050  0.35160  Biso   1.000  O
  O38      1.0000 0.98220  0.78050  0.64840  Biso   1.000  O
  O39      1.0000 0.48220  0.71950  0.64840  Biso   1.000  O
  O40      1.0000 0.01780  0.21950  0.35160  Biso   1.000  O
  O41      1.0000 0.50800  0.19200  0.24900  Biso   1.000  O
  O42      1.0000 0.99200  0.69200  0.75100  Biso   1.000  O
  O43      1.0000 0.49200  0.80800  0.75100  Biso   1.000  O
  O44      1.0000 0.00800  0.30800  0.24900  Biso   1.000  O
  N1       1.0000 0.29110  0.49340  0.66380  Biso   1.000  N
  N2       1.0000 0.20890  0.99340  0.33620  Biso   1.000  N
  N3       1.0000 0.70890  0.50660  0.33620  Biso   1.000  N
  N4       1.0000 0.79110  0.00660  0.66380  Biso   1.000  N
  N5       1.0000 0.26150  0.30800  0.70990  Biso   1.000  N
  N6       1.0000 0.23850  0.80800  0.29010  Biso   1.000  N
  N7       1.0000 0.73850  0.69200  0.29010  Biso   1.000  N
  N8       1.0000 0.76150  0.19200  0.70990  Biso   1.000  N
  N9       1.0000 0.16490  0.17930  0.75010  Biso   1.000  N
  N10      1.0000 0.33510  0.67930  0.24990  Biso   1.000  N
  N11      1.0000 0.83510  0.82070  0.24990  Biso   1.000  N
  N12      1.0000 0.66490  0.32070  0.75010  Biso   1.000  N
  N13      1.0000 0.99310  0.01000  0.78820  Biso   1.000  N
  N14      1.0000 0.50690  0.51000  0.21180  Biso   1.000  N
  N15      1.0000 0.00690  0.99000  0.21180  Biso   1.000  N
  N16      1.0000 0.49310  0.49000  0.78820  Biso   1.000  N
  N17      1.0000 0.27870  0.45020  0.87130  Biso   1.000  N
  N18      1.0000 0.22130  0.95020  0.12870  Biso   1.000  N
  N19      1.0000 0.72130  0.54980  0.12870  Biso   1.000  N
  N20      1.0000 0.77870  0.04980  0.87130  Biso   1.000  N
  C1       1.0000 0.27490  0.57720  0.69230  Biso   1.000  C
  C2       1.0000 0.22510  0.07720  0.30770  Biso   1.000  C
  C3       1.0000 0.72510  0.42280  0.30770  Biso   1.000  C
  C4       1.0000 0.77490  0.92280  0.69230  Biso   1.000  C
  C5       1.0000 0.21740  0.64220  0.63940  Biso   1.000  C
  C6       1.0000 0.28260  0.14220  0.36060  Biso   1.000  C
  C7       1.0000 0.78260  0.35780  0.36060  Biso   1.000  C
  C8       1.0000 0.71740  0.85780  0.63940  Biso   1.000  C
  C9       1.0000 0.17100  0.61830  0.55200  Biso   1.000  C
  C10      1.0000 0.32900  0.11830  0.44800  Biso   1.000  C
  C11      1.0000 0.82900  0.38170  0.44800  Biso   1.000  C
  C12      1.0000 0.67100  0.88170  0.55200  Biso   1.000  C
  C13      1.0000 0.18440  0.53210  0.51860  Biso   1.000  C
  C14      1.0000 0.31560  0.03210  0.48140  Biso   1.000  C
  C15      1.0000 0.81560  0.46790  0.48140  Biso   1.000  C
  C16      1.0000 0.68440  0.96790  0.51860  Biso   1.000  C
  C17      1.0000 0.24470  0.47150  0.57770  Biso   1.000  C
  C18      1.0000 0.25530  0.97150  0.42230  Biso   1.000  C
  C19      1.0000 0.75530  0.52850  0.42230  Biso   1.000  C
  C20      1.0000 0.74470  0.02850  0.57770  Biso   1.000  C
  C21      1.0000 0.22420  0.29260  0.61970  Biso   1.000  C
  C22      1.0000 0.27580  0.79260  0.38030  Biso   1.000  C
  C23      1.0000 0.77580  0.70740  0.38030  Biso   1.000  C
  C24      1.0000 0.72420  0.20740  0.61970  Biso   1.000  C
  C25      1.0000 0.22810  0.25020  0.77050  Biso   1.000  C
  C26      1.0000 0.27190  0.75020  0.22950  Biso   1.000  C
  C27      1.0000 0.77190  0.74980  0.22950  Biso   1.000  C
  C28      1.0000 0.72810  0.24980  0.77050  Biso   1.000  C
  C29      1.0000 0.13150  0.16430  0.66030  Biso   1.000  C
  C30      1.0000 0.36850  0.66430  0.33970  Biso   1.000  C
  C31      1.0000 0.86850  0.83570  0.33970  Biso   1.000  C
  C32      1.0000 0.63150  0.33570  0.66030  Biso   1.000  C
  C33      1.0000 0.15690  0.22270  0.59080  Biso   1.000  C
  C34      1.0000 0.34310  0.72270  0.40920  Biso   1.000  C
  C35      1.0000 0.84310  0.77730  0.40920  Biso   1.000  C
  C36      1.0000 0.65690  0.27730  0.59080  Biso   1.000  C
  C37      1.0000 0.06890  0.00600  0.73220  Biso   1.000  C
  C38      1.0000 0.43110  0.50600  0.26780  Biso   1.000  C
  C39      1.0000 0.93110  0.99400  0.26780  Biso   1.000  C
  C40      1.0000 0.56890  0.49400  0.73220  Biso   1.000  C
  C41      1.0000 0.15910  0.95290  0.75150  Biso   1.000  C
  C42      1.0000 0.34090  0.45290  0.24850  Biso   1.000  C
  C43      1.0000 0.84090  0.04710  0.24850  Biso   1.000  C
  C44      1.0000 0.65910  0.54710  0.75150  Biso   1.000  C
  C45      1.0000 0.16940  0.90130  0.83210  Biso   1.000  C
  C46      1.0000 0.33060  0.40130  0.16790  Biso   1.000  C
  C47      1.0000 0.83060  0.09870  0.16790  Biso   1.000  C
  C48      1.0000 0.66940  0.59870  0.83210  Biso   1.000  C
  C49      1.0000 0.09410  0.90420  0.88910  Biso   1.000  C
  C50      1.0000 0.40590  0.40420  0.11090  Biso   1.000  C
  C51      1.0000 0.90590  0.09580  0.11090  Biso   1.000  C
  C52      1.0000 0.59410  0.59580  0.88910  Biso   1.000  C
  C53      1.0000 0.00650  0.95960  0.86460  Biso   1.000  C
  C54      1.0000 0.49350  0.45960  0.13540  Biso   1.000  C
  C55      1.0000 0.99350  0.04040  0.13540  Biso   1.000  C
  C56      1.0000 0.50650  0.54040  0.86460  Biso   1.000  C
  C57      1.0000 0.21720  0.47430  0.91430  Biso   1.000  C
  C58      1.0000 0.28280  0.97430  0.08570  Biso   1.000  C
  C59      1.0000 0.78280  0.52570  0.08570  Biso   1.000  C
  C60      1.0000 0.71720  0.02570  0.91430  Biso   1.000  C
  C61      1.0000 0.13700  0.50420  0.97170  Biso   1.000  C
  C62      1.0000 0.36300  0.00420  0.02830  Biso   1.000  C
  C63      1.0000 0.86300  0.49580  0.02830  Biso   1.000  C
  C64      1.0000 0.63700  0.99580  0.97170  Biso   1.000  C
  H1       1.0000 0.30580  0.59330  0.75390  Biso   1.000  H
  H2       1.0000 0.19420  0.09330  0.24610  Biso   1.000  H
  H3       1.0000 0.69420  0.40670  0.24610  Biso   1.000  H
  H4       1.0000 0.80580  0.90670  0.75390  Biso   1.000  H
  H5       1.0000 0.20970  0.70150  0.66290  Biso   1.000  H
  H6       1.0000 0.29030  0.20150  0.33710  Biso   1.000  H
  H7       1.0000 0.79030  0.29850  0.33710  Biso   1.000  H
  H8       1.0000 0.70970  0.79850  0.66290  Biso   1.000  H
  H9       1.0000 0.13040  0.66120  0.51310  Biso   1.000  H
  H10      1.0000 0.36960  0.16120  0.48690  Biso   1.000  H
  H11      1.0000 0.86960  0.33880  0.48690  Biso   1.000  H
  H12      1.0000 0.63040  0.83880  0.51310  Biso   1.000  H
  H13      1.0000 0.15320  0.51480  0.45750  Biso   1.000  H
  H14      1.0000 0.34680  0.01480  0.54250  Biso   1.000  H
  H15      1.0000 0.84680  0.48520  0.54250  Biso   1.000  H
  H16      1.0000 0.65320  0.98520  0.45750  Biso   1.000  H
  H17      1.0000 0.25250  0.26100  0.83470  Biso   1.000  H
  H18      1.0000 0.24750  0.76100  0.16530  Biso   1.000  H
  H19      1.0000 0.74750  0.73900  0.16530  Biso   1.000  H
  H20      1.0000 0.75250  0.23900  0.83470  Biso   1.000  H
  H21      1.0000 0.12870  0.21420  0.52690  Biso   1.000  H
  H22      1.0000 0.37130  0.71420  0.47310  Biso   1.000  H
  H23      1.0000 0.87130  0.78580  0.47310  Biso   1.000  H
  H24      1.0000 0.62870  0.28580  0.52690  Biso   1.000  H
  H25      1.0000 0.21210  0.95180  0.71110  Biso   1.000  H
  H26      1.0000 0.28790  0.45180  0.28890  Biso   1.000  H
  H27      1.0000 0.78790  0.04820  0.28890  Biso   1.000  H
  H28      1.0000 0.71210  0.54820  0.71110  Biso   1.000  H
  H29      1.0000 0.23020  0.86360  0.84730  Biso   1.000  H
  H30      1.0000 0.26980  0.36360  0.15270  Biso   1.000  H
  H31      1.0000 0.76980  0.13640  0.15270  Biso   1.000  H
  H32      1.0000 0.73020  0.63640  0.84730  Biso   1.000  H
  H33      1.0000 0.10110  0.86910  0.94460  Biso   1.000  H
  H34      1.0000 0.39890  0.36910  0.05540  Biso   1.000  H
  H35      1.0000 0.89890  0.13090  0.05540  Biso   1.000  H
  H36      1.0000 0.60110  0.63090  0.94460  Biso   1.000  H
  H37      1.0000 0.95310  0.96150  0.90440  Biso   1.000  H
  H38      1.0000 0.54690  0.46150  0.09560  Biso   1.000  H
  H39      1.0000 0.04690  0.03850  0.09560  Biso   1.000  H
  H40      1.0000 0.45310  0.53850  0.90440  Biso   1.000  H
  H41      1.0000 0.14960  0.56590  0.98890  Biso   1.000  H
  H42      1.0000 0.35040  0.06590  0.01110  Biso   1.000  H
  H43      1.0000 0.85040  0.43410  0.01110  Biso   1.000  H
  H44      1.0000 0.64960  0.93410  0.98890  Biso   1.000  H
  H45      1.0000 0.06750  0.49820  0.93730  Biso   1.000  H
  H46      1.0000 0.43250  0.99820  0.06270  Biso   1.000  H
  H47      1.0000 0.93250  0.50180  0.06270  Biso   1.000  H
  H48      1.0000 0.56750  0.00180  0.93730  Biso   1.000  H
  H49      1.0000 0.14230  0.46820  0.02670  Biso   1.000  H
  H50      1.0000 0.35770  0.96820  0.97330  Biso   1.000  H
  H51      1.0000 0.85770  0.53180  0.97330  Biso   1.000  H
  H52      1.0000 0.64230  0.03180  0.02670  Biso   1.000  H
  H53      1.0000 0.47530  0.23440  0.30530  Biso   1.000  H
  H54      1.0000 0.02470  0.73440  0.69470  Biso   1.000  H
  H55      1.0000 0.52470  0.76560  0.69470  Biso   1.000  H
  H56      1.0000 0.97530  0.26560  0.30530  Biso   1.000  H
  H57      1.0000 0.57320  0.20900  0.21450  Biso   1.000  H
  H58      1.0000 0.92680  0.70900  0.78550  Biso   1.000  H
  H59      1.0000 0.42680  0.79100  0.78550  Biso   1.000  H
  H60      1.0000 0.07320  0.29100  0.21450  Biso   1.000  H
  H61      1.0000 0.44600  0.18300  0.20570  Biso   1.000  H
  H62      1.0000 0.05400  0.68300  0.79430  Biso   1.000  H
  H63      1.0000 0.55400  0.81700  0.79430  Biso   1.000  H
  H64      1.0000 0.94600  0.31700  0.20570  Biso   1.000  H
  H65      1.0000 0.45550  0.28770  0.39410  Biso   1.000  H
  H66      1.0000 0.04450  0.78770  0.60590  Biso   1.000  H
  H67      1.0000 0.54450  0.71230  0.60590  Biso   1.000  H
  H68      1.0000 0.95550  0.21230  0.39410  Biso   1.000  H
  H69      1.0000 0.52060  0.30310  0.83470  Biso   1.000  H
  H70      1.0000 0.97940  0.80310  0.16530  Biso   1.000  H
  H71      1.0000 0.47940  0.69690  0.16530  Biso   1.000  H
  H72      1.0000 0.02060  0.19690  0.83470  Biso   1.000  H
  H73      1.0000 0.42330  0.32660  0.87310  Biso   1.000  H
  H74      1.0000 0.07670  0.82660  0.12690  Biso   1.000  H
  H75      1.0000 0.57670  0.67340  0.12690  Biso   1.000  H
  H76      1.0000 0.92330  0.17340  0.87310  Biso   1.000  H
