data_image0
_cell_length_a       9.834
_cell_length_b       16.432
_cell_length_c       17.454
_cell_angle_alpha    90
_cell_angle_beta     103.891
_cell_angle_gamma    90

_symmetry_space_group_name_H-M    "P 1"
_symmetry_int_tables_number       1

loop_
  _symmetry_equiv_pos_as_xyz
  'x, y, z'

loop_
  _atom_site_label
  _atom_site_occupancy
  _atom_site_fract_x
  _atom_site_fract_y
  _atom_site_fract_z
  _atom_site_thermal_displace_type
  _atom_site_B_iso_or_equiv
  _atom_site_type_symbol
  Cu1      1.0000 0.61574  0.64222  0.95998  Biso   1.000  Cu
  Cu2      1.0000 0.88426  0.14222  0.54002  Biso   1.000  Cu
  Cu3      1.0000 0.38426  0.35778  0.04002  Biso   1.000  Cu
  Cu4      1.0000 0.11574  0.85778  0.45998  Biso   1.000  Cu
  Cu5      1.0000 0.59511  0.82287  0.99335  Biso   1.000  Cu
  Cu6      1.0000 0.90489  0.32287  0.50665  Biso   1.000  Cu
  Cu7      1.0000 0.40489  0.17713  0.00665  Biso   1.000  Cu
  Cu8      1.0000 0.09511  0.67713  0.49335  Biso   1.000  Cu
  Br1      1.0000 0.43854  0.78720  0.55237  Biso   1.000  Br
  Br2      1.0000 0.06146  0.28720  0.94763  Biso   1.000  Br
  Br3      1.0000 0.56146  0.21280  0.44763  Biso   1.000  Br
  Br4      1.0000 0.93854  0.71280  0.05237  Biso   1.000  Br
  Br5      1.0000 0.39132  0.67301  0.34294  Biso   1.000  Br
  Br6      1.0000 0.10868  0.17301  0.15706  Biso   1.000  Br
  Br7      1.0000 0.60868  0.32699  0.65706  Biso   1.000  Br
  Br8      1.0000 0.89132  0.82699  0.84294  Biso   1.000  Br
  S1       1.0000 0.69980  0.05773  0.86946  Biso   1.000  S
  S2       1.0000 0.80020  0.55773  0.63054  Biso   1.000  S
  S3       1.0000 0.30020  0.94227  0.13054  Biso   1.000  S
  S4       1.0000 0.19980  0.44227  0.36946  Biso   1.000  S
  S5       1.0000 0.34661  0.58893  0.88164  Biso   1.000  S
  S6       1.0000 0.15339  0.08893  0.61836  Biso   1.000  S
  S7       1.0000 0.65339  0.41107  0.11836  Biso   1.000  S
  S8       1.0000 0.84661  0.91107  0.38164  Biso   1.000  S
  O1       1.0000 0.57050  0.74283  0.90427  Biso   1.000  O
  O2       1.0000 0.92950  0.24283  0.59573  Biso   1.000  O
  O3       1.0000 0.42950  0.25717  0.09573  Biso   1.000  O
  O4       1.0000 0.07050  0.75717  0.40427  Biso   1.000  O
  O5       1.0000 0.57750  0.71868  0.04177  Biso   1.000  O
  O6       1.0000 0.92250  0.21868  0.45823  Biso   1.000  O
  O7       1.0000 0.42250  0.28132  0.95823  Biso   1.000  O
  O8       1.0000 0.07750  0.78132  0.54177  Biso   1.000  O
  O9       1.0000 0.36550  0.85110  0.98200  Biso   1.000  O
  O10      1.0000 0.13450  0.35110  0.51800  Biso   1.000  O
  O11      1.0000 0.63450  0.14890  0.01800  Biso   1.000  O
  O12      1.0000 0.86550  0.64890  0.48200  Biso   1.000  O
  N1       1.0000 0.71500  0.60440  0.87940  Biso   1.000  N
  N2       1.0000 0.78500  0.10440  0.62060  Biso   1.000  N
  N3       1.0000 0.28500  0.39560  0.12060  Biso   1.000  N
  N4       1.0000 0.21500  0.89560  0.37940  Biso   1.000  N
  N5       1.0000 0.66150  0.87500  0.09760  Biso   1.000  N
  N6       1.0000 0.83850  0.37500  0.40240  Biso   1.000  N
  N7       1.0000 0.33850  0.12500  0.90240  Biso   1.000  N
  N8       1.0000 0.16150  0.62500  0.59760  Biso   1.000  N
  N9       1.0000 0.63530  0.91220  0.93230  Biso   1.000  N
  N10      1.0000 0.86470  0.41220  0.56770  Biso   1.000  N
  N11      1.0000 0.36470  0.08780  0.06770  Biso   1.000  N
  N12      1.0000 0.13530  0.58780  0.43230  Biso   1.000  N
  N13      1.0000 0.34020  0.44980  0.97060  Biso   1.000  N
  N14      1.0000 0.15980  0.94980  0.52940  Biso   1.000  N
  N15      1.0000 0.65980  0.55020  0.02940  Biso   1.000  N
  N16      1.0000 0.84020  0.05020  0.47060  Biso   1.000  N
  C1       1.0000 0.59130  0.69770  0.77850  Biso   1.000  C
  C2       1.0000 0.90870  0.19770  0.72150  Biso   1.000  C
  C3       1.0000 0.40870  0.30230  0.22150  Biso   1.000  C
  C4       1.0000 0.09130  0.80230  0.27850  Biso   1.000  C
  C5       1.0000 0.53610  0.75090  0.82610  Biso   1.000  C
  C6       1.0000 0.96390  0.25090  0.67390  Biso   1.000  C
  C7       1.0000 0.46390  0.24910  0.17390  Biso   1.000  C
  C8       1.0000 0.03610  0.74910  0.32610  Biso   1.000  C
  C9       1.0000 0.44700  0.81260  0.78970  Biso   1.000  C
  C10      1.0000 0.05300  0.31260  0.71030  Biso   1.000  C
  C11      1.0000 0.55300  0.18740  0.21030  Biso   1.000  C
  C12      1.0000 0.94700  0.68740  0.28970  Biso   1.000  C
  H1       1.0000 0.40790  0.84760  0.82040  Biso   1.000  H
  H2       1.0000 0.09210  0.34760  0.67960  Biso   1.000  H
  H3       1.0000 0.59210  0.15240  0.17960  Biso   1.000  H
  H4       1.0000 0.90790  0.65240  0.32040  Biso   1.000  H
  C13      1.0000 0.41540  0.82300  0.70920  Biso   1.000  C
  C14      1.0000 0.08460  0.32300  0.79080  Biso   1.000  C
  C15      1.0000 0.58460  0.17700  0.29080  Biso   1.000  C
  C16      1.0000 0.91540  0.67700  0.20920  Biso   1.000  C
  H5       1.0000 0.35450  0.86410  0.68580  Biso   1.000  H
  H6       1.0000 0.14550  0.36410  0.81420  Biso   1.000  H
  H7       1.0000 0.64550  0.13590  0.31420  Biso   1.000  H
  H8       1.0000 0.85450  0.63590  0.18580  Biso   1.000  H
  C17      1.0000 0.47420  0.77230  0.66340  Biso   1.000  C
  C18      1.0000 0.02580  0.27230  0.83660  Biso   1.000  C
  C19      1.0000 0.52580  0.22770  0.33660  Biso   1.000  C
  C20      1.0000 0.97420  0.72770  0.16340  Biso   1.000  C
  C21      1.0000 0.56030  0.71040  0.69690  Biso   1.000  C
  C22      1.0000 0.93970  0.21040  0.80310  Biso   1.000  C
  C23      1.0000 0.43970  0.28960  0.30310  Biso   1.000  C
  C24      1.0000 0.06030  0.78960  0.19690  Biso   1.000  C
  H9       1.0000 0.59880  0.67630  0.66510  Biso   1.000  H
  H10      1.0000 0.90120  0.17630  0.83490  Biso   1.000  H
  H11      1.0000 0.40120  0.32370  0.33490  Biso   1.000  H
  H12      1.0000 0.09880  0.82370  0.16510  Biso   1.000  H
  C25      1.0000 0.68600  0.63240  0.80930  Biso   1.000  C
  C26      1.0000 0.81400  0.13240  0.69070  Biso   1.000  C
  C27      1.0000 0.31400  0.36760  0.19070  Biso   1.000  C
  C28      1.0000 0.18600  0.86760  0.30930  Biso   1.000  C
  H13      1.0000 0.73110  0.60790  0.77420  Biso   1.000  H
  H14      1.0000 0.76890  0.10790  0.72580  Biso   1.000  H
  H15      1.0000 0.26890  0.39210  0.22580  Biso   1.000  H
  H16      1.0000 0.23110  0.89210  0.27420  Biso   1.000  H
  C29      1.0000 0.82350  0.54390  0.90190  Biso   1.000  C
  C30      1.0000 0.67650  0.04390  0.59810  Biso   1.000  C
  C31      1.0000 0.17650  0.45610  0.09810  Biso   1.000  C
  C32      1.0000 0.32350  0.95610  0.40190  Biso   1.000  C
  H17      1.0000 0.81240  0.50930  0.94570  Biso   1.000  H
  H18      1.0000 0.68760  0.00930  0.55430  Biso   1.000  H
  H19      1.0000 0.18760  0.49070  0.05430  Biso   1.000  H
  H20      1.0000 0.31240  0.99070  0.44570  Biso   1.000  H
  C33      1.0000 0.96790  0.56400  0.90460  Biso   1.000  C
  C34      1.0000 0.53210  0.06400  0.59540  Biso   1.000  C
  C35      1.0000 0.03210  0.43600  0.09540  Biso   1.000  C
  C36      1.0000 0.46790  0.93600  0.40460  Biso   1.000  C
  H21      1.0000 0.98680  0.61660  0.88420  Biso   1.000  H
  H22      1.0000 0.51320  0.11660  0.61580  Biso   1.000  H
  H23      1.0000 0.01320  0.38340  0.11580  Biso   1.000  H
  H24      1.0000 0.48680  0.88340  0.38420  Biso   1.000  H
  H25      1.0000 0.03900  0.54500  0.94960  Biso   1.000  H
  H26      1.0000 0.46100  0.04500  0.55040  Biso   1.000  H
  H27      1.0000 0.96100  0.45500  0.05040  Biso   1.000  H
  H28      1.0000 0.53900  0.95500  0.44960  Biso   1.000  H
  C37      1.0000 0.89710  0.50390  0.84860  Biso   1.000  C
  C38      1.0000 0.60290  0.00390  0.65140  Biso   1.000  C
  C39      1.0000 0.10290  0.49610  0.15140  Biso   1.000  C
  C40      1.0000 0.39710  0.99610  0.34860  Biso   1.000  C
  H29      1.0000 0.92360  0.44730  0.85870  Biso   1.000  H
  H30      1.0000 0.57640  0.94730  0.64130  Biso   1.000  H
  H31      1.0000 0.07640  0.55270  0.14130  Biso   1.000  H
  H32      1.0000 0.42360  0.05270  0.35870  Biso   1.000  H
  H33      1.0000 0.87140  0.51900  0.79320  Biso   1.000  H
  H34      1.0000 0.62860  0.01900  0.70680  Biso   1.000  H
  H35      1.0000 0.12860  0.48100  0.20680  Biso   1.000  H
  H36      1.0000 0.37140  0.98100  0.29320  Biso   1.000  H
  C41      1.0000 0.56880  0.76850  0.16790  Biso   1.000  C
  C42      1.0000 0.93120  0.26850  0.33210  Biso   1.000  C
  C43      1.0000 0.43120  0.23150  0.83210  Biso   1.000  C
  C44      1.0000 0.06880  0.73150  0.66790  Biso   1.000  C
  C45      1.0000 0.53800  0.70940  0.10900  Biso   1.000  C
  C46      1.0000 0.96200  0.20940  0.39100  Biso   1.000  C
  C47      1.0000 0.46200  0.29060  0.89100  Biso   1.000  C
  C48      1.0000 0.03800  0.79060  0.60900  Biso   1.000  C
  C49      1.0000 0.46290  0.64080  0.12140  Biso   1.000  C
  C50      1.0000 0.03710  0.14080  0.37860  Biso   1.000  C
  C51      1.0000 0.53710  0.35920  0.87860  Biso   1.000  C
  C52      1.0000 0.96290  0.85920  0.62140  Biso   1.000  C
  H37      1.0000 0.43990  0.60150  0.08200  Biso   1.000  H
  H38      1.0000 0.06010  0.10150  0.41800  Biso   1.000  H
  H39      1.0000 0.56010  0.39850  0.91800  Biso   1.000  H
  H40      1.0000 0.93990  0.89850  0.58200  Biso   1.000  H
  C53      1.0000 0.42200  0.63010  0.19100  Biso   1.000  C
  C54      1.0000 0.07800  0.13010  0.30900  Biso   1.000  C
  C55      1.0000 0.57800  0.36990  0.80900  Biso   1.000  C
  C56      1.0000 0.92200  0.86990  0.69100  Biso   1.000  C
  H41      1.0000 0.37240  0.58370  0.19830  Biso   1.000  H
  H42      1.0000 0.12760  0.08370  0.30170  Biso   1.000  H
  H43      1.0000 0.62760  0.41630  0.80170  Biso   1.000  H
  H44      1.0000 0.87240  0.91630  0.69830  Biso   1.000  H
  C57      1.0000 0.45410  0.68740  0.24910  Biso   1.000  C
  C58      1.0000 0.04590  0.18740  0.25090  Biso   1.000  C
  C59      1.0000 0.54590  0.31260  0.75090  Biso   1.000  C
  C60      1.0000 0.95410  0.81260  0.74910  Biso   1.000  C
  C61      1.0000 0.52670  0.75670  0.23870  Biso   1.000  C
  C62      1.0000 0.97330  0.25670  0.26130  Biso   1.000  C
  C63      1.0000 0.47330  0.24330  0.76130  Biso   1.000  C
  C64      1.0000 0.02670  0.74330  0.73870  Biso   1.000  C
  H45      1.0000 0.54790  0.79560  0.27840  Biso   1.000  H
  H46      1.0000 0.95210  0.29560  0.22160  Biso   1.000  H
  H47      1.0000 0.45210  0.20440  0.72160  Biso   1.000  H
  H48      1.0000 0.04790  0.70440  0.77840  Biso   1.000  H
  C65      1.0000 0.63870  0.84490  0.16050  Biso   1.000  C
  C66      1.0000 0.86130  0.34490  0.33950  Biso   1.000  C
  C67      1.0000 0.36130  0.15510  0.83950  Biso   1.000  C
  C68      1.0000 0.13870  0.65510  0.66050  Biso   1.000  C
  H49      1.0000 0.67000  0.87500  0.20650  Biso   1.000  H
  H50      1.0000 0.83000  0.37500  0.29350  Biso   1.000  H
  H51      1.0000 0.33000  0.12500  0.79350  Biso   1.000  H
  H52      1.0000 0.17000  0.62500  0.70650  Biso   1.000  H
  C69      1.0000 0.72200  0.95690  0.10160  Biso   1.000  C
  C70      1.0000 0.77800  0.45690  0.39840  Biso   1.000  C
  C71      1.0000 0.27800  0.04310  0.89840  Biso   1.000  C
  C72      1.0000 0.22200  0.54310  0.60160  Biso   1.000  C
  H53      1.0000 0.65620  0.00000  0.07840  Biso   1.000  H
  H54      1.0000 0.84380  0.50000  0.42160  Biso   1.000  H
  H55      1.0000 0.34380  0.00000  0.92160  Biso   1.000  H
  H56      1.0000 0.15620  0.50000  0.57840  Biso   1.000  H
  C73      1.0000 0.86360  0.96640  0.09050  Biso   1.000  C
  C74      1.0000 0.63640  0.46640  0.40950  Biso   1.000  C
  C75      1.0000 0.13640  0.03360  0.90950  Biso   1.000  C
  C76      1.0000 0.36360  0.53360  0.59050  Biso   1.000  C
  H57      1.0000 0.88190  0.01280  0.06010  Biso   1.000  H
  H58      1.0000 0.61810  0.51280  0.43990  Biso   1.000  H
  H59      1.0000 0.11810  0.98720  0.93990  Biso   1.000  H
  H60      1.0000 0.38190  0.48720  0.56010  Biso   1.000  H
  H61      1.0000 0.91500  0.91750  0.08430  Biso   1.000  H
  H62      1.0000 0.58500  0.41750  0.41570  Biso   1.000  H
  H63      1.0000 0.08500  0.08250  0.91570  Biso   1.000  H
  H64      1.0000 0.41500  0.58250  0.58430  Biso   1.000  H
  C77      1.0000 0.83690  0.98250  0.16930  Biso   1.000  C
  C78      1.0000 0.66310  0.48250  0.33070  Biso   1.000  C
  C79      1.0000 0.16310  0.01750  0.83070  Biso   1.000  C
  C80      1.0000 0.33690  0.51750  0.66930  Biso   1.000  C
  H65      1.0000 0.83800  0.03860  0.18670  Biso   1.000  H
  H66      1.0000 0.66200  0.53860  0.31330  Biso   1.000  H
  H67      1.0000 0.16200  0.96140  0.81330  Biso   1.000  H
  H68      1.0000 0.33800  0.46140  0.68670  Biso   1.000  H
  H69      1.0000 0.87120  0.94320  0.21090  Biso   1.000  H
  H70      1.0000 0.62880  0.44320  0.28910  Biso   1.000  H
  H71      1.0000 0.12880  0.05680  0.78910  Biso   1.000  H
  H72      1.0000 0.37120  0.55680  0.71090  Biso   1.000  H
  C81      1.0000 0.66210  0.97210  0.90580  Biso   1.000  C
  C82      1.0000 0.83790  0.47210  0.59420  Biso   1.000  C
  C83      1.0000 0.33790  0.02790  0.09420  Biso   1.000  C
  C84      1.0000 0.16210  0.52790  0.40580  Biso   1.000  C
  C85      1.0000 0.34230  0.50730  0.93330  Biso   1.000  C
  C86      1.0000 0.15770  0.00730  0.56670  Biso   1.000  C
  C87      1.0000 0.65770  0.49270  0.06670  Biso   1.000  C
  C88      1.0000 0.84230  0.99270  0.43330  Biso   1.000  C
  C89      1.0000 0.25760  0.79240  0.96130  Biso   1.000  C
  C90      1.0000 0.24240  0.29240  0.53870  Biso   1.000  C
  C91      1.0000 0.74240  0.20760  0.03870  Biso   1.000  C
  C92      1.0000 0.75760  0.70760  0.46130  Biso   1.000  C
  H73      1.0000 0.27730  0.75640  0.92200  Biso   1.000  H
  H74      1.0000 0.22270  0.25640  0.57800  Biso   1.000  H
  H75      1.0000 0.72270  0.24360  0.07800  Biso   1.000  H
  H76      1.0000 0.77730  0.74360  0.42200  Biso   1.000  H
  H77      1.0000 0.16970  0.81920  0.94070  Biso   1.000  H
  H78      1.0000 0.33030  0.31920  0.55930  Biso   1.000  H
  H79      1.0000 0.83030  0.18080  0.05930  Biso   1.000  H
  H80      1.0000 0.66970  0.68080  0.44070  Biso   1.000  H
  H81      1.0000 0.25250  0.76160  0.00730  Biso   1.000  H
  H82      1.0000 0.24750  0.26160  0.49270  Biso   1.000  H
  H83      1.0000 0.74750  0.23840  0.99270  Biso   1.000  H
  H84      1.0000 0.75250  0.73840  0.50730  Biso   1.000  H
  H85      1.0000 0.33700  0.87100  0.02300  Biso   1.000  H
  H86      1.0000 0.16300  0.37100  0.47700  Biso   1.000  H
  H87      1.0000 0.66300  0.12900  0.97700  Biso   1.000  H
  H88      1.0000 0.83700  0.62900  0.52300  Biso   1.000  H
