data_image0
_cell_length_a       9.251
_cell_length_b       16.38
_cell_length_c       33.447
_cell_angle_alpha    90
_cell_angle_beta     90
_cell_angle_gamma    90

_symmetry_space_group_name_H-M    "P 1"
_symmetry_int_tables_number       1

loop_
  _symmetry_equiv_pos_as_xyz
  'x, y, z'

loop_
  _atom_site_label
  _atom_site_occupancy
  _atom_site_fract_x
  _atom_site_fract_y
  _atom_site_fract_z
  _atom_site_thermal_displace_type
  _atom_site_B_iso_or_equiv
  _atom_site_type_symbol
  Cu1      1.0000 0.83694  0.34554  0.11054  Biso   1.000  Cu
  Cu2      1.0000 0.66306  0.65446  0.61054  Biso   1.000  Cu
  Cu3      1.0000 0.16306  0.84554  0.38946  Biso   1.000  Cu
  Cu4      1.0000 0.33694  0.15446  0.88946  Biso   1.000  Cu
  Cu5      1.0000 0.16306  0.65446  0.88946  Biso   1.000  Cu
  Cu6      1.0000 0.33694  0.34554  0.38946  Biso   1.000  Cu
  Cu7      1.0000 0.83694  0.15446  0.61054  Biso   1.000  Cu
  Cu8      1.0000 0.66306  0.84554  0.11054  Biso   1.000  Cu
  Cu9      1.0000 0.64647  0.02409  0.13628  Biso   1.000  Cu
  Cu10     1.0000 0.85353  0.97591  0.63628  Biso   1.000  Cu
  Cu11     1.0000 0.35353  0.52409  0.36372  Biso   1.000  Cu
  Cu12     1.0000 0.14647  0.47591  0.86372  Biso   1.000  Cu
  Cu13     1.0000 0.35353  0.97591  0.86372  Biso   1.000  Cu
  Cu14     1.0000 0.14647  0.02409  0.36372  Biso   1.000  Cu
  Cu15     1.0000 0.64647  0.47591  0.63628  Biso   1.000  Cu
  Cu16     1.0000 0.85353  0.52409  0.13628  Biso   1.000  Cu
  Br1      1.0000 0.74660  0.53843  0.91490  Biso   1.000  Br
  Br2      1.0000 0.75340  0.46157  0.41490  Biso   1.000  Br
  Br3      1.0000 0.25340  0.03843  0.58510  Biso   1.000  Br
  Br4      1.0000 0.24660  0.96157  0.08510  Biso   1.000  Br
  Br5      1.0000 0.25340  0.46157  0.08510  Biso   1.000  Br
  Br6      1.0000 0.24660  0.53843  0.58510  Biso   1.000  Br
  Br7      1.0000 0.74660  0.96157  0.41490  Biso   1.000  Br
  Br8      1.0000 0.75340  0.03843  0.91490  Biso   1.000  Br
  Br9      1.0000 0.68369  0.34702  0.33039  Biso   1.000  Br
  Br10     1.0000 0.81631  0.65298  0.83039  Biso   1.000  Br
  Br11     1.0000 0.31631  0.84702  0.16961  Biso   1.000  Br
  Br12     1.0000 0.18369  0.15298  0.66961  Biso   1.000  Br
  Br13     1.0000 0.31631  0.65298  0.66961  Biso   1.000  Br
  Br14     1.0000 0.18369  0.34702  0.16961  Biso   1.000  Br
  Br15     1.0000 0.68369  0.15298  0.83039  Biso   1.000  Br
  Br16     1.0000 0.81631  0.84702  0.33039  Biso   1.000  Br
  S1       1.0000 0.56570  0.28187  0.08200  Biso   1.000  S
  S2       1.0000 0.93430  0.71813  0.58200  Biso   1.000  S
  S3       1.0000 0.43430  0.78187  0.41800  Biso   1.000  S
  S4       1.0000 0.06570  0.21813  0.91800  Biso   1.000  S
  S5       1.0000 0.43430  0.71813  0.91800  Biso   1.000  S
  S6       1.0000 0.06570  0.28187  0.41800  Biso   1.000  S
  S7       1.0000 0.56570  0.21813  0.58200  Biso   1.000  S
  S8       1.0000 0.93430  0.78187  0.08200  Biso   1.000  S
  S9       1.0000 0.90530  0.08667  0.16532  Biso   1.000  S
  S10      1.0000 0.59470  0.91333  0.66532  Biso   1.000  S
  S11      1.0000 0.09470  0.58667  0.33468  Biso   1.000  S
  S12      1.0000 0.40530  0.41333  0.83468  Biso   1.000  S
  S13      1.0000 0.09470  0.91333  0.83468  Biso   1.000  S
  S14      1.0000 0.40530  0.08667  0.33468  Biso   1.000  S
  S15      1.0000 0.90530  0.41333  0.66532  Biso   1.000  S
  S16      1.0000 0.59470  0.58667  0.16532  Biso   1.000  S
  O1       1.0000 0.81120  0.45280  0.08838  Biso   1.000  O
  O2       1.0000 0.68880  0.54720  0.58838  Biso   1.000  O
  O3       1.0000 0.18880  0.95280  0.41162  Biso   1.000  O
  O4       1.0000 0.31120  0.04720  0.91162  Biso   1.000  O
  O5       1.0000 0.18880  0.54720  0.91162  Biso   1.000  O
  O6       1.0000 0.31120  0.45280  0.41162  Biso   1.000  O
  O7       1.0000 0.81120  0.04720  0.58838  Biso   1.000  O
  O8       1.0000 0.68880  0.95280  0.08838  Biso   1.000  O
  O9       1.0000 0.80400  0.41900  0.15765  Biso   1.000  O
  O10      1.0000 0.69600  0.58100  0.65765  Biso   1.000  O
  O11      1.0000 0.19600  0.91900  0.34235  Biso   1.000  O
  O12      1.0000 0.30400  0.08100  0.84235  Biso   1.000  O
  O13      1.0000 0.19600  0.58100  0.84235  Biso   1.000  O
  O14      1.0000 0.30400  0.41900  0.34235  Biso   1.000  O
  O15      1.0000 0.80400  0.08100  0.65765  Biso   1.000  O
  O16      1.0000 0.69600  0.91900  0.15765  Biso   1.000  O
  N1       1.0000 0.93940  0.30950  0.06170  Biso   1.000  N
  N2       1.0000 0.56060  0.69050  0.56170  Biso   1.000  N
  N3       1.0000 0.06060  0.80950  0.43830  Biso   1.000  N
  N4       1.0000 0.43940  0.19050  0.93830  Biso   1.000  N
  N5       1.0000 0.06060  0.69050  0.93830  Biso   1.000  N
  N6       1.0000 0.43940  0.30950  0.43830  Biso   1.000  N
  N7       1.0000 0.93940  0.19050  0.56170  Biso   1.000  N
  N8       1.0000 0.56060  0.80950  0.06170  Biso   1.000  N
  N9       1.0000 0.59840  0.12140  0.10648  Biso   1.000  N
  N10      1.0000 0.90160  0.87860  0.60648  Biso   1.000  N
  N11      1.0000 0.40160  0.62140  0.39352  Biso   1.000  N
  N12      1.0000 0.09840  0.37860  0.89352  Biso   1.000  N
  N13      1.0000 0.40160  0.87860  0.89352  Biso   1.000  N
  N14      1.0000 0.09840  0.12140  0.39352  Biso   1.000  N
  N15      1.0000 0.59840  0.37860  0.60648  Biso   1.000  N
  N16      1.0000 0.90160  0.62140  0.10648  Biso   1.000  N
  N17      1.0000 0.86520  0.24770  0.14123  Biso   1.000  N
  N18      1.0000 0.63480  0.75230  0.64123  Biso   1.000  N
  N19      1.0000 0.13480  0.74770  0.35877  Biso   1.000  N
  N20      1.0000 0.36520  0.25230  0.85877  Biso   1.000  N
  N21      1.0000 0.13480  0.75230  0.85877  Biso   1.000  N
  N22      1.0000 0.36520  0.24770  0.35877  Biso   1.000  N
  N23      1.0000 0.86520  0.25230  0.64123  Biso   1.000  N
  N24      1.0000 0.63480  0.74770  0.14123  Biso   1.000  N
  C1       1.0000 0.86080  0.42260  0.02036  Biso   1.000  C
  C2       1.0000 0.63920  0.57740  0.52036  Biso   1.000  C
  C3       1.0000 0.13920  0.92260  0.47964  Biso   1.000  C
  C4       1.0000 0.36080  0.07740  0.97964  Biso   1.000  C
  C5       1.0000 0.13920  0.57740  0.97964  Biso   1.000  C
  C6       1.0000 0.36080  0.42260  0.47964  Biso   1.000  C
  C7       1.0000 0.86080  0.07740  0.52036  Biso   1.000  C
  C8       1.0000 0.63920  0.92260  0.02036  Biso   1.000  C
  C9       1.0000 0.79620  0.47000  0.04984  Biso   1.000  C
  C10      1.0000 0.70380  0.53000  0.54984  Biso   1.000  C
  C11      1.0000 0.20380  0.97000  0.45016  Biso   1.000  C
  C12      1.0000 0.29620  0.03000  0.95016  Biso   1.000  C
  C13      1.0000 0.20380  0.53000  0.95016  Biso   1.000  C
  C14      1.0000 0.29620  0.47000  0.45016  Biso   1.000  C
  C15      1.0000 0.79620  0.03000  0.54984  Biso   1.000  C
  C16      1.0000 0.70380  0.97000  0.04984  Biso   1.000  C
  C17      1.0000 0.71580  0.53820  0.03810  Biso   1.000  C
  C18      1.0000 0.78420  0.46180  0.53810  Biso   1.000  C
  C19      1.0000 0.28420  0.03820  0.46190  Biso   1.000  C
  C20      1.0000 0.21580  0.96180  0.96190  Biso   1.000  C
  C21      1.0000 0.28420  0.46180  0.96190  Biso   1.000  C
  C22      1.0000 0.21580  0.53820  0.46190  Biso   1.000  C
  C23      1.0000 0.71580  0.96180  0.53810  Biso   1.000  C
  C24      1.0000 0.78420  0.03820  0.03810  Biso   1.000  C
  H1       1.0000 0.67260  0.57090  0.05740  Biso   1.000  H
  H2       1.0000 0.82740  0.42910  0.55740  Biso   1.000  H
  H3       1.0000 0.32740  0.07090  0.44260  Biso   1.000  H
  H4       1.0000 0.17260  0.92910  0.94260  Biso   1.000  H
  H5       1.0000 0.32740  0.42910  0.94260  Biso   1.000  H
  H6       1.0000 0.17260  0.57090  0.44260  Biso   1.000  H
  H7       1.0000 0.67260  0.92910  0.55740  Biso   1.000  H
  H8       1.0000 0.82740  0.07090  0.05740  Biso   1.000  H
  C25      1.0000 0.69990  0.55780  0.99800  Biso   1.000  C
  C26      1.0000 0.80010  0.44220  0.49800  Biso   1.000  C
  C27      1.0000 0.30010  0.05780  0.50200  Biso   1.000  C
  C28      1.0000 0.19990  0.94220  0.00200  Biso   1.000  C
  C29      1.0000 0.30010  0.44220  0.00200  Biso   1.000  C
  C30      1.0000 0.19990  0.55780  0.50200  Biso   1.000  C
  C31      1.0000 0.69990  0.94220  0.49800  Biso   1.000  C
  C32      1.0000 0.80010  0.05780  0.99800  Biso   1.000  C
  H9       1.0000 0.64290  0.60200  0.99050  Biso   1.000  H
  H10      1.0000 0.85710  0.39800  0.49050  Biso   1.000  H
  H11      1.0000 0.35710  0.10200  0.50950  Biso   1.000  H
  H12      1.0000 0.14290  0.89800  0.00950  Biso   1.000  H
  H13      1.0000 0.35710  0.39800  0.00950  Biso   1.000  H
  H14      1.0000 0.14290  0.60200  0.50950  Biso   1.000  H
  H15      1.0000 0.64290  0.89800  0.49050  Biso   1.000  H
  H16      1.0000 0.85710  0.10200  0.99050  Biso   1.000  H
  C33      1.0000 0.76860  0.51170  0.96967  Biso   1.000  C
  C34      1.0000 0.73140  0.48830  0.46967  Biso   1.000  C
  C35      1.0000 0.23140  0.01170  0.53033  Biso   1.000  C
  C36      1.0000 0.26860  0.98830  0.03033  Biso   1.000  C
  C37      1.0000 0.23140  0.48830  0.03033  Biso   1.000  C
  C38      1.0000 0.26860  0.51170  0.53033  Biso   1.000  C
  C39      1.0000 0.76860  0.98830  0.46967  Biso   1.000  C
  C40      1.0000 0.73140  0.01170  0.96967  Biso   1.000  C
  C41      1.0000 0.84710  0.44510  0.98005  Biso   1.000  C
  C42      1.0000 0.65290  0.55490  0.48005  Biso   1.000  C
  C43      1.0000 0.15290  0.94510  0.51995  Biso   1.000  C
  C44      1.0000 0.34710  0.05490  0.01995  Biso   1.000  C
  C45      1.0000 0.15290  0.55490  0.01995  Biso   1.000  C
  C46      1.0000 0.34710  0.44510  0.51995  Biso   1.000  C
  C47      1.0000 0.84710  0.05490  0.48005  Biso   1.000  C
  C48      1.0000 0.65290  0.94510  0.98005  Biso   1.000  C
  H17      1.0000 0.89220  0.41410  0.96030  Biso   1.000  H
  H18      1.0000 0.60780  0.58590  0.46030  Biso   1.000  H
  H19      1.0000 0.10780  0.91410  0.53970  Biso   1.000  H
  H20      1.0000 0.39220  0.08590  0.03970  Biso   1.000  H
  H21      1.0000 0.10780  0.58590  0.03970  Biso   1.000  H
  H22      1.0000 0.39220  0.41410  0.53970  Biso   1.000  H
  H23      1.0000 0.89220  0.08590  0.46030  Biso   1.000  H
  H24      1.0000 0.60780  0.91410  0.96030  Biso   1.000  H
  C49      1.0000 0.93540  0.34760  0.02877  Biso   1.000  C
  C50      1.0000 0.56460  0.65240  0.52877  Biso   1.000  C
  C51      1.0000 0.06460  0.84760  0.47123  Biso   1.000  C
  C52      1.0000 0.43540  0.15240  0.97123  Biso   1.000  C
  C53      1.0000 0.06460  0.65240  0.97123  Biso   1.000  C
  C54      1.0000 0.43540  0.34760  0.47123  Biso   1.000  C
  C55      1.0000 0.93540  0.15240  0.52877  Biso   1.000  C
  C56      1.0000 0.56460  0.84760  0.02877  Biso   1.000  C
  H25      1.0000 0.98630  0.32440  0.00770  Biso   1.000  H
  H26      1.0000 0.51370  0.67560  0.50770  Biso   1.000  H
  H27      1.0000 0.01370  0.82440  0.49230  Biso   1.000  H
  H28      1.0000 0.48630  0.17560  0.99230  Biso   1.000  H
  H29      1.0000 0.01370  0.67560  0.99230  Biso   1.000  H
  H30      1.0000 0.48630  0.32440  0.49230  Biso   1.000  H
  H31      1.0000 0.98630  0.17560  0.50770  Biso   1.000  H
  H32      1.0000 0.51370  0.82440  0.00770  Biso   1.000  H
  C57      1.0000 0.00830  0.22870  0.06260  Biso   1.000  C
  C58      1.0000 0.49170  0.77130  0.56260  Biso   1.000  C
  C59      1.0000 0.99170  0.72870  0.43740  Biso   1.000  C
  C60      1.0000 0.50830  0.27130  0.93740  Biso   1.000  C
  C61      1.0000 0.99170  0.77130  0.93740  Biso   1.000  C
  C62      1.0000 0.50830  0.22870  0.43740  Biso   1.000  C
  C63      1.0000 0.00830  0.27130  0.56260  Biso   1.000  C
  C64      1.0000 0.49170  0.72870  0.06260  Biso   1.000  C
  H33      1.0000 0.94460  0.18530  0.07240  Biso   1.000  H
  H34      1.0000 0.55540  0.81470  0.57240  Biso   1.000  H
  H35      1.0000 0.05540  0.68530  0.42760  Biso   1.000  H
  H36      1.0000 0.44460  0.31470  0.92760  Biso   1.000  H
  H37      1.0000 0.05540  0.81470  0.92760  Biso   1.000  H
  H38      1.0000 0.44460  0.18530  0.42760  Biso   1.000  H
  H39      1.0000 0.94460  0.31470  0.57240  Biso   1.000  H
  H40      1.0000 0.55540  0.68530  0.07240  Biso   1.000  H
  C65      1.0000 0.15390  0.21820  0.07350  Biso   1.000  C
  C66      1.0000 0.34610  0.78180  0.57350  Biso   1.000  C
  C67      1.0000 0.84610  0.71820  0.42650  Biso   1.000  C
  C68      1.0000 0.65390  0.28180  0.92650  Biso   1.000  C
  C69      1.0000 0.84610  0.78180  0.92650  Biso   1.000  C
  C70      1.0000 0.65390  0.21820  0.42650  Biso   1.000  C
  C71      1.0000 0.15390  0.28180  0.57350  Biso   1.000  C
  C72      1.0000 0.34610  0.71820  0.07350  Biso   1.000  C
  H41      1.0000 0.21100  0.26690  0.07820  Biso   1.000  H
  H42      1.0000 0.28900  0.73310  0.57820  Biso   1.000  H
  H43      1.0000 0.78900  0.76690  0.42180  Biso   1.000  H
  H44      1.0000 0.71100  0.23310  0.92180  Biso   1.000  H
  H45      1.0000 0.78900  0.73310  0.92180  Biso   1.000  H
  H46      1.0000 0.71100  0.26690  0.42180  Biso   1.000  H
  H47      1.0000 0.21100  0.23310  0.57820  Biso   1.000  H
  H48      1.0000 0.28900  0.76690  0.07820  Biso   1.000  H
  H49      1.0000 0.17730  0.17250  0.09080  Biso   1.000  H
  H50      1.0000 0.32270  0.82750  0.59080  Biso   1.000  H
  H51      1.0000 0.82270  0.67250  0.40920  Biso   1.000  H
  H52      1.0000 0.67730  0.32750  0.90920  Biso   1.000  H
  H53      1.0000 0.82270  0.82750  0.90920  Biso   1.000  H
  H54      1.0000 0.67730  0.17250  0.40920  Biso   1.000  H
  H55      1.0000 0.17730  0.32750  0.59080  Biso   1.000  H
  H56      1.0000 0.32270  0.67250  0.09080  Biso   1.000  H
  C73      1.0000 0.11450  0.20090  0.03450  Biso   1.000  C
  C74      1.0000 0.38550  0.79910  0.53450  Biso   1.000  C
  C75      1.0000 0.88550  0.70090  0.46550  Biso   1.000  C
  C76      1.0000 0.61450  0.29910  0.96550  Biso   1.000  C
  C77      1.0000 0.88550  0.79910  0.96550  Biso   1.000  C
  C78      1.0000 0.61450  0.20090  0.46550  Biso   1.000  C
  C79      1.0000 0.11450  0.29910  0.53450  Biso   1.000  C
  C80      1.0000 0.38550  0.70090  0.03450  Biso   1.000  C
  H57      1.0000 0.11140  0.14410  0.02640  Biso   1.000  H
  H58      1.0000 0.38860  0.85590  0.52640  Biso   1.000  H
  H59      1.0000 0.88860  0.64410  0.47360  Biso   1.000  H
  H60      1.0000 0.61140  0.35590  0.97360  Biso   1.000  H
  H61      1.0000 0.88860  0.85590  0.97360  Biso   1.000  H
  H62      1.0000 0.61140  0.14410  0.47360  Biso   1.000  H
  H63      1.0000 0.11140  0.35590  0.52640  Biso   1.000  H
  H64      1.0000 0.38860  0.64410  0.02640  Biso   1.000  H
  H65      1.0000 0.14520  0.23870  0.01380  Biso   1.000  H
  H66      1.0000 0.35480  0.76130  0.51380  Biso   1.000  H
  H67      1.0000 0.85480  0.73870  0.48620  Biso   1.000  H
  H68      1.0000 0.64520  0.26130  0.98620  Biso   1.000  H
  H69      1.0000 0.85480  0.76130  0.98620  Biso   1.000  H
  H70      1.0000 0.64520  0.23870  0.48620  Biso   1.000  H
  H71      1.0000 0.14520  0.26130  0.51380  Biso   1.000  H
  H72      1.0000 0.35480  0.73870  0.01380  Biso   1.000  H
  C81      1.0000 0.77760  0.40430  0.19606  Biso   1.000  C
  C82      1.0000 0.72240  0.59570  0.69606  Biso   1.000  C
  C83      1.0000 0.22240  0.90430  0.30394  Biso   1.000  C
  C84      1.0000 0.27760  0.09570  0.80394  Biso   1.000  C
  C85      1.0000 0.22240  0.59570  0.80394  Biso   1.000  C
  C86      1.0000 0.27760  0.40430  0.30394  Biso   1.000  C
  C87      1.0000 0.77760  0.09570  0.69606  Biso   1.000  C
  C88      1.0000 0.72240  0.90430  0.19606  Biso   1.000  C
  C89      1.0000 0.84630  0.44920  0.22613  Biso   1.000  C
  C90      1.0000 0.65370  0.55080  0.72613  Biso   1.000  C
  C91      1.0000 0.15370  0.94920  0.27387  Biso   1.000  C
  C92      1.0000 0.34630  0.05080  0.77387  Biso   1.000  C
  C93      1.0000 0.15370  0.55080  0.77387  Biso   1.000  C
  C94      1.0000 0.34630  0.44920  0.27387  Biso   1.000  C
  C95      1.0000 0.84630  0.05080  0.72613  Biso   1.000  C
  C96      1.0000 0.65370  0.94920  0.22613  Biso   1.000  C
  C97      1.0000 0.81790  0.43050  0.26617  Biso   1.000  C
  C98      1.0000 0.68210  0.56950  0.76617  Biso   1.000  C
  C99      1.0000 0.18210  0.93050  0.23383  Biso   1.000  C
  C100     1.0000 0.31790  0.06950  0.73383  Biso   1.000  C
  C101     1.0000 0.18210  0.56950  0.73383  Biso   1.000  C
  C102     1.0000 0.31790  0.43050  0.23383  Biso   1.000  C
  C103     1.0000 0.81790  0.06950  0.76617  Biso   1.000  C
  C104     1.0000 0.68210  0.93050  0.26617  Biso   1.000  C
  H73      1.0000 0.86460  0.45940  0.28630  Biso   1.000  H
  H74      1.0000 0.63540  0.54060  0.78630  Biso   1.000  H
  H75      1.0000 0.13540  0.95940  0.21370  Biso   1.000  H
  H76      1.0000 0.36460  0.04060  0.71370  Biso   1.000  H
  H77      1.0000 0.13540  0.54060  0.71370  Biso   1.000  H
  H78      1.0000 0.36460  0.45940  0.21370  Biso   1.000  H
  H79      1.0000 0.86460  0.04060  0.78630  Biso   1.000  H
  H80      1.0000 0.63540  0.95940  0.28630  Biso   1.000  H
  C105     1.0000 0.72170  0.36980  0.27610  Biso   1.000  C
  C106     1.0000 0.77830  0.63020  0.77610  Biso   1.000  C
  C107     1.0000 0.27830  0.86980  0.22390  Biso   1.000  C
  C108     1.0000 0.22170  0.13020  0.72390  Biso   1.000  C
  C109     1.0000 0.27830  0.63020  0.72390  Biso   1.000  C
  C110     1.0000 0.22170  0.36980  0.22390  Biso   1.000  C
  C111     1.0000 0.72170  0.13020  0.77610  Biso   1.000  C
  C112     1.0000 0.77830  0.86980  0.27610  Biso   1.000  C
  C113     1.0000 0.65110  0.32730  0.24710  Biso   1.000  C
  C114     1.0000 0.84890  0.67270  0.74710  Biso   1.000  C
  C115     1.0000 0.34890  0.82730  0.25290  Biso   1.000  C
  C116     1.0000 0.15110  0.17270  0.75290  Biso   1.000  C
  C117     1.0000 0.34890  0.67270  0.75290  Biso   1.000  C
  C118     1.0000 0.15110  0.32730  0.25290  Biso   1.000  C
  C119     1.0000 0.65110  0.17270  0.74710  Biso   1.000  C
  C120     1.0000 0.84890  0.82730  0.24710  Biso   1.000  C
  H81      1.0000 0.58370  0.28760  0.25390  Biso   1.000  H
  H82      1.0000 0.91630  0.71240  0.75390  Biso   1.000  H
  H83      1.0000 0.41630  0.78760  0.24610  Biso   1.000  H
  H84      1.0000 0.08370  0.21240  0.74610  Biso   1.000  H
  H85      1.0000 0.41630  0.71240  0.74610  Biso   1.000  H
  H86      1.0000 0.08370  0.28760  0.24610  Biso   1.000  H
  H87      1.0000 0.58370  0.21240  0.75390  Biso   1.000  H
  H88      1.0000 0.91630  0.78760  0.25390  Biso   1.000  H
  C121     1.0000 0.68060  0.34380  0.20695  Biso   1.000  C
  C122     1.0000 0.81940  0.65620  0.70695  Biso   1.000  C
  C123     1.0000 0.31940  0.84380  0.29305  Biso   1.000  C
  C124     1.0000 0.18060  0.15620  0.79305  Biso   1.000  C
  C125     1.0000 0.31940  0.65620  0.79305  Biso   1.000  C
  C126     1.0000 0.18060  0.34380  0.29305  Biso   1.000  C
  C127     1.0000 0.68060  0.15620  0.70695  Biso   1.000  C
  C128     1.0000 0.81940  0.84380  0.20695  Biso   1.000  C
  H89      1.0000 0.63420  0.31370  0.18720  Biso   1.000  H
  H90      1.0000 0.86580  0.68630  0.68720  Biso   1.000  H
  H91      1.0000 0.36580  0.81370  0.31280  Biso   1.000  H
  H92      1.0000 0.13420  0.18630  0.81280  Biso   1.000  H
  H93      1.0000 0.36580  0.68630  0.81280  Biso   1.000  H
  H94      1.0000 0.13420  0.31370  0.31280  Biso   1.000  H
  H95      1.0000 0.63420  0.18630  0.68720  Biso   1.000  H
  H96      1.0000 0.86580  0.81370  0.18720  Biso   1.000  H
  C129     1.0000 0.94540  0.51470  0.21840  Biso   1.000  C
  C130     1.0000 0.55460  0.48530  0.71840  Biso   1.000  C
  C131     1.0000 0.05460  0.01470  0.28160  Biso   1.000  C
  C132     1.0000 0.44540  0.98530  0.78160  Biso   1.000  C
  C133     1.0000 0.05460  0.48530  0.78160  Biso   1.000  C
  C134     1.0000 0.44540  0.51470  0.28160  Biso   1.000  C
  C135     1.0000 0.94540  0.98530  0.71840  Biso   1.000  C
  C136     1.0000 0.55460  0.01470  0.21840  Biso   1.000  C
  H97      1.0000 0.00020  0.53280  0.24000  Biso   1.000  H
  H98      1.0000 0.49980  0.46720  0.74000  Biso   1.000  H
  H99      1.0000 0.99980  0.03280  0.26000  Biso   1.000  H
  H100     1.0000 0.50020  0.96720  0.76000  Biso   1.000  H
  H101     1.0000 0.99980  0.46720  0.76000  Biso   1.000  H
  H102     1.0000 0.50020  0.53280  0.26000  Biso   1.000  H
  H103     1.0000 0.00020  0.96720  0.74000  Biso   1.000  H
  H104     1.0000 0.49980  0.03280  0.24000  Biso   1.000  H
  C137     1.0000 0.58560  0.18670  0.09620  Biso   1.000  C
  C138     1.0000 0.91440  0.81330  0.59620  Biso   1.000  C
  C139     1.0000 0.41440  0.68670  0.40380  Biso   1.000  C
  C140     1.0000 0.08560  0.31330  0.90380  Biso   1.000  C
  C141     1.0000 0.41440  0.81330  0.90380  Biso   1.000  C
  C142     1.0000 0.08560  0.18670  0.40380  Biso   1.000  C
  C143     1.0000 0.58560  0.31330  0.59620  Biso   1.000  C
  C144     1.0000 0.91440  0.68670  0.09620  Biso   1.000  C
  C145     1.0000 0.88080  0.18150  0.15177  Biso   1.000  C
  C146     1.0000 0.61920  0.81850  0.65177  Biso   1.000  C
  C147     1.0000 0.11920  0.68150  0.34823  Biso   1.000  C
  C148     1.0000 0.38080  0.31850  0.84823  Biso   1.000  C
  C149     1.0000 0.11920  0.81850  0.84823  Biso   1.000  C
  C150     1.0000 0.38080  0.18150  0.34823  Biso   1.000  C
  C151     1.0000 0.88080  0.31850  0.65177  Biso   1.000  C
  C152     1.0000 0.61920  0.68150  0.15177  Biso   1.000  C
  N25      1.0000 0.96640  0.55050  0.18518  Biso   1.000  N
  N26      1.0000 0.53360  0.44950  0.68518  Biso   1.000  N
  N27      1.0000 0.03360  0.05050  0.31482  Biso   1.000  N
  N28      1.0000 0.46640  0.94950  0.81482  Biso   1.000  N
  N29      1.0000 0.03360  0.44950  0.81482  Biso   1.000  N
  N30      1.0000 0.46640  0.55050  0.31482  Biso   1.000  N
  N31      1.0000 0.96640  0.94950  0.68518  Biso   1.000  N
  N32      1.0000 0.53360  0.05050  0.18518  Biso   1.000  N
  C153     1.0000 0.10200  0.60040  0.17930  Biso   1.000  C
  C154     1.0000 0.39800  0.39960  0.67930  Biso   1.000  C
  C155     1.0000 0.89800  0.10040  0.32070  Biso   1.000  C
  C156     1.0000 0.60200  0.89960  0.82070  Biso   1.000  C
  C157     1.0000 0.89800  0.39960  0.82070  Biso   1.000  C
  C158     1.0000 0.60200  0.60040  0.32070  Biso   1.000  C
  C159     1.0000 0.10200  0.89960  0.67930  Biso   1.000  C
  C160     1.0000 0.39800  0.10040  0.17930  Biso   1.000  C
  H105     1.0000 0.16160  0.59050  0.15540  Biso   1.000  H
  H106     1.0000 0.33840  0.40950  0.65540  Biso   1.000  H
  H107     1.0000 0.83840  0.09050  0.34460  Biso   1.000  H
  H108     1.0000 0.66160  0.90950  0.84460  Biso   1.000  H
  H109     1.0000 0.83840  0.40950  0.84460  Biso   1.000  H
  H110     1.0000 0.66160  0.59050  0.34460  Biso   1.000  H
  H111     1.0000 0.16160  0.90950  0.65540  Biso   1.000  H
  H112     1.0000 0.33840  0.09050  0.15540  Biso   1.000  H
  C161     1.0000 0.06680  0.68610  0.19020  Biso   1.000  C
  C162     1.0000 0.43320  0.31390  0.69020  Biso   1.000  C
  C163     1.0000 0.93320  0.18610  0.30980  Biso   1.000  C
  C164     1.0000 0.56680  0.81390  0.80980  Biso   1.000  C
  C165     1.0000 0.93320  0.31390  0.80980  Biso   1.000  C
  C166     1.0000 0.56680  0.68610  0.30980  Biso   1.000  C
  C167     1.0000 0.06680  0.81390  0.69020  Biso   1.000  C
  C168     1.0000 0.43320  0.18610  0.19020  Biso   1.000  C
  H113     1.0000 0.10410  0.72930  0.17320  Biso   1.000  H
  H114     1.0000 0.39590  0.27070  0.67320  Biso   1.000  H
  H115     1.0000 0.89590  0.22930  0.32680  Biso   1.000  H
  H116     1.0000 0.60410  0.77070  0.82680  Biso   1.000  H
  H117     1.0000 0.89590  0.27070  0.82680  Biso   1.000  H
  H118     1.0000 0.60410  0.72930  0.32680  Biso   1.000  H
  H119     1.0000 0.10410  0.77070  0.67320  Biso   1.000  H
  H120     1.0000 0.39590  0.22930  0.17320  Biso   1.000  H
  H121     1.0000 0.97220  0.69670  0.20150  Biso   1.000  H
  H122     1.0000 0.52780  0.30330  0.70150  Biso   1.000  H
  H123     1.0000 0.02780  0.19670  0.29850  Biso   1.000  H
  H124     1.0000 0.47220  0.80330  0.79850  Biso   1.000  H
  H125     1.0000 0.02780  0.30330  0.79850  Biso   1.000  H
  H126     1.0000 0.47220  0.69670  0.29850  Biso   1.000  H
  H127     1.0000 0.97220  0.80330  0.70150  Biso   1.000  H
  H128     1.0000 0.52780  0.19670  0.20150  Biso   1.000  H
  C169     1.0000 0.17100  0.64000  0.21460  Biso   1.000  C
  C170     1.0000 0.32900  0.36000  0.71460  Biso   1.000  C
  C171     1.0000 0.82900  0.14000  0.28540  Biso   1.000  C
  C172     1.0000 0.67100  0.86000  0.78540  Biso   1.000  C
  C173     1.0000 0.82900  0.36000  0.78540  Biso   1.000  C
  C174     1.0000 0.67100  0.64000  0.28540  Biso   1.000  C
  C175     1.0000 0.17100  0.86000  0.71460  Biso   1.000  C
  C176     1.0000 0.32900  0.14000  0.21460  Biso   1.000  C
  H129     1.0000 0.14030  0.62230  0.24090  Biso   1.000  H
  H130     1.0000 0.35970  0.37770  0.74090  Biso   1.000  H
  H131     1.0000 0.85970  0.12230  0.25910  Biso   1.000  H
  H132     1.0000 0.64030  0.87770  0.75910  Biso   1.000  H
  H133     1.0000 0.85970  0.37770  0.75910  Biso   1.000  H
  H134     1.0000 0.64030  0.62230  0.25910  Biso   1.000  H
  H135     1.0000 0.14030  0.87770  0.74090  Biso   1.000  H
  H136     1.0000 0.35970  0.12230  0.24090  Biso   1.000  H
  H137     1.0000 0.27230  0.65480  0.21260  Biso   1.000  H
  H138     1.0000 0.22770  0.34520  0.71260  Biso   1.000  H
  H139     1.0000 0.72770  0.15480  0.28740  Biso   1.000  H
  H140     1.0000 0.77230  0.84520  0.78740  Biso   1.000  H
  H141     1.0000 0.72770  0.34520  0.78740  Biso   1.000  H
  H142     1.0000 0.77230  0.65480  0.28740  Biso   1.000  H
  H143     1.0000 0.27230  0.84520  0.71260  Biso   1.000  H
  H144     1.0000 0.22770  0.15480  0.21260  Biso   1.000  H
  C177     1.0000 0.04570  0.63000  0.18680  Biso   1.000  C
  C178     1.0000 0.45430  0.37000  0.68680  Biso   1.000  C
  C179     1.0000 0.95430  0.13000  0.31320  Biso   1.000  C
  C180     1.0000 0.54570  0.87000  0.81320  Biso   1.000  C
  C181     1.0000 0.95430  0.37000  0.81320  Biso   1.000  C
  C182     1.0000 0.54570  0.63000  0.31320  Biso   1.000  C
  C183     1.0000 0.04570  0.87000  0.68680  Biso   1.000  C
  C184     1.0000 0.45430  0.13000  0.18680  Biso   1.000  C
  H145     1.0000 0.99440  0.67920  0.17810  Biso   1.000  H
  H146     1.0000 0.50560  0.32080  0.67810  Biso   1.000  H
  H147     1.0000 0.00560  0.17920  0.32190  Biso   1.000  H
  H148     1.0000 0.49440  0.82080  0.82190  Biso   1.000  H
  H149     1.0000 0.00560  0.32080  0.82190  Biso   1.000  H
  H150     1.0000 0.49440  0.67920  0.32190  Biso   1.000  H
  H151     1.0000 0.99440  0.82080  0.67810  Biso   1.000  H
  H152     1.0000 0.50560  0.17920  0.17810  Biso   1.000  H
  C185     1.0000 0.19630  0.61760  0.17240  Biso   1.000  C
  C186     1.0000 0.30370  0.38240  0.67240  Biso   1.000  C
  C187     1.0000 0.80370  0.11760  0.32760  Biso   1.000  C
  C188     1.0000 0.69630  0.88240  0.82760  Biso   1.000  C
  C189     1.0000 0.80370  0.38240  0.82760  Biso   1.000  C
  C190     1.0000 0.69630  0.61760  0.32760  Biso   1.000  C
  C191     1.0000 0.19630  0.88240  0.67240  Biso   1.000  C
  C192     1.0000 0.30370  0.11760  0.17240  Biso   1.000  C
  H153     1.0000 0.22710  0.56220  0.16670  Biso   1.000  H
  H154     1.0000 0.27290  0.43780  0.66670  Biso   1.000  H
  H155     1.0000 0.77290  0.06220  0.33330  Biso   1.000  H
  H156     1.0000 0.72710  0.93780  0.83330  Biso   1.000  H
  H157     1.0000 0.77290  0.43780  0.83330  Biso   1.000  H
  H158     1.0000 0.72710  0.56220  0.33330  Biso   1.000  H
  H159     1.0000 0.22710  0.93780  0.66670  Biso   1.000  H
  H160     1.0000 0.27290  0.06220  0.16670  Biso   1.000  H
  H161     1.0000 0.23710  0.65890  0.15490  Biso   1.000  H
  H162     1.0000 0.26290  0.34110  0.65490  Biso   1.000  H
  H163     1.0000 0.76290  0.15890  0.34510  Biso   1.000  H
  H164     1.0000 0.73710  0.84110  0.84510  Biso   1.000  H
  H165     1.0000 0.76290  0.34110  0.84510  Biso   1.000  H
  H166     1.0000 0.73710  0.65890  0.34510  Biso   1.000  H
  H167     1.0000 0.23710  0.84110  0.65490  Biso   1.000  H
  H168     1.0000 0.26290  0.15890  0.15490  Biso   1.000  H
  H169     1.0000 0.19620  0.69490  0.22290  Biso   1.000  H
  H170     1.0000 0.30380  0.30510  0.72290  Biso   1.000  H
  H171     1.0000 0.80380  0.19490  0.27710  Biso   1.000  H
  H172     1.0000 0.69620  0.80510  0.77710  Biso   1.000  H
  H173     1.0000 0.80380  0.30510  0.77710  Biso   1.000  H
  H174     1.0000 0.69620  0.69490  0.27710  Biso   1.000  H
  H175     1.0000 0.19620  0.80510  0.72290  Biso   1.000  H
  H176     1.0000 0.30380  0.19490  0.22290  Biso   1.000  H
  H177     1.0000 0.18610  0.59820  0.23470  Biso   1.000  H
  H178     1.0000 0.31390  0.40180  0.73470  Biso   1.000  H
  H179     1.0000 0.81390  0.09820  0.26530  Biso   1.000  H
  H180     1.0000 0.68610  0.90180  0.76530  Biso   1.000  H
  H181     1.0000 0.81390  0.40180  0.76530  Biso   1.000  H
  H182     1.0000 0.68610  0.59820  0.26530  Biso   1.000  H
  H183     1.0000 0.18610  0.90180  0.73470  Biso   1.000  H
  H184     1.0000 0.31390  0.09820  0.23470  Biso   1.000  H
