data_image0
_cell_length_a       17.217
_cell_length_b       6.42
_cell_length_c       17.644
_cell_angle_alpha    90
_cell_angle_beta     90
_cell_angle_gamma    90

_symmetry_space_group_name_H-M    "P 1"
_symmetry_int_tables_number       1

loop_
  _symmetry_equiv_pos_as_xyz
  'x, y, z'

loop_
  _atom_site_label
  _atom_site_occupancy
  _atom_site_fract_x
  _atom_site_fract_y
  _atom_site_fract_z
  _atom_site_thermal_displace_type
  _atom_site_B_iso_or_equiv
  _atom_site_type_symbol
  Cu1      1.0000 0.04796  0.22438  0.48941  Biso   1.000  Cu
  Cu2      1.0000 0.95204  0.27562  0.98941  Biso   1.000  Cu
  Cu3      1.0000 0.54796  0.77562  0.01059  Biso   1.000  Cu
  Cu4      1.0000 0.45204  0.72438  0.51059  Biso   1.000  Cu
  Cu5      1.0000 0.95204  0.77562  0.51059  Biso   1.000  Cu
  Cu6      1.0000 0.04796  0.72438  0.01059  Biso   1.000  Cu
  Cu7      1.0000 0.45204  0.22438  0.98941  Biso   1.000  Cu
  Cu8      1.0000 0.54796  0.27562  0.48941  Biso   1.000  Cu
  O1       1.0000 0.13048  0.07730  0.35399  Biso   1.000  O
  O2       1.0000 0.86952  0.42270  0.85399  Biso   1.000  O
  O3       1.0000 0.63048  0.92270  0.14601  Biso   1.000  O
  O4       1.0000 0.36952  0.57730  0.64601  Biso   1.000  O
  O5       1.0000 0.86952  0.92270  0.64601  Biso   1.000  O
  O6       1.0000 0.13048  0.57730  0.14601  Biso   1.000  O
  O7       1.0000 0.36952  0.07730  0.85399  Biso   1.000  O
  O8       1.0000 0.63048  0.42270  0.35399  Biso   1.000  O
  O9       1.0000 0.03778  0.96560  0.43107  Biso   1.000  O
  O10      1.0000 0.96222  0.53440  0.93107  Biso   1.000  O
  O11      1.0000 0.53778  0.03440  0.06893  Biso   1.000  O
  O12      1.0000 0.46222  0.46560  0.56893  Biso   1.000  O
  O13      1.0000 0.96222  0.03440  0.56893  Biso   1.000  O
  O14      1.0000 0.03778  0.46560  0.06893  Biso   1.000  O
  O15      1.0000 0.46222  0.96560  0.93107  Biso   1.000  O
  O16      1.0000 0.53778  0.53440  0.43107  Biso   1.000  O
  N1       1.0000 0.14045  0.11160  0.54814  Biso   1.000  N
  N2       1.0000 0.85955  0.38840  0.04814  Biso   1.000  N
  N3       1.0000 0.64045  0.88840  0.95186  Biso   1.000  N
  N4       1.0000 0.35955  0.61160  0.45186  Biso   1.000  N
  N5       1.0000 0.85955  0.88840  0.45186  Biso   1.000  N
  N6       1.0000 0.14045  0.61160  0.95186  Biso   1.000  N
  N7       1.0000 0.35955  0.11160  0.04814  Biso   1.000  N
  N8       1.0000 0.64045  0.38840  0.54814  Biso   1.000  N
  N9       1.0000 0.02801  0.63940  0.57786  Biso   1.000  N
  N10      1.0000 0.97199  0.86060  0.07786  Biso   1.000  N
  N11      1.0000 0.52801  0.36060  0.92214  Biso   1.000  N
  N12      1.0000 0.47199  0.13940  0.42214  Biso   1.000  N
  N13      1.0000 0.97199  0.36060  0.42214  Biso   1.000  N
  N14      1.0000 0.02801  0.13940  0.92214  Biso   1.000  N
  N15      1.0000 0.47199  0.63940  0.07786  Biso   1.000  N
  N16      1.0000 0.52801  0.86060  0.57786  Biso   1.000  N
  N17      1.0000 0.06619  0.46230  0.55912  Biso   1.000  N
  N18      1.0000 0.93381  0.03770  0.05912  Biso   1.000  N
  N19      1.0000 0.56619  0.53770  0.94088  Biso   1.000  N
  N20      1.0000 0.43381  0.96230  0.44088  Biso   1.000  N
  N21      1.0000 0.93381  0.53770  0.44088  Biso   1.000  N
  N22      1.0000 0.06619  0.96230  0.94088  Biso   1.000  N
  N23      1.0000 0.43381  0.46230  0.05912  Biso   1.000  N
  N24      1.0000 0.56619  0.03770  0.55912  Biso   1.000  N
  C1       1.0000 0.05651  0.70940  0.64573  Biso   1.000  C
  C2       1.0000 0.94349  0.79060  0.14573  Biso   1.000  C
  C3       1.0000 0.55651  0.29060  0.85427  Biso   1.000  C
  C4       1.0000 0.44349  0.20940  0.35427  Biso   1.000  C
  C5       1.0000 0.94349  0.29060  0.35427  Biso   1.000  C
  C6       1.0000 0.05651  0.20940  0.85427  Biso   1.000  C
  C7       1.0000 0.44349  0.70940  0.14573  Biso   1.000  C
  C8       1.0000 0.55651  0.79060  0.64573  Biso   1.000  C
  H1       1.0000 0.03950  0.82850  0.67070  Biso   1.000  H
  H2       1.0000 0.96050  0.67150  0.17070  Biso   1.000  H
  H3       1.0000 0.53950  0.17150  0.82930  Biso   1.000  H
  H4       1.0000 0.46050  0.32850  0.32930  Biso   1.000  H
  H5       1.0000 0.96050  0.17150  0.32930  Biso   1.000  H
  H6       1.0000 0.03950  0.32850  0.82930  Biso   1.000  H
  H7       1.0000 0.46050  0.82850  0.17070  Biso   1.000  H
  H8       1.0000 0.53950  0.67150  0.67070  Biso   1.000  H
  C9       1.0000 0.11778  0.42570  0.61479  Biso   1.000  C
  C10      1.0000 0.88222  0.07430  0.11479  Biso   1.000  C
  C11      1.0000 0.61778  0.57430  0.88521  Biso   1.000  C
  C12      1.0000 0.38222  0.92570  0.38521  Biso   1.000  C
  C13      1.0000 0.88222  0.57430  0.38521  Biso   1.000  C
  C14      1.0000 0.11778  0.92570  0.88521  Biso   1.000  C
  C15      1.0000 0.38222  0.42570  0.11479  Biso   1.000  C
  C16      1.0000 0.61778  0.07430  0.61479  Biso   1.000  C
  C17      1.0000 0.22680  0.19110  0.65136  Biso   1.000  C
  C18      1.0000 0.77320  0.30890  0.15136  Biso   1.000  C
  C19      1.0000 0.72680  0.80890  0.84864  Biso   1.000  C
  C20      1.0000 0.27320  0.69110  0.34864  Biso   1.000  C
  C21      1.0000 0.77320  0.80890  0.34864  Biso   1.000  C
  C22      1.0000 0.22680  0.69110  0.84864  Biso   1.000  C
  C23      1.0000 0.27320  0.19110  0.15136  Biso   1.000  C
  C24      1.0000 0.72680  0.30890  0.65136  Biso   1.000  C
  H9       1.0000 0.24290  0.28090  0.68960  Biso   1.000  H
  H10      1.0000 0.75710  0.21910  0.18960  Biso   1.000  H
  H11      1.0000 0.74290  0.71910  0.81040  Biso   1.000  H
  H12      1.0000 0.25710  0.78090  0.31040  Biso   1.000  H
  H13      1.0000 0.75710  0.71910  0.31040  Biso   1.000  H
  H14      1.0000 0.24290  0.78090  0.81040  Biso   1.000  H
  H15      1.0000 0.25710  0.28090  0.18960  Biso   1.000  H
  H16      1.0000 0.74290  0.21910  0.68960  Biso   1.000  H
  C25      1.0000 0.08113  0.94990  0.37011  Biso   1.000  C
  C26      1.0000 0.91887  0.55010  0.87011  Biso   1.000  C
  C27      1.0000 0.58113  0.05010  0.12989  Biso   1.000  C
  C28      1.0000 0.41887  0.44990  0.62989  Biso   1.000  C
  C29      1.0000 0.91887  0.05010  0.62989  Biso   1.000  C
  C30      1.0000 0.08113  0.44990  0.12989  Biso   1.000  C
  C31      1.0000 0.41887  0.94990  0.87011  Biso   1.000  C
  C32      1.0000 0.58113  0.55010  0.37011  Biso   1.000  C
  C33      1.0000 0.11370  0.57910  0.67166  Biso   1.000  C
  C34      1.0000 0.88630  0.92090  0.17166  Biso   1.000  C
  C35      1.0000 0.61370  0.42090  0.82834  Biso   1.000  C
  C36      1.0000 0.38630  0.07910  0.32834  Biso   1.000  C
  C37      1.0000 0.88630  0.42090  0.32834  Biso   1.000  C
  C38      1.0000 0.11370  0.07910  0.82834  Biso   1.000  C
  C39      1.0000 0.38630  0.57910  0.17166  Biso   1.000  C
  C40      1.0000 0.61370  0.92090  0.67166  Biso   1.000  C
  H17      1.0000 0.14270  0.58940  0.71600  Biso   1.000  H
  H18      1.0000 0.85730  0.91060  0.21600  Biso   1.000  H
  H19      1.0000 0.64270  0.41060  0.78400  Biso   1.000  H
  H20      1.0000 0.35730  0.08940  0.28400  Biso   1.000  H
  H21      1.0000 0.85730  0.41060  0.28400  Biso   1.000  H
  H22      1.0000 0.14270  0.08940  0.78400  Biso   1.000  H
  H23      1.0000 0.35730  0.58940  0.21600  Biso   1.000  H
  H24      1.0000 0.64270  0.91060  0.71600  Biso   1.000  H
  C41      1.0000 0.16408  0.23840  0.60592  Biso   1.000  C
  C42      1.0000 0.83592  0.26160  0.10592  Biso   1.000  C
  C43      1.0000 0.66408  0.76160  0.89408  Biso   1.000  C
  C44      1.0000 0.33592  0.73840  0.39408  Biso   1.000  C
  C45      1.0000 0.83592  0.76160  0.39408  Biso   1.000  C
  C46      1.0000 0.16408  0.73840  0.89408  Biso   1.000  C
  C47      1.0000 0.33592  0.23840  0.10592  Biso   1.000  C
  C48      1.0000 0.66408  0.26160  0.60592  Biso   1.000  C
  C49      1.0000 0.06479  0.76450  0.31946  Biso   1.000  C
  C50      1.0000 0.93521  0.73550  0.81946  Biso   1.000  C
  C51      1.0000 0.56479  0.23550  0.18054  Biso   1.000  C
  C52      1.0000 0.43521  0.26450  0.68054  Biso   1.000  C
  C53      1.0000 0.93521  0.23550  0.68054  Biso   1.000  C
  C54      1.0000 0.06479  0.26450  0.18054  Biso   1.000  C
  C55      1.0000 0.43521  0.76450  0.81946  Biso   1.000  C
  C56      1.0000 0.56479  0.73550  0.31946  Biso   1.000  C
  H25      1.0000 0.02420  0.68160  0.34140  Biso   1.000  H
  H26      1.0000 0.97580  0.81840  0.84140  Biso   1.000  H
  H27      1.0000 0.52420  0.31840  0.15860  Biso   1.000  H
  H28      1.0000 0.47580  0.18160  0.65860  Biso   1.000  H
  H29      1.0000 0.97580  0.31840  0.65860  Biso   1.000  H
  H30      1.0000 0.02420  0.18160  0.15860  Biso   1.000  H
  H31      1.0000 0.47580  0.68160  0.84140  Biso   1.000  H
  H32      1.0000 0.52420  0.81840  0.34140  Biso   1.000  H
  H33      1.0000 0.11100  0.68180  0.31460  Biso   1.000  H
  H34      1.0000 0.88900  0.81820  0.81460  Biso   1.000  H
  H35      1.0000 0.61100  0.31820  0.18540  Biso   1.000  H
  H36      1.0000 0.38900  0.18180  0.68540  Biso   1.000  H
  H37      1.0000 0.88900  0.31820  0.68540  Biso   1.000  H
  H38      1.0000 0.11100  0.18180  0.18540  Biso   1.000  H
  H39      1.0000 0.38900  0.68180  0.81460  Biso   1.000  H
  H40      1.0000 0.61100  0.81820  0.31460  Biso   1.000  H
  H41      1.0000 0.04890  0.81250  0.27030  Biso   1.000  H
  H42      1.0000 0.95110  0.68750  0.77030  Biso   1.000  H
  H43      1.0000 0.54890  0.18750  0.22970  Biso   1.000  H
  H44      1.0000 0.45110  0.31250  0.72970  Biso   1.000  H
  H45      1.0000 0.95110  0.18750  0.72970  Biso   1.000  H
  H46      1.0000 0.04890  0.31250  0.22970  Biso   1.000  H
  H47      1.0000 0.45110  0.81250  0.77030  Biso   1.000  H
  H48      1.0000 0.54890  0.68750  0.27030  Biso   1.000  H
  C57      1.0000 0.24010  0.87440  0.57947  Biso   1.000  C
  C58      1.0000 0.75990  0.62560  0.07947  Biso   1.000  C
  C59      1.0000 0.74010  0.12560  0.92053  Biso   1.000  C
  C60      1.0000 0.25990  0.37440  0.42053  Biso   1.000  C
  C61      1.0000 0.75990  0.12560  0.42053  Biso   1.000  C
  C62      1.0000 0.24010  0.37440  0.92053  Biso   1.000  C
  C63      1.0000 0.25990  0.87440  0.07947  Biso   1.000  C
  C64      1.0000 0.74010  0.62560  0.57947  Biso   1.000  C
  H49      1.0000 0.26530  0.74880  0.57040  Biso   1.000  H
  H50      1.0000 0.73470  0.75120  0.07040  Biso   1.000  H
  H51      1.0000 0.76530  0.25120  0.92960  Biso   1.000  H
  H52      1.0000 0.23470  0.24880  0.42960  Biso   1.000  H
  H53      1.0000 0.73470  0.25120  0.42960  Biso   1.000  H
  H54      1.0000 0.26530  0.24880  0.92960  Biso   1.000  H
  H55      1.0000 0.23470  0.74880  0.07040  Biso   1.000  H
  H56      1.0000 0.76530  0.75120  0.57040  Biso   1.000  H
  C65      1.0000 0.26487  0.00510  0.63792  Biso   1.000  C
  C66      1.0000 0.73513  0.49490  0.13792  Biso   1.000  C
  C67      1.0000 0.76487  0.99490  0.86208  Biso   1.000  C
  C68      1.0000 0.23513  0.50510  0.36208  Biso   1.000  C
  C69      1.0000 0.73513  0.99490  0.36208  Biso   1.000  C
  C70      1.0000 0.26487  0.50510  0.86208  Biso   1.000  C
  C71      1.0000 0.23513  0.00510  0.13792  Biso   1.000  C
  C72      1.0000 0.76487  0.49490  0.63792  Biso   1.000  C
  H57      1.0000 0.30700  0.96690  0.66780  Biso   1.000  H
  H58      1.0000 0.69300  0.53310  0.16780  Biso   1.000  H
  H59      1.0000 0.80700  0.03310  0.83220  Biso   1.000  H
  H60      1.0000 0.19300  0.46690  0.33220  Biso   1.000  H
  H61      1.0000 0.69300  0.03310  0.33220  Biso   1.000  H
  H62      1.0000 0.30700  0.46690  0.83220  Biso   1.000  H
  H63      1.0000 0.19300  0.96690  0.16780  Biso   1.000  H
  H64      1.0000 0.80700  0.53310  0.66780  Biso   1.000  H
  C73      1.0000 0.17808  0.93330  0.53543  Biso   1.000  C
  C74      1.0000 0.82192  0.56670  0.03543  Biso   1.000  C
  C75      1.0000 0.67808  0.06670  0.96457  Biso   1.000  C
  C76      1.0000 0.32192  0.43330  0.46457  Biso   1.000  C
  C77      1.0000 0.82192  0.06670  0.46457  Biso   1.000  C
  C78      1.0000 0.17808  0.43330  0.96457  Biso   1.000  C
  C79      1.0000 0.32192  0.93330  0.03543  Biso   1.000  C
  C80      1.0000 0.67808  0.56670  0.53543  Biso   1.000  C
  H65      1.0000 0.16200  0.84730  0.49600  Biso   1.000  H
  H66      1.0000 0.83800  0.65270  0.99600  Biso   1.000  H
  H67      1.0000 0.66200  0.15270  0.00400  Biso   1.000  H
  H68      1.0000 0.33800  0.34730  0.50400  Biso   1.000  H
  H69      1.0000 0.83800  0.15270  0.50400  Biso   1.000  H
  H70      1.0000 0.16200  0.34730  0.00400  Biso   1.000  H
  H71      1.0000 0.33800  0.84730  0.99600  Biso   1.000  H
  H72      1.0000 0.66200  0.65270  0.49600  Biso   1.000  H
