data_image0
_cell_length_a       5.8517
_cell_length_b       8.5609
_cell_length_c       9.5186
_cell_angle_alpha    110.627
_cell_angle_beta     97.711
_cell_angle_gamma    91.011

_symmetry_space_group_name_H-M    "P 1"
_symmetry_int_tables_number       1

loop_
  _symmetry_equiv_pos_as_xyz
  'x, y, z'

loop_
  _atom_site_label
  _atom_site_occupancy
  _atom_site_fract_x
  _atom_site_fract_y
  _atom_site_fract_z
  _atom_site_thermal_displace_type
  _atom_site_B_iso_or_equiv
  _atom_site_type_symbol
  Cu1      1.0000 0.75826  0.92740  0.42038  Biso   1.000  Cu
  Cu2      1.0000 0.24174  0.07260  0.57962  Biso   1.000  Cu
  Cl1      1.0000 0.43649  0.02168  0.32436  Biso   1.000  Cl
  Cl2      1.0000 0.56351  0.97832  0.67564  Biso   1.000  Cl
  O1       1.0000 0.95050  0.13290  0.49200  Biso   1.000  O
  O2       1.0000 0.04950  0.86710  0.50800  Biso   1.000  O
  N1       1.0000 0.67340  0.68690  0.29590  Biso   1.000  N
  N2       1.0000 0.32660  0.31310  0.70410  Biso   1.000  N
  N3       1.0000 0.75080  0.44890  0.08960  Biso   1.000  N
  N4       1.0000 0.24920  0.55110  0.91040  Biso   1.000  N
  C1       1.0000 0.43600  0.43430  0.22140  Biso   1.000  C
  C2       1.0000 0.56400  0.56570  0.77860  Biso   1.000  C
  C3       1.0000 0.57140  0.36480  0.10850  Biso   1.000  C
  C4       1.0000 0.42860  0.63520  0.89150  Biso   1.000  C
  N5       1.0000 0.98210  0.69300  0.16890  Biso   1.000  N
  N6       1.0000 0.01790  0.30700  0.83110  Biso   1.000  N
  C5       1.0000 0.94370  0.26070  0.43060  Biso   1.000  C
  C6       1.0000 0.05630  0.73930  0.56940  Biso   1.000  C
  C7       1.0000 0.79910  0.60750  0.18560  Biso   1.000  C
  C8       1.0000 0.20090  0.39250  0.81440  Biso   1.000  C
  C9       1.0000 0.49380  0.59780  0.31250  Biso   1.000  C
  C10      1.0000 0.50620  0.40220  0.68750  Biso   1.000  C
  H1       1.0000 0.30889  0.37116  0.23476  Biso   1.000  H
  H2       1.0000 0.69111  0.62884  0.76524  Biso   1.000  H
  H3       1.0000 0.53376  0.25110  0.04115  Biso   1.000  H
  H4       1.0000 0.46624  0.74890  0.95885  Biso   1.000  H
  H5       1.0000 0.93418  0.36645  0.50965  Biso   1.000  H
  H6       1.0000 0.06582  0.63355  0.49035  Biso   1.000  H
  H7       1.0000 0.08149  0.26366  0.38677  Biso   1.000  H
  H8       1.0000 0.91851  0.73634  0.61323  Biso   1.000  H
  H9       1.0000 0.81094  0.23914  0.35364  Biso   1.000  H
  H10      1.0000 0.18906  0.76086  0.64636  Biso   1.000  H
  H11      1.0000 0.40307  0.65079  0.39099  Biso   1.000  H
  H12      1.0000 0.59693  0.34921  0.60901  Biso   1.000  H
  H13      1.0000 0.06600  0.65400  0.10600  Biso   1.000  H
  H14      1.0000 0.93400  0.34600  0.89400  Biso   1.000  H
  H15      1.0000 0.03700  0.77800  0.23600  Biso   1.000  H
  H16      1.0000 0.96300  0.22200  0.76400  Biso   1.000  H
  C11      1.0000 0.00000  0.00000  0.00000  Biso   1.000  C
  O3       1.0000 0.24330  0.02950  0.00010  Biso   1.000  O
  O4       1.0000 0.75670  0.97050  0.99990  Biso   1.000  O
  H17      1.0000 0.95582  0.88282  0.94974  Biso   1.000  H
  H18      1.0000 0.04418  0.11718  0.05026  Biso   1.000  H
  H19      1.0000 0.96904  0.03531  0.10273  Biso   1.000  H
  H20      1.0000 0.03096  0.96469  0.89727  Biso   1.000  H
  H21      1.0000 0.91309  0.06222  0.94745  Biso   1.000  H
  H22      1.0000 0.08691  0.93778  0.05255  Biso   1.000  H
  H23      1.0000 0.31900  0.04000  0.08800  Biso   1.000  H
  H24      1.0000 0.68100  0.96000  0.91200  Biso   1.000  H
