data_image0
_cell_length_a       6.63
_cell_length_b       7.443
_cell_length_c       9.702
_cell_angle_alpha    95.38
_cell_angle_beta     102.72
_cell_angle_gamma    101.12

_symmetry_space_group_name_H-M    "P 1"
_symmetry_int_tables_number       1

loop_
  _symmetry_equiv_pos_as_xyz
  'x, y, z'

loop_
  _atom_site_label
  _atom_site_occupancy
  _atom_site_fract_x
  _atom_site_fract_y
  _atom_site_fract_z
  _atom_site_thermal_displace_type
  _atom_site_B_iso_or_equiv
  _atom_site_type_symbol
  Cu1      1.0000 0.14099  0.19786  0.47647  Biso   1.000  Cu
  Cu2      1.0000 0.85901  0.80214  0.52353  Biso   1.000  Cu
  Cl1      1.0000 0.27260  0.03140  0.64520  Biso   1.000  Cl
  Cl2      1.0000 0.72740  0.96860  0.35480  Biso   1.000  Cl
  O1       1.0000 0.02750  0.33290  0.61580  Biso   1.000  O
  O2       1.0000 0.97250  0.66710  0.38420  Biso   1.000  O
  N1       1.0000 0.76780  0.94740  0.66970  Biso   1.000  N
  N2       1.0000 0.23220  0.05260  0.33030  Biso   1.000  N
  N3       1.0000 0.90170  0.60060  0.63330  Biso   1.000  N
  N4       1.0000 0.09830  0.39940  0.36670  Biso   1.000  N
  C1       1.0000 0.98000  0.47870  0.57100  Biso   1.000  C
  C2       1.0000 0.02000  0.52130  0.42900  Biso   1.000  C
  C3       1.0000 0.80870  0.89890  0.81640  Biso   1.000  C
  C4       1.0000 0.19130  0.10110  0.18360  Biso   1.000  C
  C5       1.0000 0.72870  0.69420  0.82440  Biso   1.000  C
  C6       1.0000 0.27130  0.30580  0.17560  Biso   1.000  C
  C7       1.0000 0.50070  0.62300  0.73580  Biso   1.000  C
  C8       1.0000 0.49930  0.37700  0.26420  Biso   1.000  C
  C9       1.0000 0.74160  0.67670  0.98190  Biso   1.000  C
  C10      1.0000 0.25840  0.32330  0.01810  Biso   1.000  C
  C11      1.0000 0.87340  0.57820  0.77650  Biso   1.000  C
  C12      1.0000 0.12660  0.42180  0.22350  Biso   1.000  C
  H1       1.0000 0.83400  0.04500  0.67900  Biso   1.000  H
  H2       1.0000 0.16600  0.95500  0.32100  Biso   1.000  H
  H3       1.0000 0.63500  0.94800  0.63700  Biso   1.000  H
  H4       1.0000 0.36500  0.05200  0.36300  Biso   1.000  H
  H5       1.0000 0.74400  0.97200  0.87200  Biso   1.000  H
  H6       1.0000 0.25600  0.02800  0.12800  Biso   1.000  H
  H7       1.0000 0.96100  0.94400  0.85600  Biso   1.000  H
  H8       1.0000 0.03900  0.05600  0.14400  Biso   1.000  H
  H9       1.0000 0.42300  0.69200  0.77400  Biso   1.000  H
  H10      1.0000 0.57700  0.30800  0.22600  Biso   1.000  H
  H11      1.0000 0.45600  0.50500  0.74700  Biso   1.000  H
  H12      1.0000 0.54400  0.49500  0.25300  Biso   1.000  H
  H13      1.0000 0.49400  0.63600  0.63500  Biso   1.000  H
  H14      1.0000 0.50600  0.36400  0.36500  Biso   1.000  H
  H15      1.0000 0.65500  0.74300  0.02000  Biso   1.000  H
  H16      1.0000 0.34500  0.25700  0.98000  Biso   1.000  H
  H17      1.0000 0.69300  0.56700  0.99300  Biso   1.000  H
  H18      1.0000 0.30700  0.43300  0.00700  Biso   1.000  H
  H19      1.0000 0.89000  0.72900  0.04600  Biso   1.000  H
  H20      1.0000 0.11000  0.27100  0.95400  Biso   1.000  H
  H21      1.0000 0.02200  0.63000  0.85000  Biso   1.000  H
  H22      1.0000 0.97800  0.37000  0.15000  Biso   1.000  H
  H23      1.0000 0.82600  0.46400  0.78300  Biso   1.000  H
  H24      1.0000 0.17400  0.53600  0.21700  Biso   1.000  H
