data_image0
_cell_length_a       11.1786
_cell_length_b       18.2807
_cell_length_c       10.1395
_cell_angle_alpha    90
_cell_angle_beta     98.641
_cell_angle_gamma    90

_symmetry_space_group_name_H-M    "P 1"
_symmetry_int_tables_number       1

loop_
  _symmetry_equiv_pos_as_xyz
  'x, y, z'

loop_
  _atom_site_label
  _atom_site_occupancy
  _atom_site_fract_x
  _atom_site_fract_y
  _atom_site_fract_z
  _atom_site_thermal_displace_type
  _atom_site_B_iso_or_equiv
  _atom_site_type_symbol
  Cu1      1.0000 0.47444  0.15498  0.90560  Biso   1.000  Cu
  Cu2      1.0000 0.52556  0.65498  0.59440  Biso   1.000  Cu
  Cu3      1.0000 0.52556  0.84502  0.09440  Biso   1.000  Cu
  Cu4      1.0000 0.47444  0.34502  0.40560  Biso   1.000  Cu
  O1       1.0000 0.31605  0.18380  0.82987  Biso   1.000  O
  O2       1.0000 0.68395  0.68380  0.67013  Biso   1.000  O
  O3       1.0000 0.68395  0.81620  0.17013  Biso   1.000  O
  O4       1.0000 0.31605  0.31620  0.32987  Biso   1.000  O
  O5       1.0000 0.79001  0.09726  0.24519  Biso   1.000  O
  O6       1.0000 0.20999  0.59726  0.25481  Biso   1.000  O
  O7       1.0000 0.20999  0.90274  0.75481  Biso   1.000  O
  O8       1.0000 0.79001  0.40274  0.74519  Biso   1.000  O
  O9       1.0000 0.62853  0.11483  0.98954  Biso   1.000  O
  O10      1.0000 0.37147  0.61483  0.51046  Biso   1.000  O
  O11      1.0000 0.37147  0.88517  0.01046  Biso   1.000  O
  O12      1.0000 0.62853  0.38517  0.48954  Biso   1.000  O
  N1       1.0000 0.41935  0.10299  0.05266  Biso   1.000  N
  N2       1.0000 0.58065  0.60299  0.44734  Biso   1.000  N
  N3       1.0000 0.58065  0.89701  0.94734  Biso   1.000  N
  N4       1.0000 0.41935  0.39701  0.55266  Biso   1.000  N
  N5       1.0000 0.51115  0.06655  0.13814  Biso   1.000  N
  N6       1.0000 0.48885  0.56655  0.36186  Biso   1.000  N
  N7       1.0000 0.48885  0.93345  0.86186  Biso   1.000  N
  N8       1.0000 0.51115  0.43345  0.63814  Biso   1.000  N
  N9       1.0000 0.52811  0.16059  0.71731  Biso   1.000  N
  N10      1.0000 0.47189  0.66059  0.78269  Biso   1.000  N
  N11      1.0000 0.47189  0.83941  0.28269  Biso   1.000  N
  N12      1.0000 0.52811  0.33941  0.21731  Biso   1.000  N
  N13      1.0000 0.48338  0.09515  0.50398  Biso   1.000  N
  N14      1.0000 0.51662  0.59515  0.99602  Biso   1.000  N
  N15      1.0000 0.51662  0.90485  0.49602  Biso   1.000  N
  N16      1.0000 0.48338  0.40485  0.00398  Biso   1.000  N
  N17      1.0000 0.52655  0.22629  0.50436  Biso   1.000  N
  N18      1.0000 0.47345  0.72629  0.99564  Biso   1.000  N
  N19      1.0000 0.47345  0.77371  0.49564  Biso   1.000  N
  N20      1.0000 0.52655  0.27371  0.00436  Biso   1.000  N
  N21      1.0000 0.68859  0.13940  0.58175  Biso   1.000  N
  N22      1.0000 0.31141  0.63940  0.91825  Biso   1.000  N
  N23      1.0000 0.31141  0.86060  0.41825  Biso   1.000  N
  N24      1.0000 0.68859  0.36060  0.08175  Biso   1.000  N
  C1       1.0000 0.20694  0.12903  0.99450  Biso   1.000  C
  C2       1.0000 0.79306  0.62903  0.50550  Biso   1.000  C
  C3       1.0000 0.79306  0.87097  0.00550  Biso   1.000  C
  C4       1.0000 0.20694  0.37097  0.49450  Biso   1.000  C
  C5       1.0000 0.09150  0.11612  0.03120  Biso   1.000  C
  C6       1.0000 0.90850  0.61612  0.46880  Biso   1.000  C
  C7       1.0000 0.90850  0.88388  0.96880  Biso   1.000  C
  C8       1.0000 0.09150  0.38388  0.53120  Biso   1.000  C
  H1       1.0000 0.08650  0.09280  0.11160  Biso   1.000  H
  H2       1.0000 0.91350  0.59280  0.38840  Biso   1.000  H
  H3       1.0000 0.91350  0.90720  0.88840  Biso   1.000  H
  H4       1.0000 0.08650  0.40720  0.61160  Biso   1.000  H
  C9       1.0000 0.98710  0.13700  0.95170  Biso   1.000  C
  C10      1.0000 0.01290  0.63700  0.54830  Biso   1.000  C
  C11      1.0000 0.01290  0.86300  0.04830  Biso   1.000  C
  C12      1.0000 0.98710  0.36300  0.45170  Biso   1.000  C
  H5       1.0000 0.91220  0.12780  0.97780  Biso   1.000  H
  H6       1.0000 0.08780  0.62780  0.52220  Biso   1.000  H
  H7       1.0000 0.08780  0.87220  0.02220  Biso   1.000  H
  H8       1.0000 0.91220  0.37220  0.47780  Biso   1.000  H
  C13      1.0000 0.99430  0.17188  0.83270  Biso   1.000  C
  C14      1.0000 0.00570  0.67188  0.66730  Biso   1.000  C
  C15      1.0000 0.00570  0.82812  0.16730  Biso   1.000  C
  C16      1.0000 0.99430  0.32812  0.33270  Biso   1.000  C
  H9       1.0000 0.92360  0.18510  0.77740  Biso   1.000  H
  H10      1.0000 0.07640  0.68510  0.72260  Biso   1.000  H
  H11      1.0000 0.07640  0.81490  0.22260  Biso   1.000  H
  H12      1.0000 0.92360  0.31490  0.27740  Biso   1.000  H
  C17      1.0000 0.10530  0.18750  0.79410  Biso   1.000  C
  C18      1.0000 0.89470  0.68750  0.70590  Biso   1.000  C
  C19      1.0000 0.89470  0.81250  0.20590  Biso   1.000  C
  C20      1.0000 0.10530  0.31250  0.29410  Biso   1.000  C
  H13      1.0000 0.10790  0.21190  0.71410  Biso   1.000  H
  H14      1.0000 0.89210  0.71190  0.78590  Biso   1.000  H
  H15      1.0000 0.89210  0.78810  0.28590  Biso   1.000  H
  H16      1.0000 0.10790  0.28810  0.21410  Biso   1.000  H
  C21      1.0000 0.21432  0.16713  0.87390  Biso   1.000  C
  C22      1.0000 0.78568  0.66713  0.62610  Biso   1.000  C
  C23      1.0000 0.78568  0.83287  0.12610  Biso   1.000  C
  C24      1.0000 0.21432  0.33287  0.37390  Biso   1.000  C
  C25      1.0000 0.31020  0.09864  0.07870  Biso   1.000  C
  C26      1.0000 0.68980  0.59864  0.42130  Biso   1.000  C
  C27      1.0000 0.68980  0.90136  0.92130  Biso   1.000  C
  C28      1.0000 0.31020  0.40136  0.57870  Biso   1.000  C
  H17      1.0000 0.29750  0.07450  0.15610  Biso   1.000  H
  H18      1.0000 0.70250  0.57450  0.34390  Biso   1.000  H
  H19      1.0000 0.70250  0.92550  0.84390  Biso   1.000  H
  H20      1.0000 0.29750  0.42550  0.65610  Biso   1.000  H
  C29      1.0000 0.61365  0.07660  0.09287  Biso   1.000  C
  C30      1.0000 0.38635  0.57660  0.40713  Biso   1.000  C
  C31      1.0000 0.38635  0.92340  0.90713  Biso   1.000  C
  C32      1.0000 0.61365  0.42340  0.59287  Biso   1.000  C
  C33      1.0000 0.72495  0.04069  0.16770  Biso   1.000  C
  C34      1.0000 0.27505  0.54069  0.33230  Biso   1.000  C
  C35      1.0000 0.27505  0.95931  0.83230  Biso   1.000  C
  C36      1.0000 0.72495  0.45931  0.66770  Biso   1.000  C
  C37      1.0000 0.90711  0.08105  0.30270  Biso   1.000  C
  C38      1.0000 0.09289  0.58105  0.19730  Biso   1.000  C
  C39      1.0000 0.09289  0.91895  0.69730  Biso   1.000  C
  C40      1.0000 0.90711  0.41895  0.80270  Biso   1.000  C
  C41      1.0000 0.96130  0.01356  0.29690  Biso   1.000  C
  C42      1.0000 0.03870  0.51356  0.20310  Biso   1.000  C
  C43      1.0000 0.03870  0.98644  0.70310  Biso   1.000  C
  C44      1.0000 0.96130  0.48644  0.79690  Biso   1.000  C
  H21      1.0000 0.91890  0.97450  0.25370  Biso   1.000  H
  H22      1.0000 0.08110  0.47450  0.24630  Biso   1.000  H
  H23      1.0000 0.08110  0.02550  0.74630  Biso   1.000  H
  H24      1.0000 0.91890  0.52550  0.75370  Biso   1.000  H
  C45      1.0000 0.08130  0.00510  0.35730  Biso   1.000  C
  C46      1.0000 0.91870  0.50510  0.14270  Biso   1.000  C
  C47      1.0000 0.91870  0.99490  0.64270  Biso   1.000  C
  C48      1.0000 0.08130  0.49490  0.85730  Biso   1.000  C
  H25      1.0000 0.11870  0.95980  0.35470  Biso   1.000  H
  H26      1.0000 0.88130  0.45980  0.14530  Biso   1.000  H
  H27      1.0000 0.88130  0.04020  0.64530  Biso   1.000  H
  H28      1.0000 0.11870  0.54020  0.85470  Biso   1.000  H
  C49      1.0000 0.14460  0.06237  0.42000  Biso   1.000  C
  C50      1.0000 0.85540  0.56237  0.08000  Biso   1.000  C
  C51      1.0000 0.85540  0.93763  0.58000  Biso   1.000  C
  C52      1.0000 0.14460  0.43763  0.92000  Biso   1.000  C
  H29      1.0000 0.22490  0.05620  0.45820  Biso   1.000  H
  H30      1.0000 0.77510  0.55620  0.04180  Biso   1.000  H
  H31      1.0000 0.77510  0.94380  0.54180  Biso   1.000  H
  H32      1.0000 0.22490  0.44380  0.95820  Biso   1.000  H
  C53      1.0000 0.08870  0.12947  0.42650  Biso   1.000  C
  C54      1.0000 0.91130  0.62947  0.07350  Biso   1.000  C
  C55      1.0000 0.91130  0.87053  0.57350  Biso   1.000  C
  C56      1.0000 0.08870  0.37053  0.92650  Biso   1.000  C
  H33      1.0000 0.13130  0.16840  0.46980  Biso   1.000  H
  H34      1.0000 0.86870  0.66840  0.03020  Biso   1.000  H
  H35      1.0000 0.86870  0.83160  0.53020  Biso   1.000  H
  H36      1.0000 0.13130  0.33160  0.96980  Biso   1.000  H
  C57      1.0000 0.97000  0.13873  0.36890  Biso   1.000  C
  C58      1.0000 0.03000  0.63873  0.13110  Biso   1.000  C
  C59      1.0000 0.03000  0.86127  0.63110  Biso   1.000  C
  C60      1.0000 0.97000  0.36127  0.86890  Biso   1.000  C
  H37      1.0000 0.93210  0.18370  0.37450  Biso   1.000  H
  H38      1.0000 0.06790  0.68370  0.12550  Biso   1.000  H
  H39      1.0000 0.06790  0.81630  0.62550  Biso   1.000  H
  H40      1.0000 0.93210  0.31630  0.87450  Biso   1.000  H
  C61      1.0000 0.45710  0.10058  0.64000  Biso   1.000  C
  C62      1.0000 0.54290  0.60058  0.86000  Biso   1.000  C
  C63      1.0000 0.54290  0.89942  0.36000  Biso   1.000  C
  C64      1.0000 0.45710  0.39942  0.14000  Biso   1.000  C
  H41      1.0000 0.47600  0.05430  0.68530  Biso   1.000  H
  H42      1.0000 0.52400  0.55430  0.81470  Biso   1.000  H
  H43      1.0000 0.52400  0.94570  0.31470  Biso   1.000  H
  H44      1.0000 0.47600  0.44570  0.18530  Biso   1.000  H
  H45      1.0000 0.37130  0.10980  0.63770  Biso   1.000  H
  H46      1.0000 0.62870  0.60980  0.86230  Biso   1.000  H
  H47      1.0000 0.62870  0.89020  0.36230  Biso   1.000  H
  H48      1.0000 0.37130  0.39020  0.13770  Biso   1.000  H
  C65      1.0000 0.49927  0.23023  0.64230  Biso   1.000  C
  C66      1.0000 0.50073  0.73023  0.85770  Biso   1.000  C
  C67      1.0000 0.50073  0.76977  0.35770  Biso   1.000  C
  C68      1.0000 0.49927  0.26977  0.14230  Biso   1.000  C
  H49      1.0000 0.41410  0.24140  0.63990  Biso   1.000  H
  H50      1.0000 0.58590  0.74140  0.86010  Biso   1.000  H
  H51      1.0000 0.58590  0.75860  0.36010  Biso   1.000  H
  H52      1.0000 0.41410  0.25860  0.13990  Biso   1.000  H
  H53      1.0000 0.54560  0.26970  0.68900  Biso   1.000  H
  H54      1.0000 0.45440  0.76970  0.81100  Biso   1.000  H
  H55      1.0000 0.45440  0.73030  0.31100  Biso   1.000  H
  H56      1.0000 0.54560  0.23030  0.18900  Biso   1.000  H
  C69      1.0000 0.65960  0.14443  0.71680  Biso   1.000  C
  C70      1.0000 0.34040  0.64443  0.78320  Biso   1.000  C
  C71      1.0000 0.34040  0.85557  0.28320  Biso   1.000  C
  C72      1.0000 0.65960  0.35557  0.21680  Biso   1.000  C
  H57      1.0000 0.70800  0.18280  0.76460  Biso   1.000  H
  H58      1.0000 0.29200  0.68280  0.73540  Biso   1.000  H
  H59      1.0000 0.29200  0.81720  0.23540  Biso   1.000  H
  H60      1.0000 0.70800  0.31720  0.26460  Biso   1.000  H
  H61      1.0000 0.68020  0.09860  0.76300  Biso   1.000  H
  H62      1.0000 0.31980  0.59860  0.73700  Biso   1.000  H
  H63      1.0000 0.31980  0.90140  0.23700  Biso   1.000  H
  H64      1.0000 0.68020  0.40140  0.26300  Biso   1.000  H
  C73      1.0000 0.61410  0.08107  0.51060  Biso   1.000  C
  C74      1.0000 0.38590  0.58107  0.98940  Biso   1.000  C
  C75      1.0000 0.38590  0.91893  0.48940  Biso   1.000  C
  C76      1.0000 0.61410  0.41893  0.01060  Biso   1.000  C
  H65      1.0000 0.63390  0.03480  0.55560  Biso   1.000  H
  H66      1.0000 0.36610  0.53480  0.94440  Biso   1.000  H
  H67      1.0000 0.36610  0.96520  0.44440  Biso   1.000  H
  H68      1.0000 0.63390  0.46520  0.05560  Biso   1.000  H
  H69      1.0000 0.63330  0.07690  0.42070  Biso   1.000  H
  H70      1.0000 0.36670  0.57690  0.07930  Biso   1.000  H
  H71      1.0000 0.36670  0.92310  0.57930  Biso   1.000  H
  H72      1.0000 0.63330  0.42310  0.92070  Biso   1.000  H
  C77      1.0000 0.45560  0.16498  0.43630  Biso   1.000  C
  C78      1.0000 0.54440  0.66498  0.06370  Biso   1.000  C
  C79      1.0000 0.54440  0.83502  0.56370  Biso   1.000  C
  C80      1.0000 0.45560  0.33502  0.93630  Biso   1.000  C
  H73      1.0000 0.37010  0.17530  0.43240  Biso   1.000  H
  H74      1.0000 0.62990  0.67530  0.06760  Biso   1.000  H
  H75      1.0000 0.62990  0.82470  0.56760  Biso   1.000  H
  H76      1.0000 0.37010  0.32470  0.93240  Biso   1.000  H
  H77      1.0000 0.47260  0.16130  0.34550  Biso   1.000  H
  H78      1.0000 0.52740  0.66130  0.15450  Biso   1.000  H
  H79      1.0000 0.52740  0.83870  0.65450  Biso   1.000  H
  H80      1.0000 0.47260  0.33870  0.84550  Biso   1.000  H
  C81      1.0000 0.65698  0.20833  0.51170  Biso   1.000  C
  C82      1.0000 0.34302  0.70833  0.98830  Biso   1.000  C
  C83      1.0000 0.34302  0.79167  0.48830  Biso   1.000  C
  C84      1.0000 0.65698  0.29167  0.01170  Biso   1.000  C
  H81      1.0000 0.67680  0.20500  0.42200  Biso   1.000  H
  H82      1.0000 0.32320  0.70500  0.07800  Biso   1.000  H
  H83      1.0000 0.32320  0.79500  0.57800  Biso   1.000  H
  H84      1.0000 0.67680  0.29500  0.92200  Biso   1.000  H
  H85      1.0000 0.70490  0.24750  0.55740  Biso   1.000  H
  H86      1.0000 0.29510  0.74750  0.94260  Biso   1.000  H
  H87      1.0000 0.29510  0.75250  0.44260  Biso   1.000  H
  H88      1.0000 0.70490  0.25250  0.05740  Biso   1.000  H
