data_image0
_cell_length_a       14.1938
_cell_length_b       15.3033
_cell_length_c       17.2213
_cell_angle_alpha    108.142
_cell_angle_beta     104.842
_cell_angle_gamma    103.221

_symmetry_space_group_name_H-M    "P 1"
_symmetry_int_tables_number       1

loop_
  _symmetry_equiv_pos_as_xyz
  'x, y, z'

loop_
  _atom_site_label
  _atom_site_occupancy
  _atom_site_fract_x
  _atom_site_fract_y
  _atom_site_fract_z
  _atom_site_thermal_displace_type
  _atom_site_B_iso_or_equiv
  _atom_site_type_symbol
  Cu1      1.0000 0.53016  0.73337  0.30545  Biso   1.000  Cu
  Cu2      1.0000 0.46984  0.26663  0.69455  Biso   1.000  Cu
  Cu3      1.0000 0.72283  0.03692  0.31283  Biso   1.000  Cu
  Cu4      1.0000 0.27717  0.96308  0.68717  Biso   1.000  Cu
  Cu5      1.0000 0.94989  0.24253  0.23069  Biso   1.000  Cu
  Cu6      1.0000 0.05011  0.75747  0.76931  Biso   1.000  Cu
  Cu7      1.0000 0.25789  0.44162  0.23004  Biso   1.000  Cu
  Cu8      1.0000 0.74211  0.55838  0.76996  Biso   1.000  Cu
  O1       1.0000 0.63660  0.76770  0.41270  Biso   1.000  O
  O2       1.0000 0.36340  0.23230  0.58730  Biso   1.000  O
  O3       1.0000 0.41250  0.67850  0.19191  Biso   1.000  O
  O4       1.0000 0.58750  0.32150  0.80809  Biso   1.000  O
  O5       1.0000 0.17510  0.47790  0.10021  Biso   1.000  O
  O6       1.0000 0.82490  0.52210  0.89979  Biso   1.000  O
  O7       1.0000 0.74080  0.14900  0.41070  Biso   1.000  O
  O8       1.0000 0.25920  0.85100  0.58930  Biso   1.000  O
  O9       1.0000 0.69500  0.91279  0.21504  Biso   1.000  O
  O10      1.0000 0.30500  0.08721  0.78496  Biso   1.000  O
  O11      1.0000 0.62640  0.68200  0.21300  Biso   1.000  O
  O12      1.0000 0.37360  0.31800  0.78700  Biso   1.000  O
  O13      1.0000 0.89160  0.24190  0.11806  Biso   1.000  O
  O14      1.0000 0.10840  0.75810  0.88194  Biso   1.000  O
  O15      1.0000 0.00270  0.21950  0.33661  Biso   1.000  O
  O16      1.0000 0.99730  0.78050  0.66339  Biso   1.000  O
  O17      1.0000 0.89470  0.04050  0.41070  Biso   1.000  O
  O18      1.0000 0.10530  0.95950  0.58930  Biso   1.000  O
  O19      1.0000 0.32850  0.37250  0.16950  Biso   1.000  O
  O20      1.0000 0.67150  0.62750  0.83050  Biso   1.000  O
  O21      1.0000 0.19040  0.50173  0.30631  Biso   1.000  O
  O22      1.0000 0.80960  0.49827  0.69369  Biso   1.000  O
  O23      1.0000 0.95440  0.40880  0.33540  Biso   1.000  O
  O24      1.0000 0.04560  0.59120  0.66460  Biso   1.000  O
  N1       1.0000 0.15180  0.32570  0.21200  Biso   1.000  N
  N2       1.0000 0.84820  0.67430  0.78800  Biso   1.000  N
  N3       1.0000 0.82400  0.14960  0.21960  Biso   1.000  N
  N4       1.0000 0.17600  0.85040  0.78040  Biso   1.000  N
  N5       1.0000 0.60350  0.84900  0.28800  Biso   1.000  N
  N6       1.0000 0.39650  0.15100  0.71200  Biso   1.000  N
  N7       1.0000 0.08090  0.34410  0.25350  Biso   1.000  N
  N8       1.0000 0.91910  0.65590  0.74650  Biso   1.000  N
  N9       1.0000 0.83570  0.11590  0.28670  Biso   1.000  N
  N10      1.0000 0.16430  0.88410  0.71330  Biso   1.000  N
  N11      1.0000 0.44210  0.62850  0.32080  Biso   1.000  N
  N12      1.0000 0.55790  0.37150  0.67920  Biso   1.000  N
  N13      1.0000 0.63950  0.94770  0.34670  Biso   1.000  N
  N14      1.0000 0.36050  0.05230  0.65330  Biso   1.000  N
  N15      1.0000 0.35310  0.56940  0.24730  Biso   1.000  N
  N16      1.0000 0.64690  0.43060  0.75270  Biso   1.000  N
  O25      1.0000 0.56080  0.05070  0.22670  Biso   1.000  O
  O26      1.0000 0.43920  0.94930  0.77330  Biso   1.000  O
  N17      1.0000 0.42790  0.08110  0.26440  Biso   1.000  N
  N18      1.0000 0.57210  0.91890  0.73560  Biso   1.000  N
  C1       1.0000 0.63420  0.73120  0.47170  Biso   1.000  C
  C2       1.0000 0.36580  0.26880  0.52830  Biso   1.000  C
  C3       1.0000 0.72430  0.76630  0.54650  Biso   1.000  C
  C4       1.0000 0.27570  0.23370  0.45350  Biso   1.000  C
  H1       1.0000 0.78250  0.81350  0.55140  Biso   1.000  H
  H2       1.0000 0.21750  0.18650  0.44860  Biso   1.000  H
  C5       1.0000 0.72840  0.73300  0.61160  Biso   1.000  C
  C6       1.0000 0.27160  0.26700  0.38840  Biso   1.000  C
  H3       1.0000 0.78990  0.75590  0.65880  Biso   1.000  H
  H4       1.0000 0.21010  0.24410  0.34120  Biso   1.000  H
  C7       1.0000 0.64360  0.66670  0.60850  Biso   1.000  C
  C8       1.0000 0.35640  0.33330  0.39150  Biso   1.000  C
  H5       1.0000 0.64600  0.64630  0.65430  Biso   1.000  H
  H6       1.0000 0.35400  0.35370  0.34570  Biso   1.000  H
  C9       1.0000 0.55440  0.63050  0.53690  Biso   1.000  C
  C10      1.0000 0.44560  0.36950  0.46310  Biso   1.000  C
  H7       1.0000 0.49650  0.58540  0.53490  Biso   1.000  H
  H8       1.0000 0.50350  0.41460  0.46510  Biso   1.000  H
  C11      1.0000 0.54800  0.65930  0.46650  Biso   1.000  C
  C12      1.0000 0.45200  0.34070  0.53350  Biso   1.000  C
  C13      1.0000 0.45580  0.60930  0.38990  Biso   1.000  C
  C14      1.0000 0.54420  0.39070  0.61010  Biso   1.000  C
  H9       1.0000 0.40310  0.56050  0.39020  Biso   1.000  H
  H10      1.0000 0.59690  0.43950  0.60980  Biso   1.000  H
  C15      1.0000 0.34810  0.60270  0.18550  Biso   1.000  C
  C16      1.0000 0.65190  0.39730  0.81450  Biso   1.000  C
  C17      1.0000 0.26320  0.53940  0.09640  Biso   1.000  C
  C18      1.0000 0.73680  0.46060  0.90360  Biso   1.000  C
  H11      1.0000 0.24180  0.58160  0.06890  Biso   1.000  H
  H12      1.0000 0.75820  0.41840  0.93110  Biso   1.000  H
  H13      1.0000 0.29170  0.49940  0.05970  Biso   1.000  H
  H14      1.0000 0.70830  0.50060  0.94030  Biso   1.000  H
  C19      1.0000 0.09940  0.51590  0.11590  Biso   1.000  C
  C20      1.0000 0.90060  0.48410  0.88410  Biso   1.000  C
  C21      1.0000 0.11200  0.61350  0.14310  Biso   1.000  C
  C22      1.0000 0.88800  0.38650  0.85690  Biso   1.000  C
  H15      1.0000 0.17300  0.65880  0.15010  Biso   1.000  H
  H16      1.0000 0.82700  0.34120  0.84990  Biso   1.000  H
  C23      1.0000 0.03160  0.64250  0.15950  Biso   1.000  C
  C24      1.0000 0.96840  0.35750  0.84050  Biso   1.000  C
  H17      1.0000 0.03910  0.70850  0.17760  Biso   1.000  H
  H18      1.0000 0.96090  0.29150  0.82240  Biso   1.000  H
  C25      1.0000 0.94010  0.57710  0.15020  Biso   1.000  C
  C26      1.0000 0.05990  0.42290  0.84980  Biso   1.000  C
  H19      1.0000 0.88700  0.59840  0.16190  Biso   1.000  H
  H20      1.0000 0.11300  0.40160  0.83810  Biso   1.000  H
  C27      1.0000 0.92980  0.48030  0.12340  Biso   1.000  C
  C28      1.0000 0.07020  0.51970  0.87660  Biso   1.000  C
  H21      1.0000 0.86870  0.43530  0.11660  Biso   1.000  H
  H22      1.0000 0.13130  0.56470  0.88340  Biso   1.000  H
  C29      1.0000 0.00860  0.44800  0.10630  Biso   1.000  C
  C30      1.0000 0.99140  0.55200  0.89370  Biso   1.000  C
  H23      1.0000 0.00110  0.38210  0.08860  Biso   1.000  H
  H24      1.0000 0.99890  0.61790  0.91140  Biso   1.000  H
  C31      1.0000 0.71500  0.14860  0.47830  Biso   1.000  C
  C32      1.0000 0.28500  0.85140  0.52170  Biso   1.000  C
  C33      1.0000 0.74670  0.23890  0.55060  Biso   1.000  C
  C34      1.0000 0.25330  0.76110  0.44940  Biso   1.000  C
  H25      1.0000 0.78460  0.29540  0.54790  Biso   1.000  H
  H26      1.0000 0.21540  0.70460  0.45210  Biso   1.000  H
  C35      1.0000 0.72340  0.24560  0.62340  Biso   1.000  C
  C36      1.0000 0.27660  0.75440  0.37660  Biso   1.000  C
  H27      1.0000 0.74570  0.30630  0.66910  Biso   1.000  H
  H28      1.0000 0.25430  0.69370  0.33090  Biso   1.000  H
  C37      1.0000 0.66720  0.16420  0.63120  Biso   1.000  C
  C38      1.0000 0.33280  0.83580  0.36880  Biso   1.000  C
  H29      1.0000 0.65150  0.16960  0.68140  Biso   1.000  H
  H30      1.0000 0.34850  0.83040  0.31860  Biso   1.000  H
  C39      1.0000 0.63480  0.07400  0.56220  Biso   1.000  C
  C40      1.0000 0.36520  0.92600  0.43780  Biso   1.000  C
  H31      1.0000 0.59750  0.01850  0.56680  Biso   1.000  H
  H32      1.0000 0.40250  0.98150  0.43320  Biso   1.000  H
  C41      1.0000 0.65690  0.06480  0.48580  Biso   1.000  C
  C42      1.0000 0.34310  0.93520  0.51420  Biso   1.000  C
  C43      1.0000 0.62050  0.96810  0.41920  Biso   1.000  C
  C44      1.0000 0.37950  0.03190  0.58080  Biso   1.000  C
  H33      1.0000 0.58120  0.91720  0.42840  Biso   1.000  H
  H34      1.0000 0.41880  0.08280  0.57160  Biso   1.000  H
  C45      1.0000 0.64260  0.84170  0.22490  Biso   1.000  C
  C46      1.0000 0.35740  0.15830  0.77510  Biso   1.000  C
  C47      1.0000 0.62400  0.73870  0.16380  Biso   1.000  C
  C48      1.0000 0.37600  0.26130  0.83620  Biso   1.000  C
  H35      1.0000 0.55740  0.71350  0.11710  Biso   1.000  H
  H36      1.0000 0.44260  0.28650  0.88290  Biso   1.000  H
  H37      1.0000 0.67730  0.73790  0.13810  Biso   1.000  H
  H38      1.0000 0.32270  0.26210  0.86190  Biso   1.000  H
  C49      1.0000 0.63000  0.58810  0.17950  Biso   1.000  C
  C50      1.0000 0.37000  0.41190  0.82050  Biso   1.000  C
  C51      1.0000 0.64760  0.54420  0.23730  Biso   1.000  C
  C52      1.0000 0.35240  0.45580  0.76270  Biso   1.000  C
  H39      1.0000 0.65610  0.57700  0.29540  Biso   1.000  H
  H40      1.0000 0.34390  0.42300  0.70460  Biso   1.000  H
  C53      1.0000 0.65270  0.45050  0.20930  Biso   1.000  C
  C54      1.0000 0.34730  0.54950  0.79070  Biso   1.000  C
  H41      1.0000 0.66410  0.42050  0.24850  Biso   1.000  H
  H42      1.0000 0.33590  0.57950  0.75150  Biso   1.000  H
  C55      1.0000 0.64120  0.40340  0.12620  Biso   1.000  C
  C56      1.0000 0.35880  0.59660  0.87380  Biso   1.000  C
  H43      1.0000 0.64610  0.34120  0.10860  Biso   1.000  H
  H44      1.0000 0.35390  0.65880  0.89140  Biso   1.000  H
  C57      1.0000 0.62270  0.44350  0.06750  Biso   1.000  C
  C58      1.0000 0.37730  0.55650  0.93250  Biso   1.000  C
  H45      1.0000 0.61310  0.40830  0.00960  Biso   1.000  H
  H46      1.0000 0.38690  0.59170  0.99040  Biso   1.000  H
  C59      1.0000 0.61770  0.53940  0.09320  Biso   1.000  C
  C60      1.0000 0.38230  0.46060  0.90680  Biso   1.000  C
  H47      1.0000 0.60660  0.56850  0.05320  Biso   1.000  H
  H48      1.0000 0.39340  0.43150  0.94680  Biso   1.000  H
  C61      1.0000 0.79230  0.20720  0.07000  Biso   1.000  C
  C62      1.0000 0.20770  0.79280  0.93000  Biso   1.000  C
  C63      1.0000 0.76200  0.22810  0.99510  Biso   1.000  C
  C64      1.0000 0.23800  0.77190  0.00490  Biso   1.000  C
  H49      1.0000 0.81210  0.26240  0.97970  Biso   1.000  H
  H50      1.0000 0.18790  0.73760  0.02030  Biso   1.000  H
  C65      1.0000 0.65840  0.19820  0.94410  Biso   1.000  C
  C66      1.0000 0.34160  0.80180  0.05590  Biso   1.000  C
  H51      1.0000 0.64020  0.21360  0.89540  Biso   1.000  H
  H52      1.0000 0.35980  0.78640  0.10460  Biso   1.000  H
  C67      1.0000 0.58230  0.14660  0.96400  Biso   1.000  C
  C68      1.0000 0.41770  0.85340  0.03600  Biso   1.000  C
  H53      1.0000 0.51310  0.12820  0.92980  Biso   1.000  H
  H54      1.0000 0.48690  0.87180  0.07020  Biso   1.000  H
  C69      1.0000 0.60910  0.12230  0.03440  Biso   1.000  C
  C70      1.0000 0.39090  0.87770  0.96560  Biso   1.000  C
  H55      1.0000 0.55760  0.08500  0.04650  Biso   1.000  H
  H56      1.0000 0.44240  0.91500  0.95350  Biso   1.000  H
  C71      1.0000 0.71400  0.15250  0.08960  Biso   1.000  C
  C72      1.0000 0.28600  0.84750  0.91040  Biso   1.000  C
  C73      1.0000 0.73310  0.12080  0.16090  Biso   1.000  C
  C74      1.0000 0.26690  0.87920  0.83910  Biso   1.000  C
  H57      1.0000 0.67810  0.07790  0.16480  Biso   1.000  H
  H58      1.0000 0.32190  0.92210  0.83520  Biso   1.000  H
  C75      1.0000 0.93110  0.15680  0.34270  Biso   1.000  C
  C76      1.0000 0.06890  0.84320  0.65730  Biso   1.000  C
  C77      1.0000 0.95730  0.13470  0.42360  Biso   1.000  C
  C78      1.0000 0.04270  0.86530  0.57640  Biso   1.000  C
  H59      1.0000 0.02940  0.13910  0.44180  Biso   1.000  H
  H60      1.0000 0.97060  0.86090  0.55820  Biso   1.000  H
  H61      1.0000 0.94870  0.18360  0.47040  Biso   1.000  H
  H62      1.0000 0.05130  0.81640  0.52960  Biso   1.000  H
  C79      1.0000 0.92990  0.96220  0.38730  Biso   1.000  C
  C80      1.0000 0.07010  0.03780  0.61270  Biso   1.000  C
  C81      1.0000 0.86840  0.87570  0.38220  Biso   1.000  C
  C82      1.0000 0.13160  0.12430  0.61780  Biso   1.000  C
  H63      1.0000 0.80710  0.87200  0.39320  Biso   1.000  H
  H64      1.0000 0.19290  0.12800  0.60680  Biso   1.000  H
  C83      1.0000 0.89820  0.79400  0.36060  Biso   1.000  C
  C84      1.0000 0.10180  0.20600  0.63940  Biso   1.000  C
  H65      1.0000 0.85480  0.73490  0.35490  Biso   1.000  H
  H66      1.0000 0.14520  0.26510  0.64510  Biso   1.000  H
  C85      1.0000 0.98800  0.79790  0.34780  Biso   1.000  C
  C86      1.0000 0.01200  0.20210  0.65220  Biso   1.000  C
  H67      1.0000 0.00930  0.74360  0.33790  Biso   1.000  H
  H68      1.0000 0.99070  0.25640  0.66210  Biso   1.000  H
  C87      1.0000 0.04800  0.88270  0.34940  Biso   1.000  C
  C88      1.0000 0.95200  0.11730  0.65060  Biso   1.000  C
  H69      1.0000 0.10860  0.88500  0.33740  Biso   1.000  H
  H70      1.0000 0.89140  0.11500  0.66260  Biso   1.000  H
  C89      1.0000 0.01890  0.96560  0.36870  Biso   1.000  C
  C90      1.0000 0.98110  0.03440  0.63130  Biso   1.000  C
  H71      1.0000 0.05950  0.02290  0.36910  Biso   1.000  H
  H72      1.0000 0.94050  0.97710  0.63090  Biso   1.000  H
  C91      1.0000 0.29930  0.27900  0.12750  Biso   1.000  C
  C92      1.0000 0.70070  0.72100  0.87250  Biso   1.000  C
  C93      1.0000 0.36000  0.23900  0.08160  Biso   1.000  C
  C94      1.0000 0.64000  0.76100  0.91840  Biso   1.000  C
  H73      1.0000 0.41940  0.28100  0.08240  Biso   1.000  H
  H74      1.0000 0.58060  0.71900  0.91760  Biso   1.000  H
  C95      1.0000 0.33370  0.14100  0.03640  Biso   1.000  C
  C96      1.0000 0.66630  0.85900  0.96360  Biso   1.000  C
  H75      1.0000 0.37590  0.11760  0.00790  Biso   1.000  H
  H76      1.0000 0.62410  0.88240  0.99210  Biso   1.000  H
  C97      1.0000 0.24730  0.07730  0.03230  Biso   1.000  C
  C98      1.0000 0.75270  0.92270  0.96770  Biso   1.000  C
  H77      1.0000 0.23010  0.01100  0.99990  Biso   1.000  H
  H78      1.0000 0.76990  0.98900  0.00010  Biso   1.000  H
  C99      1.0000 0.18480  0.10880  0.07490  Biso   1.000  C
  C100     1.0000 0.81520  0.89120  0.92510  Biso   1.000  C
  H79      1.0000 0.12630  0.06380  0.07230  Biso   1.000  H
  H80      1.0000 0.87370  0.93620  0.92770  Biso   1.000  H
  C101     1.0000 0.20870  0.20980  0.12300  Biso   1.000  C
  C102     1.0000 0.79130  0.79020  0.87700  Biso   1.000  C
  C103     1.0000 0.14060  0.23740  0.16680  Biso   1.000  C
  C104     1.0000 0.85940  0.76260  0.83320  Biso   1.000  C
  H81      1.0000 0.08450  0.18810  0.16230  Biso   1.000  H
  H82      1.0000 0.91550  0.81190  0.83770  Biso   1.000  H
  C105     1.0000 0.10920  0.43950  0.29920  Biso   1.000  C
  C106     1.0000 0.89080  0.56050  0.70080  Biso   1.000  C
  C107     1.0000 0.04380  0.48060  0.34590  Biso   1.000  C
  C108     1.0000 0.95620  0.51940  0.65410  Biso   1.000  C
  H83      1.0000 0.08470  0.51520  0.40770  Biso   1.000  H
  H84      1.0000 0.91530  0.48480  0.59230  Biso   1.000  H
  H85      1.0000 0.02370  0.52750  0.32420  Biso   1.000  H
  H86      1.0000 0.97630  0.47250  0.67580  Biso   1.000  H
  C109     1.0000 0.89070  0.44080  0.37870  Biso   1.000  C
  C110     1.0000 0.10930  0.55920  0.62130  Biso   1.000  C
  C111     1.0000 0.90380  0.53850  0.42000  Biso   1.000  C
  C112     1.0000 0.09620  0.46150  0.58000  Biso   1.000  C
  H87      1.0000 0.95820  0.58690  0.42110  Biso   1.000  H
  H88      1.0000 0.04180  0.41310  0.57890  Biso   1.000  H
  C113     1.0000 0.83440  0.56320  0.45960  Biso   1.000  C
  C114     1.0000 0.16560  0.43680  0.54040  Biso   1.000  C
  H89      1.0000 0.84240  0.62860  0.48730  Biso   1.000  H
  H90      1.0000 0.15760  0.37140  0.51270  Biso   1.000  H
  C115     1.0000 0.75430  0.49210  0.45840  Biso   1.000  C
  C116     1.0000 0.24570  0.50790  0.54160  Biso   1.000  C
  H91      1.0000 0.70750  0.50930  0.48410  Biso   1.000  H
  H92      1.0000 0.29250  0.49070  0.51590  Biso   1.000  H
  C117     1.0000 0.74370  0.39520  0.41880  Biso   1.000  C
  C118     1.0000 0.25630  0.60480  0.58120  Biso   1.000  C
  H93      1.0000 0.69090  0.34690  0.41950  Biso   1.000  H
  H94      1.0000 0.30910  0.65310  0.58050  Biso   1.000  H
  C119     1.0000 0.81170  0.37000  0.37810  Biso   1.000  C
  C120     1.0000 0.18830  0.63000  0.62190  Biso   1.000  C
  H95      1.0000 0.80350  0.30450  0.35040  Biso   1.000  H
  H96      1.0000 0.19650  0.69550  0.64960  Biso   1.000  H
  C121     1.0000 0.32650  0.05110  0.26520  Biso   1.000  C
  C122     1.0000 0.67350  0.94890  0.73480  Biso   1.000  C
  H97      1.0000 0.31000  0.10730  0.29340  Biso   1.000  H
  H98      1.0000 0.69000  0.89270  0.70660  Biso   1.000  H
  H99      1.0000 0.32220  0.00900  0.29640  Biso   1.000  H
  H100     1.0000 0.67780  0.99100  0.70360  Biso   1.000  H
  H101     1.0000 0.27840  0.01640  0.20620  Biso   1.000  H
  H102     1.0000 0.72160  0.98360  0.79380  Biso   1.000  H
  C123     1.0000 0.47970  0.18040  0.29190  Biso   1.000  C
  C124     1.0000 0.52030  0.81960  0.70810  Biso   1.000  C
  H103     1.0000 0.43930  0.21690  0.31460  Biso   1.000  H
  H104     1.0000 0.56070  0.78310  0.68540  Biso   1.000  H
  H105     1.0000 0.49020  0.19390  0.24330  Biso   1.000  H
  H106     1.0000 0.50980  0.80610  0.75670  Biso   1.000  H
  H107     1.0000 0.54550  0.19890  0.33670  Biso   1.000  H
  H108     1.0000 0.45450  0.80110  0.66330  Biso   1.000  H
  C125     1.0000 0.47610  0.02870  0.23400  Biso   1.000  C
  C126     1.0000 0.52390  0.97130  0.76600  Biso   1.000  C
  H109     1.0000 0.44190  0.96190  0.21360  Biso   1.000  H
  H110     1.0000 0.55810  0.03810  0.78640  Biso   1.000  H
  N19      1.0000 0.95170  0.88130  0.11960  Biso   1.000  N
  N20      1.0000 0.04830  0.11870  0.88040  Biso   1.000  N
  O27      1.0000 0.00990  0.04680  0.17110  Biso   1.000  O
  O28      1.0000 0.99010  0.95320  0.82890  Biso   1.000  O
  C127     1.0000 0.03680  0.86780  0.09110  Biso   1.000  C
  C128     1.0000 0.96320  0.13220  0.90890  Biso   1.000  C
  H111     1.0000 0.02640  0.79940  0.06560  Biso   1.000  H
  H112     1.0000 0.97360  0.20060  0.93440  Biso   1.000  H
  H113     1.0000 0.10050  0.89970  0.14040  Biso   1.000  H
  H114     1.0000 0.89950  0.10030  0.85960  Biso   1.000  H
  H115     1.0000 0.04010  0.89560  0.04860  Biso   1.000  H
  H116     1.0000 0.95990  0.10440  0.95140  Biso   1.000  H
  C129     1.0000 0.86860  0.79590  0.10690  Biso   1.000  C
  C130     1.0000 0.13140  0.20410  0.89310  Biso   1.000  C
  H117     1.0000 0.88230  0.73770  0.07910  Biso   1.000  H
  H118     1.0000 0.11770  0.26230  0.92090  Biso   1.000  H
  H119     1.0000 0.80400  0.79480  0.07070  Biso   1.000  H
  H120     1.0000 0.19600  0.20520  0.92930  Biso   1.000  H
  H121     1.0000 0.86480  0.79910  0.16250  Biso   1.000  H
  H122     1.0000 0.13520  0.20090  0.83750  Biso   1.000  H
  C131     1.0000 0.94730  0.96880  0.15550  Biso   1.000  C
  C132     1.0000 0.05270  0.03120  0.84450  Biso   1.000  C
  H123     1.0000 0.88950  0.97150  0.17080  Biso   1.000  H
  H124     1.0000 0.11050  0.02850  0.82920  Biso   1.000  H
