data_image0
_cell_length_a       11.8629
_cell_length_b       13.385
_cell_length_c       7.3569
_cell_angle_alpha    90
_cell_angle_beta     104.869
_cell_angle_gamma    90

_symmetry_space_group_name_H-M    "P 1"
_symmetry_int_tables_number       1

loop_
  _symmetry_equiv_pos_as_xyz
  'x, y, z'

loop_
  _atom_site_label
  _atom_site_occupancy
  _atom_site_fract_x
  _atom_site_fract_y
  _atom_site_fract_z
  _atom_site_thermal_displace_type
  _atom_site_B_iso_or_equiv
  _atom_site_type_symbol
  Cu1      1.0000 0.82971  0.60897  0.20807  Biso   1.000  Cu
  Cu2      1.0000 0.17029  0.10897  0.29193  Biso   1.000  Cu
  Cu3      1.0000 0.17029  0.39103  0.79193  Biso   1.000  Cu
  Cu4      1.0000 0.82971  0.89103  0.70807  Biso   1.000  Cu
  C1       1.0000 0.60990  0.58130  0.31000  Biso   1.000  C
  C2       1.0000 0.39010  0.08130  0.19000  Biso   1.000  C
  C3       1.0000 0.39010  0.41870  0.69000  Biso   1.000  C
  C4       1.0000 0.60990  0.91870  0.81000  Biso   1.000  C
  C5       1.0000 0.60610  0.68260  0.34690  Biso   1.000  C
  C6       1.0000 0.39390  0.18260  0.15310  Biso   1.000  C
  C7       1.0000 0.39390  0.31740  0.65310  Biso   1.000  C
  C8       1.0000 0.60610  0.81740  0.84690  Biso   1.000  C
  C9       1.0000 0.49820  0.72580  0.33230  Biso   1.000  C
  C10      1.0000 0.50180  0.22580  0.16770  Biso   1.000  C
  C11      1.0000 0.50180  0.27420  0.66770  Biso   1.000  C
  C12      1.0000 0.49820  0.77420  0.83230  Biso   1.000  C
  H1       1.0000 0.49390  0.79340  0.35890  Biso   1.000  H
  H2       1.0000 0.50610  0.29340  0.14110  Biso   1.000  H
  H3       1.0000 0.50610  0.20660  0.64110  Biso   1.000  H
  H4       1.0000 0.49390  0.70660  0.85890  Biso   1.000  H
  C13      1.0000 0.39800  0.67140  0.27960  Biso   1.000  C
  C14      1.0000 0.60200  0.17140  0.22040  Biso   1.000  C
  C15      1.0000 0.60200  0.32860  0.72040  Biso   1.000  C
  C16      1.0000 0.39800  0.82860  0.77960  Biso   1.000  C
  H5       1.0000 0.32640  0.70170  0.27210  Biso   1.000  H
  H6       1.0000 0.67360  0.20170  0.22790  Biso   1.000  H
  H7       1.0000 0.67360  0.29830  0.72790  Biso   1.000  H
  H8       1.0000 0.32640  0.79830  0.77210  Biso   1.000  H
  C17      1.0000 0.40290  0.57370  0.23840  Biso   1.000  C
  C18      1.0000 0.59710  0.07370  0.26160  Biso   1.000  C
  C19      1.0000 0.59710  0.42630  0.76160  Biso   1.000  C
  C20      1.0000 0.40290  0.92630  0.73840  Biso   1.000  C
  H9       1.0000 0.33420  0.53750  0.19710  Biso   1.000  H
  H10      1.0000 0.66580  0.03750  0.30290  Biso   1.000  H
  H11      1.0000 0.66580  0.46250  0.80290  Biso   1.000  H
  H12      1.0000 0.33420  0.96250  0.69710  Biso   1.000  H
  C21      1.0000 0.50870  0.52690  0.25660  Biso   1.000  C
  C22      1.0000 0.49130  0.02690  0.24340  Biso   1.000  C
  C23      1.0000 0.49130  0.47310  0.74340  Biso   1.000  C
  C24      1.0000 0.50870  0.97310  0.75660  Biso   1.000  C
  H13      1.0000 0.51160  0.45880  0.23300  Biso   1.000  H
  H14      1.0000 0.48840  0.95880  0.26700  Biso   1.000  H
  H15      1.0000 0.48840  0.54120  0.76700  Biso   1.000  H
  H16      1.0000 0.51160  0.04120  0.73300  Biso   1.000  H
  C25      1.0000 0.72230  0.42470  0.30660  Biso   1.000  C
  C26      1.0000 0.27770  0.92470  0.19340  Biso   1.000  C
  C27      1.0000 0.27770  0.57530  0.69340  Biso   1.000  C
  C28      1.0000 0.72230  0.07530  0.80660  Biso   1.000  C
  H17      1.0000 0.67450  0.40750  0.18260  Biso   1.000  H
  H18      1.0000 0.32550  0.90750  0.31740  Biso   1.000  H
  H19      1.0000 0.32550  0.59250  0.81740  Biso   1.000  H
  H20      1.0000 0.67450  0.09250  0.68260  Biso   1.000  H
  H21      1.0000 0.68950  0.39230  0.39940  Biso   1.000  H
  H22      1.0000 0.31050  0.89230  0.10060  Biso   1.000  H
  H23      1.0000 0.31050  0.60770  0.60060  Biso   1.000  H
  H24      1.0000 0.68950  0.10770  0.89940  Biso   1.000  H
  C29      1.0000 0.84700  0.38820  0.32790  Biso   1.000  C
  C30      1.0000 0.15300  0.88820  0.17210  Biso   1.000  C
  C31      1.0000 0.15300  0.61180  0.67210  Biso   1.000  C
  C32      1.0000 0.84700  0.11180  0.82790  Biso   1.000  C
  H25      1.0000 0.85230  0.31760  0.35890  Biso   1.000  H
  H26      1.0000 0.14770  0.81760  0.14110  Biso   1.000  H
  H27      1.0000 0.14770  0.68240  0.64110  Biso   1.000  H
  H28      1.0000 0.85230  0.18240  0.85890  Biso   1.000  H
  H29      1.0000 0.89980  0.42420  0.42930  Biso   1.000  H
  H30      1.0000 0.10020  0.92420  0.07070  Biso   1.000  H
  H31      1.0000 0.10020  0.57580  0.57070  Biso   1.000  H
  H32      1.0000 0.89980  0.07580  0.92930  Biso   1.000  H
  C33      1.0000 0.88210  0.40520  0.14440  Biso   1.000  C
  C34      1.0000 0.11790  0.90520  0.35560  Biso   1.000  C
  C35      1.0000 0.11790  0.59480  0.85560  Biso   1.000  C
  C36      1.0000 0.88210  0.09480  0.64440  Biso   1.000  C
  C37      1.0000 0.70950  0.75150  0.39090  Biso   1.000  C
  C38      1.0000 0.29050  0.25150  0.10910  Biso   1.000  C
  C39      1.0000 0.29050  0.24850  0.60910  Biso   1.000  C
  C40      1.0000 0.70950  0.74850  0.89090  Biso   1.000  C
  N1       1.0000 0.72230  0.53420  0.33270  Biso   1.000  N
  N2       1.0000 0.27770  0.03420  0.16730  Biso   1.000  N
  N3       1.0000 0.27770  0.46580  0.66730  Biso   1.000  N
  N4       1.0000 0.72230  0.96580  0.83270  Biso   1.000  N
  H33      1.0000 0.75100  0.54200  0.44200  Biso   1.000  H
  H34      1.0000 0.24900  0.04200  0.05800  Biso   1.000  H
  H35      1.0000 0.24900  0.45800  0.55800  Biso   1.000  H
  H36      1.0000 0.75100  0.95800  0.94200  Biso   1.000  H
  O1       1.0000 0.86950  0.49350  0.07670  Biso   1.000  O
  O2       1.0000 0.13050  0.99350  0.42330  Biso   1.000  O
  O3       1.0000 0.13050  0.50650  0.92330  Biso   1.000  O
  O4       1.0000 0.86950  0.00650  0.57670  Biso   1.000  O
  O5       1.0000 0.91820  0.33380  0.06870  Biso   1.000  O
  O6       1.0000 0.08180  0.83380  0.43130  Biso   1.000  O
  O7       1.0000 0.08180  0.66620  0.93130  Biso   1.000  O
  O8       1.0000 0.91820  0.16620  0.56870  Biso   1.000  O
  O9       1.0000 0.80370  0.72580  0.35030  Biso   1.000  O
  O10      1.0000 0.19630  0.22580  0.14970  Biso   1.000  O
  O11      1.0000 0.19630  0.27420  0.64970  Biso   1.000  O
  O12      1.0000 0.80370  0.77420  0.85030  Biso   1.000  O
  O13      1.0000 0.69940  0.83430  0.46140  Biso   1.000  O
  O14      1.0000 0.30060  0.33430  0.03860  Biso   1.000  O
  O15      1.0000 0.30060  0.16570  0.53860  Biso   1.000  O
  O16      1.0000 0.69940  0.66570  0.96140  Biso   1.000  O
  O17      1.0000 0.98710  0.66290  0.22480  Biso   1.000  O
  O18      1.0000 0.01290  0.16290  0.27520  Biso   1.000  O
  O19      1.0000 0.01290  0.33710  0.77520  Biso   1.000  O
  O20      1.0000 0.98710  0.83710  0.72480  Biso   1.000  O
  H37      1.0000 0.00700  0.72700  0.28000  Biso   1.000  H
  H38      1.0000 0.99300  0.22700  0.22000  Biso   1.000  H
  H39      1.0000 0.99300  0.27300  0.72000  Biso   1.000  H
  H40      1.0000 0.00700  0.77300  0.78000  Biso   1.000  H
  H41      1.0000 0.02100  0.65200  0.12800  Biso   1.000  H
  H42      1.0000 0.97900  0.15200  0.37200  Biso   1.000  H
  H43      1.0000 0.97900  0.34800  0.87200  Biso   1.000  H
  H44      1.0000 0.02100  0.84800  0.62800  Biso   1.000  H
  O21      1.0000 0.85400  0.57130  0.70290  Biso   1.000  O
  O22      1.0000 0.14600  0.07130  0.79710  Biso   1.000  O
  O23      1.0000 0.14600  0.42870  0.29710  Biso   1.000  O
  O24      1.0000 0.85400  0.92870  0.20290  Biso   1.000  O
  H45      1.0000 0.89500  0.52500  0.77500  Biso   1.000  H
  H46      1.0000 0.10500  0.02500  0.72500  Biso   1.000  H
  H47      1.0000 0.10500  0.47500  0.22500  Biso   1.000  H
  H48      1.0000 0.89500  0.97500  0.27500  Biso   1.000  H
  H49      1.0000 0.90500  0.62500  0.76100  Biso   1.000  H
  H50      1.0000 0.09500  0.12500  0.73900  Biso   1.000  H
  H51      1.0000 0.09500  0.37500  0.23900  Biso   1.000  H
  H52      1.0000 0.90500  0.87500  0.26100  Biso   1.000  H
