data_image0
_cell_length_a       30.42
_cell_length_b       8.489
_cell_length_c       12.874
_cell_angle_alpha    90
_cell_angle_beta     97.57
_cell_angle_gamma    90

_symmetry_space_group_name_H-M    "P 1"
_symmetry_int_tables_number       1

loop_
  _symmetry_equiv_pos_as_xyz
  'x, y, z'

loop_
  _atom_site_label
  _atom_site_occupancy
  _atom_site_fract_x
  _atom_site_fract_y
  _atom_site_fract_z
  _atom_site_thermal_displace_type
  _atom_site_B_iso_or_equiv
  _atom_site_type_symbol
  S1       1.0000 0.18838  0.98223  0.09626  Biso   1.000  S
  S2       1.0000 0.81162  0.98223  0.40374  Biso   1.000  S
  S3       1.0000 0.68838  0.48223  0.09626  Biso   1.000  S
  S4       1.0000 0.31162  0.48223  0.40374  Biso   1.000  S
  S5       1.0000 0.81162  0.01777  0.90374  Biso   1.000  S
  S6       1.0000 0.18838  0.01777  0.59626  Biso   1.000  S
  S7       1.0000 0.31162  0.51777  0.90374  Biso   1.000  S
  S8       1.0000 0.68838  0.51777  0.59626  Biso   1.000  S
  S9       1.0000 0.22438  0.23447  0.23818  Biso   1.000  S
  S10      1.0000 0.77562  0.23447  0.26182  Biso   1.000  S
  S11      1.0000 0.72438  0.73447  0.23818  Biso   1.000  S
  S12      1.0000 0.27562  0.73447  0.26182  Biso   1.000  S
  S13      1.0000 0.77562  0.76553  0.76182  Biso   1.000  S
  S14      1.0000 0.22438  0.76553  0.73818  Biso   1.000  S
  S15      1.0000 0.27562  0.26553  0.76182  Biso   1.000  S
  S16      1.0000 0.72438  0.26553  0.73818  Biso   1.000  S
  S17      1.0000 0.27345  0.98403  0.98091  Biso   1.000  S
  S18      1.0000 0.72655  0.98403  0.51909  Biso   1.000  S
  S19      1.0000 0.77345  0.48403  0.98091  Biso   1.000  S
  S20      1.0000 0.22655  0.48403  0.51909  Biso   1.000  S
  S21      1.0000 0.72655  0.01597  0.01909  Biso   1.000  S
  S22      1.0000 0.27345  0.01597  0.48091  Biso   1.000  S
  S23      1.0000 0.22655  0.51597  0.01909  Biso   1.000  S
  S24      1.0000 0.77345  0.51597  0.48091  Biso   1.000  S
  S25      1.0000 0.31475  0.22895  0.12265  Biso   1.000  S
  S26      1.0000 0.68525  0.22895  0.37735  Biso   1.000  S
  S27      1.0000 0.81475  0.72895  0.12265  Biso   1.000  S
  S28      1.0000 0.18525  0.72895  0.37735  Biso   1.000  S
  S29      1.0000 0.68525  0.77105  0.87735  Biso   1.000  S
  S30      1.0000 0.31475  0.77105  0.62265  Biso   1.000  S
  S31      1.0000 0.18525  0.27105  0.87735  Biso   1.000  S
  S32      1.0000 0.81475  0.27105  0.62265  Biso   1.000  S
  S33      1.0000 0.10482  0.94803  0.18422  Biso   1.000  S
  S34      1.0000 0.89518  0.94803  0.31578  Biso   1.000  S
  S35      1.0000 0.60482  0.44803  0.18422  Biso   1.000  S
  S36      1.0000 0.39518  0.44803  0.31578  Biso   1.000  S
  S37      1.0000 0.89518  0.05197  0.81578  Biso   1.000  S
  S38      1.0000 0.10482  0.05197  0.68422  Biso   1.000  S
  S39      1.0000 0.39518  0.55197  0.81578  Biso   1.000  S
  S40      1.0000 0.60482  0.55197  0.68422  Biso   1.000  S
  S41      1.0000 0.14748  0.25400  0.35265  Biso   1.000  S
  S42      1.0000 0.85252  0.25400  0.14735  Biso   1.000  S
  S43      1.0000 0.64748  0.75400  0.35265  Biso   1.000  S
  S44      1.0000 0.35252  0.75400  0.14735  Biso   1.000  S
  S45      1.0000 0.85252  0.74600  0.64735  Biso   1.000  S
  S46      1.0000 0.14748  0.74600  0.85265  Biso   1.000  S
  S47      1.0000 0.35252  0.24600  0.64735  Biso   1.000  S
  S48      1.0000 0.64748  0.24600  0.85265  Biso   1.000  S
  S49      1.0000 0.35217  0.91425  0.88295  Biso   1.000  S
  S50      1.0000 0.64783  0.91425  0.61705  Biso   1.000  S
  S51      1.0000 0.85217  0.41425  0.88295  Biso   1.000  S
  S52      1.0000 0.14783  0.41425  0.61705  Biso   1.000  S
  S53      1.0000 0.64783  0.08575  0.11705  Biso   1.000  S
  S54      1.0000 0.35217  0.08575  0.38295  Biso   1.000  S
  S55      1.0000 0.14783  0.58575  0.11705  Biso   1.000  S
  S56      1.0000 0.85217  0.58575  0.38295  Biso   1.000  S
  S57      1.0000 0.40286  0.20310  0.05524  Biso   1.000  S
  S58      1.0000 0.59714  0.20310  0.44476  Biso   1.000  S
  S59      1.0000 0.90286  0.70310  0.05524  Biso   1.000  S
  S60      1.0000 0.09714  0.70310  0.44476  Biso   1.000  S
  S61      1.0000 0.59714  0.79690  0.94476  Biso   1.000  S
  S62      1.0000 0.40286  0.79690  0.55524  Biso   1.000  S
  S63      1.0000 0.09714  0.29690  0.94476  Biso   1.000  S
  S64      1.0000 0.90286  0.29690  0.55524  Biso   1.000  S
  C1       1.0000 0.23205  0.11090  0.13390  Biso   1.000  C
  C2       1.0000 0.76795  0.11090  0.36610  Biso   1.000  C
  C3       1.0000 0.73205  0.61090  0.13390  Biso   1.000  C
  C4       1.0000 0.26795  0.61090  0.36610  Biso   1.000  C
  C5       1.0000 0.76795  0.88910  0.86610  Biso   1.000  C
  C6       1.0000 0.23205  0.88910  0.63390  Biso   1.000  C
  C7       1.0000 0.26795  0.38910  0.86610  Biso   1.000  C
  C8       1.0000 0.73205  0.38910  0.63390  Biso   1.000  C
  C9       1.0000 0.26879  0.11010  0.08660  Biso   1.000  C
  C10      1.0000 0.73121  0.11010  0.41340  Biso   1.000  C
  C11      1.0000 0.76879  0.61010  0.08660  Biso   1.000  C
  C12      1.0000 0.23121  0.61010  0.41340  Biso   1.000  C
  C13      1.0000 0.73121  0.88990  0.91340  Biso   1.000  C
  C14      1.0000 0.26879  0.88990  0.58660  Biso   1.000  C
  C15      1.0000 0.23121  0.38990  0.91340  Biso   1.000  C
  C16      1.0000 0.76879  0.38990  0.58660  Biso   1.000  C
  C17      1.0000 0.15564  0.04670  0.18900  Biso   1.000  C
  C18      1.0000 0.84436  0.04670  0.31100  Biso   1.000  C
  C19      1.0000 0.65564  0.54670  0.18900  Biso   1.000  C
  C20      1.0000 0.34436  0.54670  0.31100  Biso   1.000  C
  C21      1.0000 0.84436  0.95330  0.81100  Biso   1.000  C
  C22      1.0000 0.15564  0.95330  0.68900  Biso   1.000  C
  C23      1.0000 0.34436  0.45330  0.81100  Biso   1.000  C
  C24      1.0000 0.65564  0.45330  0.68900  Biso   1.000  C
  C25      1.0000 0.17186  0.16230  0.25340  Biso   1.000  C
  C26      1.0000 0.82814  0.16230  0.24660  Biso   1.000  C
  C27      1.0000 0.67186  0.66230  0.25340  Biso   1.000  C
  C28      1.0000 0.32814  0.66230  0.24660  Biso   1.000  C
  C29      1.0000 0.82814  0.83770  0.74660  Biso   1.000  C
  C30      1.0000 0.17186  0.83770  0.75340  Biso   1.000  C
  C31      1.0000 0.32814  0.33770  0.74660  Biso   1.000  C
  C32      1.0000 0.67186  0.33770  0.75340  Biso   1.000  C
  C33      1.0000 0.32875  0.02870  0.97320  Biso   1.000  C
  C34      1.0000 0.67125  0.02870  0.52680  Biso   1.000  C
  C35      1.0000 0.82875  0.52870  0.97320  Biso   1.000  C
  C36      1.0000 0.17125  0.52870  0.52680  Biso   1.000  C
  C37      1.0000 0.67125  0.97130  0.02680  Biso   1.000  C
  C38      1.0000 0.32875  0.97130  0.47320  Biso   1.000  C
  C39      1.0000 0.17125  0.47130  0.02680  Biso   1.000  C
  C40      1.0000 0.82875  0.47130  0.47320  Biso   1.000  C
  C41      1.0000 0.34807  0.13730  0.03900  Biso   1.000  C
  C42      1.0000 0.65193  0.13730  0.46100  Biso   1.000  C
  C43      1.0000 0.84807  0.63730  0.03900  Biso   1.000  C
  C44      1.0000 0.15193  0.63730  0.46100  Biso   1.000  C
  C45      1.0000 0.65193  0.86270  0.96100  Biso   1.000  C
  C46      1.0000 0.34807  0.86270  0.53900  Biso   1.000  C
  C47      1.0000 0.15193  0.36270  0.96100  Biso   1.000  C
  C48      1.0000 0.84807  0.36270  0.53900  Biso   1.000  C
  C49      1.0000 0.07539  0.07710  0.26090  Biso   1.000  C
  C50      1.0000 0.92461  0.07710  0.23910  Biso   1.000  C
  C51      1.0000 0.57539  0.57710  0.26090  Biso   1.000  C
  C52      1.0000 0.42461  0.57710  0.23910  Biso   1.000  C
  C53      1.0000 0.92461  0.92290  0.73910  Biso   1.000  C
  C54      1.0000 0.07539  0.92290  0.76090  Biso   1.000  C
  C55      1.0000 0.42461  0.42290  0.73910  Biso   1.000  C
  C56      1.0000 0.57539  0.42290  0.76090  Biso   1.000  C
  H1       1.0000 0.06690  0.17100  0.22020  Biso   1.000  H
  H2       1.0000 0.93310  0.17100  0.27980  Biso   1.000  H
  H3       1.0000 0.56690  0.67100  0.22020  Biso   1.000  H
  H4       1.0000 0.43310  0.67100  0.27980  Biso   1.000  H
  H5       1.0000 0.93310  0.82900  0.77980  Biso   1.000  H
  H6       1.0000 0.06690  0.82900  0.72020  Biso   1.000  H
  H7       1.0000 0.43310  0.32900  0.77980  Biso   1.000  H
  H8       1.0000 0.56690  0.32900  0.72020  Biso   1.000  H
  H9       1.0000 0.04840  0.02510  0.27500  Biso   1.000  H
  H10      1.0000 0.95160  0.02510  0.22500  Biso   1.000  H
  H11      1.0000 0.54840  0.52510  0.27500  Biso   1.000  H
  H12      1.0000 0.45160  0.52510  0.22500  Biso   1.000  H
  H13      1.0000 0.95160  0.97490  0.72500  Biso   1.000  H
  H14      1.0000 0.04840  0.97490  0.77500  Biso   1.000  H
  H15      1.0000 0.45160  0.47490  0.72500  Biso   1.000  H
  H16      1.0000 0.54840  0.47490  0.77500  Biso   1.000  H
  C57      1.0000 0.10170  0.12570  0.36410  Biso   1.000  C
  C58      1.0000 0.89830  0.12570  0.13590  Biso   1.000  C
  C59      1.0000 0.60170  0.62570  0.36410  Biso   1.000  C
  C60      1.0000 0.39830  0.62570  0.13590  Biso   1.000  C
  C61      1.0000 0.89830  0.87430  0.63590  Biso   1.000  C
  C62      1.0000 0.10170  0.87430  0.86410  Biso   1.000  C
  C63      1.0000 0.39830  0.37430  0.63590  Biso   1.000  C
  C64      1.0000 0.60170  0.37430  0.86410  Biso   1.000  C
  H17      1.0000 0.11280  0.03150  0.40130  Biso   1.000  H
  H18      1.0000 0.88720  0.03150  0.09870  Biso   1.000  H
  H19      1.0000 0.61280  0.53150  0.40130  Biso   1.000  H
  H20      1.0000 0.38720  0.53150  0.09870  Biso   1.000  H
  H21      1.0000 0.88720  0.96850  0.59870  Biso   1.000  H
  H22      1.0000 0.11280  0.96850  0.90130  Biso   1.000  H
  H23      1.0000 0.38720  0.46850  0.59870  Biso   1.000  H
  H24      1.0000 0.61280  0.46850  0.90130  Biso   1.000  H
  H25      1.0000 0.08180  0.17770  0.40620  Biso   1.000  H
  H26      1.0000 0.91820  0.17770  0.09380  Biso   1.000  H
  H27      1.0000 0.58180  0.67770  0.40620  Biso   1.000  H
  H28      1.0000 0.41820  0.67770  0.09380  Biso   1.000  H
  H29      1.0000 0.91820  0.82230  0.59380  Biso   1.000  H
  H30      1.0000 0.08180  0.82230  0.90620  Biso   1.000  H
  H31      1.0000 0.41820  0.32230  0.59380  Biso   1.000  H
  H32      1.0000 0.58180  0.32230  0.90620  Biso   1.000  H
  C65      1.0000 0.40470  0.00860  0.88030  Biso   1.000  C
  C66      1.0000 0.59530  0.00860  0.61970  Biso   1.000  C
  C67      1.0000 0.90470  0.50860  0.88030  Biso   1.000  C
  C68      1.0000 0.09530  0.50860  0.61970  Biso   1.000  C
  C69      1.0000 0.59530  0.99140  0.11970  Biso   1.000  C
  C70      1.0000 0.40470  0.99140  0.38030  Biso   1.000  C
  C71      1.0000 0.09530  0.49140  0.11970  Biso   1.000  C
  C72      1.0000 0.90470  0.49140  0.38030  Biso   1.000  C
  H33      1.0000 0.42350  0.93950  0.84550  Biso   1.000  H
  H34      1.0000 0.57650  0.93950  0.65450  Biso   1.000  H
  H35      1.0000 0.92350  0.43950  0.84550  Biso   1.000  H
  H36      1.0000 0.07650  0.43950  0.65450  Biso   1.000  H
  H37      1.0000 0.57650  0.06050  0.15450  Biso   1.000  H
  H38      1.0000 0.42350  0.06050  0.34550  Biso   1.000  H
  H39      1.0000 0.07650  0.56050  0.15450  Biso   1.000  H
  H40      1.0000 0.92350  0.56050  0.34550  Biso   1.000  H
  H41      1.0000 0.40010  0.10410  0.83890  Biso   1.000  H
  H42      1.0000 0.59990  0.10410  0.66110  Biso   1.000  H
  H43      1.0000 0.90010  0.60410  0.83890  Biso   1.000  H
  H44      1.0000 0.09990  0.60410  0.66110  Biso   1.000  H
  H45      1.0000 0.59990  0.89590  0.16110  Biso   1.000  H
  H46      1.0000 0.40010  0.89590  0.33890  Biso   1.000  H
  H47      1.0000 0.09990  0.39590  0.16110  Biso   1.000  H
  H48      1.0000 0.90010  0.39590  0.33890  Biso   1.000  H
  C73      1.0000 0.42840  0.05040  0.98700  Biso   1.000  C
  C74      1.0000 0.57160  0.05040  0.51300  Biso   1.000  C
  C75      1.0000 0.92840  0.55040  0.98700  Biso   1.000  C
  C76      1.0000 0.07160  0.55040  0.51300  Biso   1.000  C
  C77      1.0000 0.57160  0.94960  0.01300  Biso   1.000  C
  C78      1.0000 0.42840  0.94960  0.48700  Biso   1.000  C
  C79      1.0000 0.07160  0.44960  0.01300  Biso   1.000  C
  C80      1.0000 0.92840  0.44960  0.48700  Biso   1.000  C
  H49      1.0000 0.45840  0.08320  0.97910  Biso   1.000  H
  H50      1.0000 0.54160  0.08320  0.52090  Biso   1.000  H
  H51      1.0000 0.95840  0.58320  0.97910  Biso   1.000  H
  H52      1.0000 0.04160  0.58320  0.52090  Biso   1.000  H
  H53      1.0000 0.54160  0.91680  0.02090  Biso   1.000  H
  H54      1.0000 0.45840  0.91680  0.47910  Biso   1.000  H
  H55      1.0000 0.04160  0.41680  0.02090  Biso   1.000  H
  H56      1.0000 0.95840  0.41680  0.47910  Biso   1.000  H
  H57      1.0000 0.43070  0.95620  0.03010  Biso   1.000  H
  H58      1.0000 0.56930  0.95620  0.46990  Biso   1.000  H
  H59      1.0000 0.93070  0.45620  0.03010  Biso   1.000  H
  H60      1.0000 0.06930  0.45620  0.46990  Biso   1.000  H
  H61      1.0000 0.56930  0.04380  0.96990  Biso   1.000  H
  H62      1.0000 0.43070  0.04380  0.53010  Biso   1.000  H
  H63      1.0000 0.06930  0.54380  0.96990  Biso   1.000  H
  H64      1.0000 0.93070  0.54380  0.53010  Biso   1.000  H
  Cu1      1.0000 0.50000  0.82205  0.75000  Biso   1.000  Cu
  Cu2      1.0000 0.00000  0.32205  0.75000  Biso   1.000  Cu
  Cu3      1.0000 0.50000  0.17795  0.25000  Biso   1.000  Cu
  Cu4      1.0000 0.00000  0.67795  0.25000  Biso   1.000  Cu
  Cl1      1.0000 0.50000  0.07950  0.75000  Biso   1.000  Cl
  Cl2      1.0000 0.00000  0.57950  0.75000  Biso   1.000  Cl
  Cl3      1.0000 0.50000  0.92050  0.25000  Biso   1.000  Cl
  Cl4      1.0000 0.00000  0.42050  0.25000  Biso   1.000  Cl
  N1       1.0000 0.49510  0.41840  0.54560  Biso   1.000  N
  N2       1.0000 0.50490  0.41840  0.95440  Biso   1.000  N
  N3       1.0000 0.99510  0.91840  0.54560  Biso   1.000  N
  N4       1.0000 0.00490  0.91840  0.95440  Biso   1.000  N
  N5       1.0000 0.50490  0.58160  0.45440  Biso   1.000  N
  N6       1.0000 0.49510  0.58160  0.04560  Biso   1.000  N
  N7       1.0000 0.00490  0.08160  0.45440  Biso   1.000  N
  N8       1.0000 0.99510  0.08160  0.04560  Biso   1.000  N
  C81      1.0000 0.50450  0.62540  0.55120  Biso   1.000  C
  C82      1.0000 0.49550  0.62540  0.94880  Biso   1.000  C
  C83      1.0000 0.00450  0.12540  0.55120  Biso   1.000  C
  C84      1.0000 0.99550  0.12540  0.94880  Biso   1.000  C
  C85      1.0000 0.49550  0.37460  0.44880  Biso   1.000  C
  C86      1.0000 0.50450  0.37460  0.05120  Biso   1.000  C
  C87      1.0000 0.99550  0.87460  0.44880  Biso   1.000  C
  C88      1.0000 0.00450  0.87460  0.05120  Biso   1.000  C
  N9       1.0000 0.50415  0.68430  0.62480  Biso   1.000  N
  N10      1.0000 0.49585  0.68430  0.87520  Biso   1.000  N
  N11      1.0000 0.00415  0.18430  0.62480  Biso   1.000  N
  N12      1.0000 0.99585  0.18430  0.87520  Biso   1.000  N
  N13      1.0000 0.49585  0.31570  0.37520  Biso   1.000  N
  N14      1.0000 0.50415  0.31570  0.12480  Biso   1.000  N
  N15      1.0000 0.99585  0.81570  0.37520  Biso   1.000  N
  N16      1.0000 0.00415  0.81570  0.12480  Biso   1.000  N
  C89      1.0000 0.50000  0.43980  0.41990  Biso   1.000  C
  C90      1.0000 0.50000  0.43980  0.08010  Biso   1.000  C
  C91      1.0000 0.00000  0.93980  0.41990  Biso   1.000  C
  C92      1.0000 0.00000  0.93980  0.08010  Biso   1.000  C
  C93      1.0000 0.50000  0.56020  0.58010  Biso   1.000  C
  C94      1.0000 0.50000  0.56020  0.91990  Biso   1.000  C
  C95      1.0000 0.00000  0.06020  0.58010  Biso   1.000  C
  C96      1.0000 0.00000  0.06020  0.91990  Biso   1.000  C
  C97      1.0000 0.42090  0.12900  0.93800  Biso   1.000  C
  C98      1.0000 0.57910  0.12900  0.56200  Biso   1.000  C
  C99      1.0000 0.92090  0.62900  0.93800  Biso   1.000  C
  C100     1.0000 0.07910  0.62900  0.56200  Biso   1.000  C
  C101     1.0000 0.57910  0.87100  0.06200  Biso   1.000  C
  C102     1.0000 0.42090  0.87100  0.43800  Biso   1.000  C
  C103     1.0000 0.07910  0.37100  0.06200  Biso   1.000  C
  C104     1.0000 0.92090  0.37100  0.43800  Biso   1.000  C
  C105     1.0000 0.41000  0.95700  0.91700  Biso   1.000  C
  C106     1.0000 0.59000  0.95700  0.58300  Biso   1.000  C
  C107     1.0000 0.91000  0.45700  0.91700  Biso   1.000  C
  C108     1.0000 0.09000  0.45700  0.58300  Biso   1.000  C
  C109     1.0000 0.59000  0.04300  0.08300  Biso   1.000  C
  C110     1.0000 0.41000  0.04300  0.41700  Biso   1.000  C
  C111     1.0000 0.09000  0.54300  0.08300  Biso   1.000  C
  C112     1.0000 0.91000  0.54300  0.41700  Biso   1.000  C
  H65      1.0000 0.40730  0.19070  0.87900  Biso   1.000  H
  H66      1.0000 0.59270  0.19070  0.62100  Biso   1.000  H
  H67      1.0000 0.90730  0.69070  0.87900  Biso   1.000  H
  H68      1.0000 0.09270  0.69070  0.62100  Biso   1.000  H
  H69      1.0000 0.59270  0.80930  0.12100  Biso   1.000  H
  H70      1.0000 0.40730  0.80930  0.37900  Biso   1.000  H
  H71      1.0000 0.09270  0.30930  0.12100  Biso   1.000  H
  H72      1.0000 0.90730  0.30930  0.37900  Biso   1.000  H
  H73      1.0000 0.45280  0.14260  0.94250  Biso   1.000  H
  H74      1.0000 0.54720  0.14260  0.55750  Biso   1.000  H
  H75      1.0000 0.95280  0.64260  0.94250  Biso   1.000  H
  H76      1.0000 0.04720  0.64260  0.55750  Biso   1.000  H
  H77      1.0000 0.54720  0.85740  0.05750  Biso   1.000  H
  H78      1.0000 0.45280  0.85740  0.44250  Biso   1.000  H
  H79      1.0000 0.04720  0.35740  0.05750  Biso   1.000  H
  H80      1.0000 0.95280  0.35740  0.44250  Biso   1.000  H
  H81      1.0000 0.42110  0.89710  0.97890  Biso   1.000  H
  H82      1.0000 0.57890  0.89710  0.52110  Biso   1.000  H
  H83      1.0000 0.92110  0.39710  0.97890  Biso   1.000  H
  H84      1.0000 0.07890  0.39710  0.52110  Biso   1.000  H
  H85      1.0000 0.57890  0.10290  0.02110  Biso   1.000  H
  H86      1.0000 0.42110  0.10290  0.47890  Biso   1.000  H
  H87      1.0000 0.07890  0.60290  0.02110  Biso   1.000  H
  H88      1.0000 0.92110  0.60290  0.47890  Biso   1.000  H
  H89      1.0000 0.42570  0.92180  0.86040  Biso   1.000  H
  H90      1.0000 0.57430  0.92180  0.63960  Biso   1.000  H
  H91      1.0000 0.92570  0.42180  0.86040  Biso   1.000  H
  H92      1.0000 0.07430  0.42180  0.63960  Biso   1.000  H
  H93      1.0000 0.57430  0.07820  0.13960  Biso   1.000  H
  H94      1.0000 0.42570  0.07820  0.36040  Biso   1.000  H
  H95      1.0000 0.07430  0.57820  0.13960  Biso   1.000  H
  H96      1.0000 0.92570  0.57820  0.36040  Biso   1.000  H
