data_image0
_cell_length_a       9.7716
_cell_length_b       9.8378
_cell_length_c       11.9907
_cell_angle_alpha    90
_cell_angle_beta     90.77
_cell_angle_gamma    90

_symmetry_space_group_name_H-M    "P 1"
_symmetry_int_tables_number       1

loop_
  _symmetry_equiv_pos_as_xyz
  'x, y, z'

loop_
  _atom_site_label
  _atom_site_occupancy
  _atom_site_fract_x
  _atom_site_fract_y
  _atom_site_fract_z
  _atom_site_thermal_displace_type
  _atom_site_B_iso_or_equiv
  _atom_site_type_symbol
  C1       1.0000 0.19140  0.60130  0.98443  Biso   1.000  C
  C2       1.0000 0.30860  0.60130  0.51557  Biso   1.000  C
  C3       1.0000 0.80860  0.39870  0.01557  Biso   1.000  C
  C4       1.0000 0.69140  0.39870  0.48443  Biso   1.000  C
  H1       1.0000 0.19370  0.68040  0.02990  Biso   1.000  H
  H2       1.0000 0.30630  0.68040  0.47010  Biso   1.000  H
  H3       1.0000 0.80630  0.31960  0.97010  Biso   1.000  H
  H4       1.0000 0.69370  0.31960  0.52990  Biso   1.000  H
  C5       1.0000 0.22930  0.60840  0.87483  Biso   1.000  C
  C6       1.0000 0.27070  0.60840  0.62517  Biso   1.000  C
  C7       1.0000 0.77070  0.39160  0.12517  Biso   1.000  C
  C8       1.0000 0.72930  0.39160  0.37483  Biso   1.000  C
  H5       1.0000 0.25770  0.69270  0.84430  Biso   1.000  H
  H6       1.0000 0.24230  0.69270  0.65570  Biso   1.000  H
  H7       1.0000 0.74230  0.30730  0.15570  Biso   1.000  H
  H8       1.0000 0.75770  0.30730  0.34430  Biso   1.000  H
  C9       1.0000 0.22630  0.49240  0.80804  Biso   1.000  C
  C10      1.0000 0.27370  0.49240  0.69196  Biso   1.000  C
  C11      1.0000 0.77370  0.50760  0.19196  Biso   1.000  C
  C12      1.0000 0.72630  0.50760  0.30804  Biso   1.000  C
  C13      1.0000 0.17710  0.37280  0.85490  Biso   1.000  C
  C14      1.0000 0.32290  0.37280  0.64510  Biso   1.000  C
  C15      1.0000 0.82290  0.62720  0.14510  Biso   1.000  C
  C16      1.0000 0.67710  0.62720  0.35490  Biso   1.000  C
  H9       1.0000 0.16890  0.29320  0.81050  Biso   1.000  H
  H10      1.0000 0.33110  0.29320  0.68950  Biso   1.000  H
  H11      1.0000 0.83110  0.70680  0.18950  Biso   1.000  H
  H12      1.0000 0.66890  0.70680  0.31050  Biso   1.000  H
  C17      1.0000 0.14060  0.36940  0.96458  Biso   1.000  C
  C18      1.0000 0.35940  0.36940  0.53542  Biso   1.000  C
  C19      1.0000 0.85940  0.63060  0.03542  Biso   1.000  C
  C20      1.0000 0.64060  0.63060  0.46458  Biso   1.000  C
  H13      1.0000 0.10780  0.28730  0.99630  Biso   1.000  H
  H14      1.0000 0.39220  0.28730  0.50370  Biso   1.000  H
  H15      1.0000 0.89220  0.71270  0.00370  Biso   1.000  H
  H16      1.0000 0.60780  0.71270  0.49630  Biso   1.000  H
  C21      1.0000 0.06520  0.21720  0.32350  Biso   1.000  C
  C22      1.0000 0.43480  0.21720  0.17650  Biso   1.000  C
  C23      1.0000 0.93480  0.78280  0.67650  Biso   1.000  C
  C24      1.0000 0.56520  0.78280  0.82350  Biso   1.000  C
  H17      1.0000 0.08170  0.22950  0.24630  Biso   1.000  H
  H18      1.0000 0.41830  0.22950  0.25370  Biso   1.000  H
  H19      1.0000 0.91830  0.77050  0.75370  Biso   1.000  H
  H20      1.0000 0.58170  0.77050  0.74630  Biso   1.000  H
  C25      1.0000 0.03770  0.08980  0.36382  Biso   1.000  C
  C26      1.0000 0.46230  0.08980  0.13618  Biso   1.000  C
  C27      1.0000 0.96230  0.91020  0.63618  Biso   1.000  C
  C28      1.0000 0.53770  0.91020  0.86382  Biso   1.000  C
  H21      1.0000 0.03520  0.01470  0.31400  Biso   1.000  H
  H22      1.0000 0.46480  0.01470  0.18600  Biso   1.000  H
  H23      1.0000 0.96480  0.98530  0.68600  Biso   1.000  H
  H24      1.0000 0.53520  0.98530  0.81400  Biso   1.000  H
  C29      1.0000 0.01340  0.06860  0.47703  Biso   1.000  C
  C30      1.0000 0.48660  0.06860  0.02297  Biso   1.000  C
  C31      1.0000 0.98660  0.93140  0.52297  Biso   1.000  C
  C32      1.0000 0.51340  0.93140  0.97703  Biso   1.000  C
  C33      1.0000 0.01430  0.18310  0.54468  Biso   1.000  C
  C34      1.0000 0.48570  0.18310  0.95532  Biso   1.000  C
  C35      1.0000 0.98570  0.81690  0.45532  Biso   1.000  C
  C36      1.0000 0.51430  0.81690  0.04468  Biso   1.000  C
  H25      1.0000 0.99610  0.17380  0.62190  Biso   1.000  H
  H26      1.0000 0.50390  0.17380  0.87810  Biso   1.000  H
  H27      1.0000 0.00390  0.82620  0.37810  Biso   1.000  H
  H28      1.0000 0.49610  0.82620  0.12190  Biso   1.000  H
  C37      1.0000 0.04100  0.30950  0.50199  Biso   1.000  C
  C38      1.0000 0.45900  0.30950  0.99801  Biso   1.000  C
  C39      1.0000 0.95900  0.69050  0.49801  Biso   1.000  C
  C40      1.0000 0.54100  0.69050  0.00199  Biso   1.000  C
  H29      1.0000 0.03990  0.38680  0.54950  Biso   1.000  H
  H30      1.0000 0.46010  0.38680  0.95050  Biso   1.000  H
  H31      1.0000 0.96010  0.61320  0.45050  Biso   1.000  H
  H32      1.0000 0.53990  0.61320  0.04950  Biso   1.000  H
  N1       1.0000 0.15094  0.48166  0.02716  Biso   1.000  N
  N2       1.0000 0.34906  0.48166  0.47284  Biso   1.000  N
  N3       1.0000 0.84906  0.51834  0.97284  Biso   1.000  N
  N4       1.0000 0.65094  0.51834  0.52716  Biso   1.000  N
  N5       1.0000 0.06888  0.32479  0.39259  Biso   1.000  N
  N6       1.0000 0.43112  0.32479  0.10741  Biso   1.000  N
  N7       1.0000 0.93112  0.67521  0.60741  Biso   1.000  N
  N8       1.0000 0.56888  0.67521  0.89259  Biso   1.000  N
  O1       1.0000 0.11246  0.47386  0.13453  Biso   1.000  O
  O2       1.0000 0.38754  0.47386  0.36547  Biso   1.000  O
  O3       1.0000 0.88754  0.52614  0.86547  Biso   1.000  O
  O4       1.0000 0.61246  0.52614  0.63453  Biso   1.000  O
  O5       1.0000 0.09508  0.45067  0.35508  Biso   1.000  O
  O6       1.0000 0.40492  0.45067  0.14492  Biso   1.000  O
  O7       1.0000 0.90492  0.54933  0.64492  Biso   1.000  O
  O8       1.0000 0.59508  0.54933  0.85508  Biso   1.000  O
  O9       1.0000 0.25000  0.71070  0.25000  Biso   1.000  O
  O10      1.0000 0.75000  0.28930  0.75000  Biso   1.000  O
  H33      1.0000 0.19900  0.75900  0.21700  Biso   1.000  H
  H34      1.0000 0.30100  0.75900  0.28300  Biso   1.000  H
  H35      1.0000 0.80100  0.24100  0.78300  Biso   1.000  H
  H36      1.0000 0.69900  0.24100  0.71700  Biso   1.000  H
  O11      1.0000 0.25000  0.07660  0.75000  Biso   1.000  O
  O12      1.0000 0.75000  0.92340  0.25000  Biso   1.000  O
  H37      1.0000 0.22800  0.03100  0.79900  Biso   1.000  H
  H38      1.0000 0.27200  0.03100  0.70100  Biso   1.000  H
  H39      1.0000 0.77200  0.96900  0.20100  Biso   1.000  H
  H40      1.0000 0.72800  0.96900  0.29900  Biso   1.000  H
  O13      1.0000 0.18015  0.92523  0.94894  Biso   1.000  O
  O14      1.0000 0.31985  0.92523  0.55106  Biso   1.000  O
  O15      1.0000 0.81985  0.07477  0.05106  Biso   1.000  O
  O16      1.0000 0.68015  0.07477  0.44894  Biso   1.000  O
  O17      1.0000 0.06197  0.86845  0.11950  Biso   1.000  O
  O18      1.0000 0.43803  0.86845  0.38050  Biso   1.000  O
  O19      1.0000 0.93803  0.13155  0.88050  Biso   1.000  O
  O20      1.0000 0.56197  0.13155  0.61950  Biso   1.000  O
  O21      1.0000 0.14247  0.09887  0.09046  Biso   1.000  O
  O22      1.0000 0.35753  0.09887  0.40954  Biso   1.000  O
  O23      1.0000 0.85753  0.90113  0.90954  Biso   1.000  O
  O24      1.0000 0.64247  0.90113  0.59046  Biso   1.000  O
  S1       1.0000 0.09569  0.97418  0.03915  Biso   1.000  S
  S2       1.0000 0.40431  0.97418  0.46085  Biso   1.000  S
  S3       1.0000 0.90431  0.02582  0.96085  Biso   1.000  S
  S4       1.0000 0.59569  0.02582  0.53915  Biso   1.000  S
  Cu1      1.0000 0.25000  0.48073  0.25000  Biso   1.000  Cu
  Cu2      1.0000 0.75000  0.51927  0.75000  Biso   1.000  Cu
