data_image0
_cell_length_a       10.276
_cell_length_b       9.891
_cell_length_c       13.244
_cell_angle_alpha    90
_cell_angle_beta     90.573
_cell_angle_gamma    90

_symmetry_space_group_name_H-M    "P 1"
_symmetry_int_tables_number       1

loop_
  _symmetry_equiv_pos_as_xyz
  'x, y, z'

loop_
  _atom_site_label
  _atom_site_occupancy
  _atom_site_fract_x
  _atom_site_fract_y
  _atom_site_fract_z
  _atom_site_thermal_displace_type
  _atom_site_B_iso_or_equiv
  _atom_site_type_symbol
  Cu1      1.0000 0.21410  0.47851  0.97661  Biso   1.000  Cu
  Cu2      1.0000 0.78590  0.97851  0.52339  Biso   1.000  Cu
  Cu3      1.0000 0.78590  0.52149  0.02339  Biso   1.000  Cu
  Cu4      1.0000 0.21410  0.02149  0.47661  Biso   1.000  Cu
  O1       1.0000 0.34610  0.33350  0.99350  Biso   1.000  O
  O2       1.0000 0.65390  0.83350  0.50650  Biso   1.000  O
  O3       1.0000 0.65390  0.66650  0.00650  Biso   1.000  O
  O4       1.0000 0.34610  0.16650  0.49350  Biso   1.000  O
  O5       1.0000 0.40870  0.28290  0.83650  Biso   1.000  O
  O6       1.0000 0.59130  0.78290  0.66350  Biso   1.000  O
  O7       1.0000 0.59130  0.71710  0.16350  Biso   1.000  O
  O8       1.0000 0.40870  0.21710  0.33650  Biso   1.000  O
  C1       1.0000 0.39950  0.25860  0.92720  Biso   1.000  C
  C2       1.0000 0.60050  0.75860  0.57280  Biso   1.000  C
  C3       1.0000 0.60050  0.74140  0.07280  Biso   1.000  C
  C4       1.0000 0.39950  0.24140  0.42720  Biso   1.000  C
  C5       1.0000 0.45140  0.12470  0.96670  Biso   1.000  C
  C6       1.0000 0.54860  0.62470  0.53330  Biso   1.000  C
  C7       1.0000 0.54860  0.87530  0.03330  Biso   1.000  C
  C8       1.0000 0.45140  0.37530  0.46670  Biso   1.000  C
  C9       1.0000 0.45760  0.09600  0.06900  Biso   1.000  C
  C10      1.0000 0.54240  0.59600  0.43100  Biso   1.000  C
  C11      1.0000 0.54240  0.90400  0.93100  Biso   1.000  C
  C12      1.0000 0.45760  0.40400  0.56900  Biso   1.000  C
  H1       1.0000 0.42840  0.16080  0.11650  Biso   1.000  H
  H2       1.0000 0.57160  0.66080  0.38350  Biso   1.000  H
  H3       1.0000 0.57160  0.83920  0.88350  Biso   1.000  H
  H4       1.0000 0.42840  0.33920  0.61650  Biso   1.000  H
  C13      1.0000 0.49380  0.02680  0.89800  Biso   1.000  C
  C14      1.0000 0.50620  0.52680  0.60200  Biso   1.000  C
  C15      1.0000 0.50620  0.97320  0.10200  Biso   1.000  C
  C16      1.0000 0.49380  0.47320  0.39800  Biso   1.000  C
  H5       1.0000 0.48900  0.04500  0.82760  Biso   1.000  H
  H6       1.0000 0.51100  0.54500  0.67240  Biso   1.000  H
  H7       1.0000 0.51100  0.95500  0.17240  Biso   1.000  H
  H8       1.0000 0.48900  0.45500  0.32760  Biso   1.000  H
  O9       1.0000 0.13260  0.66070  0.97850  Biso   1.000  O
  O10      1.0000 0.86740  0.16070  0.52150  Biso   1.000  O
  O11      1.0000 0.86740  0.33930  0.02150  Biso   1.000  O
  O12      1.0000 0.13260  0.83930  0.47850  Biso   1.000  O
  O13      1.0000 0.95830  0.64640  0.07840  Biso   1.000  O
  O14      1.0000 0.04170  0.14640  0.42160  Biso   1.000  O
  O15      1.0000 0.04170  0.35360  0.92160  Biso   1.000  O
  O16      1.0000 0.95830  0.85360  0.57840  Biso   1.000  O
  C17      1.0000 0.03640  0.71070  0.02570  Biso   1.000  C
  C18      1.0000 0.96360  0.21070  0.47430  Biso   1.000  C
  C19      1.0000 0.96360  0.28930  0.97430  Biso   1.000  C
  C20      1.0000 0.03640  0.78930  0.52570  Biso   1.000  C
  C21      1.0000 0.01900  0.86160  0.01270  Biso   1.000  C
  C22      1.0000 0.98100  0.36160  0.48730  Biso   1.000  C
  C23      1.0000 0.98100  0.13840  0.98730  Biso   1.000  C
  C24      1.0000 0.01900  0.63840  0.51270  Biso   1.000  C
  C25      1.0000 0.90220  0.92170  0.04220  Biso   1.000  C
  C26      1.0000 0.09780  0.42170  0.45780  Biso   1.000  C
  C27      1.0000 0.09780  0.07830  0.95780  Biso   1.000  C
  C28      1.0000 0.90220  0.57830  0.54220  Biso   1.000  C
  H9       1.0000 0.83550  0.86820  0.07110  Biso   1.000  H
  H10      1.0000 0.16450  0.36820  0.42890  Biso   1.000  H
  H11      1.0000 0.16450  0.13180  0.92890  Biso   1.000  H
  H12      1.0000 0.83550  0.63180  0.57110  Biso   1.000  H
  C29      1.0000 0.11590  0.94060  0.97100  Biso   1.000  C
  C30      1.0000 0.88410  0.44060  0.52900  Biso   1.000  C
  C31      1.0000 0.88410  0.05940  0.02900  Biso   1.000  C
  C32      1.0000 0.11590  0.55940  0.47100  Biso   1.000  C
  H13      1.0000 0.19550  0.90010  0.95120  Biso   1.000  H
  H14      1.0000 0.80450  0.40010  0.54880  Biso   1.000  H
  H15      1.0000 0.80450  0.09990  0.04880  Biso   1.000  H
  H16      1.0000 0.19550  0.59990  0.45120  Biso   1.000  H
  N1       1.0000 0.17680  0.46150  0.12570  Biso   1.000  N
  N2       1.0000 0.82320  0.96150  0.37430  Biso   1.000  N
  N3       1.0000 0.82320  0.53850  0.87430  Biso   1.000  N
  N4       1.0000 0.17680  0.03850  0.62570  Biso   1.000  N
  H17      1.0000 0.08230  0.48900  0.12860  Biso   1.000  H
  H18      1.0000 0.91770  0.98900  0.37140  Biso   1.000  H
  H19      1.0000 0.91770  0.51100  0.87140  Biso   1.000  H
  H20      1.0000 0.08230  0.01100  0.62860  Biso   1.000  H
  C33      1.0000 0.17220  0.33100  0.17540  Biso   1.000  C
  C34      1.0000 0.82780  0.83100  0.32460  Biso   1.000  C
  C35      1.0000 0.82780  0.66900  0.82460  Biso   1.000  C
  C36      1.0000 0.17220  0.16900  0.67540  Biso   1.000  C
  H21      1.0000 0.26080  0.29570  0.18370  Biso   1.000  H
  H22      1.0000 0.73920  0.79570  0.31630  Biso   1.000  H
  H23      1.0000 0.73920  0.70430  0.81630  Biso   1.000  H
  H24      1.0000 0.26080  0.20430  0.68370  Biso   1.000  H
  H25      1.0000 0.12050  0.26800  0.13440  Biso   1.000  H
  H26      1.0000 0.87950  0.76800  0.36560  Biso   1.000  H
  H27      1.0000 0.87950  0.73200  0.86560  Biso   1.000  H
  H28      1.0000 0.12050  0.23200  0.63440  Biso   1.000  H
  H29      1.0000 0.13220  0.34110  0.24190  Biso   1.000  H
  H30      1.0000 0.86780  0.84110  0.25810  Biso   1.000  H
  H31      1.0000 0.86780  0.65890  0.75810  Biso   1.000  H
  H32      1.0000 0.13220  0.15890  0.74190  Biso   1.000  H
  C37      1.0000 0.26130  0.55750  0.18160  Biso   1.000  C
  C38      1.0000 0.73870  0.05750  0.31840  Biso   1.000  C
  C39      1.0000 0.73870  0.44250  0.81840  Biso   1.000  C
  C40      1.0000 0.26130  0.94250  0.68160  Biso   1.000  C
  H33      1.0000 0.23610  0.55930  0.25280  Biso   1.000  H
  H34      1.0000 0.76390  0.05930  0.24720  Biso   1.000  H
  H35      1.0000 0.76390  0.44070  0.74720  Biso   1.000  H
  H36      1.0000 0.23610  0.94070  0.75280  Biso   1.000  H
  H37      1.0000 0.25160  0.64810  0.15260  Biso   1.000  H
  H38      1.0000 0.74840  0.14810  0.34740  Biso   1.000  H
  H39      1.0000 0.74840  0.35190  0.84740  Biso   1.000  H
  H40      1.0000 0.25160  0.85190  0.65260  Biso   1.000  H
  H41      1.0000 0.35220  0.52860  0.17650  Biso   1.000  H
  H42      1.0000 0.64780  0.02860  0.32350  Biso   1.000  H
  H43      1.0000 0.64780  0.47140  0.82350  Biso   1.000  H
  H44      1.0000 0.35220  0.97140  0.67650  Biso   1.000  H
  N5       1.0000 0.27230  0.52590  0.83650  Biso   1.000  N
  N6       1.0000 0.72770  0.02590  0.66350  Biso   1.000  N
  N7       1.0000 0.72770  0.47410  0.16350  Biso   1.000  N
  N8       1.0000 0.27230  0.97410  0.33650  Biso   1.000  N
  H45      1.0000 0.33860  0.45800  0.81260  Biso   1.000  H
  H46      1.0000 0.66140  0.95800  0.68740  Biso   1.000  H
  H47      1.0000 0.66140  0.54200  0.18740  Biso   1.000  H
  H48      1.0000 0.33860  0.04200  0.31260  Biso   1.000  H
  C41      1.0000 0.17570  0.55390  0.75880  Biso   1.000  C
  C42      1.0000 0.82430  0.05390  0.74120  Biso   1.000  C
  C43      1.0000 0.82430  0.44610  0.24120  Biso   1.000  C
  C44      1.0000 0.17570  0.94610  0.25880  Biso   1.000  C
  H49      1.0000 0.12610  0.63470  0.77720  Biso   1.000  H
  H50      1.0000 0.87390  0.13470  0.72280  Biso   1.000  H
  H51      1.0000 0.87390  0.36530  0.22280  Biso   1.000  H
  H52      1.0000 0.12610  0.86530  0.27720  Biso   1.000  H
  H53      1.0000 0.11650  0.47670  0.75220  Biso   1.000  H
  H54      1.0000 0.88350  0.97670  0.74780  Biso   1.000  H
  H55      1.0000 0.88350  0.52330  0.24780  Biso   1.000  H
  H56      1.0000 0.11650  0.02330  0.25220  Biso   1.000  H
  H57      1.0000 0.21930  0.56940  0.69430  Biso   1.000  H
  H58      1.0000 0.78070  0.06940  0.80570  Biso   1.000  H
  H59      1.0000 0.78070  0.43060  0.30570  Biso   1.000  H
  H60      1.0000 0.21930  0.93060  0.19430  Biso   1.000  H
  C45      1.0000 0.36640  0.63780  0.84880  Biso   1.000  C
  C46      1.0000 0.63360  0.13780  0.65120  Biso   1.000  C
  C47      1.0000 0.63360  0.36220  0.15120  Biso   1.000  C
  C48      1.0000 0.36640  0.86220  0.34880  Biso   1.000  C
  H61      1.0000 0.40320  0.66070  0.78300  Biso   1.000  H
  H62      1.0000 0.59680  0.16070  0.71700  Biso   1.000  H
  H63      1.0000 0.59680  0.33930  0.21700  Biso   1.000  H
  H64      1.0000 0.40320  0.83930  0.28300  Biso   1.000  H
  H65      1.0000 0.43640  0.61000  0.89510  Biso   1.000  H
  H66      1.0000 0.56360  0.11000  0.60490  Biso   1.000  H
  H67      1.0000 0.56360  0.39000  0.10490  Biso   1.000  H
  H68      1.0000 0.43640  0.89000  0.39510  Biso   1.000  H
  H69      1.0000 0.32190  0.71710  0.87640  Biso   1.000  H
  H70      1.0000 0.67810  0.21710  0.62360  Biso   1.000  H
  H71      1.0000 0.67810  0.28290  0.12360  Biso   1.000  H
  H72      1.0000 0.32190  0.78290  0.37640  Biso   1.000  H
