data_image0
_cell_length_a       10.4627
_cell_length_b       9.8602
_cell_length_c       13.3477
_cell_angle_alpha    90
_cell_angle_beta     90.61
_cell_angle_gamma    90

_symmetry_space_group_name_H-M    "P 1"
_symmetry_int_tables_number       1

loop_
  _symmetry_equiv_pos_as_xyz
  'x, y, z'

loop_
  _atom_site_label
  _atom_site_occupancy
  _atom_site_fract_x
  _atom_site_fract_y
  _atom_site_fract_z
  _atom_site_thermal_displace_type
  _atom_site_B_iso_or_equiv
  _atom_site_type_symbol
  Cu1      1.0000 0.78561  0.97853  0.02001  Biso   1.000  Cu
  Cu2      1.0000 0.21439  0.47853  0.47999  Biso   1.000  Cu
  Cu3      1.0000 0.21439  0.02147  0.97999  Biso   1.000  Cu
  Cu4      1.0000 0.78561  0.52147  0.52001  Biso   1.000  Cu
  O1       1.0000 0.66190  0.82890  0.00564  Biso   1.000  O
  O2       1.0000 0.33810  0.32890  0.49436  Biso   1.000  O
  O3       1.0000 0.33810  0.17110  0.99436  Biso   1.000  O
  O4       1.0000 0.66190  0.67110  0.50564  Biso   1.000  O
  O5       1.0000 0.86170  0.16290  0.01670  Biso   1.000  O
  O6       1.0000 0.13830  0.66290  0.48330  Biso   1.000  O
  O7       1.0000 0.13830  0.83710  0.98330  Biso   1.000  O
  O8       1.0000 0.86170  0.33710  0.51670  Biso   1.000  O
  O9       1.0000 0.59320  0.78400  0.16020  Biso   1.000  O
  O10      1.0000 0.40680  0.28400  0.33980  Biso   1.000  O
  O11      1.0000 0.40680  0.21600  0.83980  Biso   1.000  O
  O12      1.0000 0.59320  0.71600  0.66020  Biso   1.000  O
  O13      1.0000 0.03970  0.14380  0.92622  Biso   1.000  O
  O14      1.0000 0.96030  0.64380  0.57378  Biso   1.000  O
  O15      1.0000 0.96030  0.85620  0.07378  Biso   1.000  O
  O16      1.0000 0.03970  0.35620  0.42622  Biso   1.000  O
  N1       1.0000 0.72550  0.02810  0.15730  Biso   1.000  N
  N2       1.0000 0.27450  0.52810  0.34270  Biso   1.000  N
  N3       1.0000 0.27450  0.97190  0.84270  Biso   1.000  N
  N4       1.0000 0.72550  0.47190  0.65730  Biso   1.000  N
  H1       1.0000 0.68120  0.95520  0.18010  Biso   1.000  H
  H2       1.0000 0.31880  0.45520  0.31990  Biso   1.000  H
  H3       1.0000 0.31880  0.04480  0.81990  Biso   1.000  H
  H4       1.0000 0.68120  0.54480  0.68010  Biso   1.000  H
  N5       1.0000 0.82360  0.96090  0.87260  Biso   1.000  N
  N6       1.0000 0.17640  0.46090  0.62740  Biso   1.000  N
  N7       1.0000 0.17640  0.03910  0.12740  Biso   1.000  N
  N8       1.0000 0.82360  0.53910  0.37260  Biso   1.000  N
  H5       1.0000 0.90300  0.99690  0.86500  Biso   1.000  H
  H6       1.0000 0.09700  0.49690  0.63500  Biso   1.000  H
  H7       1.0000 0.09700  0.00310  0.13500  Biso   1.000  H
  H8       1.0000 0.90300  0.50310  0.36500  Biso   1.000  H
  C1       1.0000 0.73850  0.04810  0.81470  Biso   1.000  C
  C2       1.0000 0.26150  0.54810  0.68530  Biso   1.000  C
  C3       1.0000 0.26150  0.95190  0.18530  Biso   1.000  C
  C4       1.0000 0.73850  0.45190  0.31470  Biso   1.000  C
  H9       1.0000 0.76740  0.05260  0.74670  Biso   1.000  H
  H10      1.0000 0.23260  0.55260  0.75330  Biso   1.000  H
  H11      1.0000 0.23260  0.94740  0.25330  Biso   1.000  H
  H12      1.0000 0.76740  0.44740  0.24670  Biso   1.000  H
  H13      1.0000 0.73870  0.13750  0.84320  Biso   1.000  H
  H14      1.0000 0.26130  0.63750  0.65680  Biso   1.000  H
  H15      1.0000 0.26130  0.86250  0.15680  Biso   1.000  H
  H16      1.0000 0.73870  0.36250  0.34320  Biso   1.000  H
  H17      1.0000 0.65340  0.01180  0.81580  Biso   1.000  H
  H18      1.0000 0.34660  0.51180  0.68420  Biso   1.000  H
  H19      1.0000 0.34660  0.98820  0.18420  Biso   1.000  H
  H20      1.0000 0.65340  0.48820  0.31580  Biso   1.000  H
  C5       1.0000 0.82950  0.82500  0.82620  Biso   1.000  C
  C6       1.0000 0.17050  0.32500  0.67380  Biso   1.000  C
  C7       1.0000 0.17050  0.17500  0.17380  Biso   1.000  C
  C8       1.0000 0.82950  0.67500  0.32620  Biso   1.000  C
  H21      1.0000 0.74510  0.78730  0.82200  Biso   1.000  H
  H22      1.0000 0.25490  0.28730  0.67800  Biso   1.000  H
  H23      1.0000 0.25490  0.21270  0.17800  Biso   1.000  H
  H24      1.0000 0.74510  0.71270  0.32200  Biso   1.000  H
  H25      1.0000 0.88310  0.76700  0.86630  Biso   1.000  H
  H26      1.0000 0.11690  0.26700  0.63370  Biso   1.000  H
  H27      1.0000 0.11690  0.23300  0.13370  Biso   1.000  H
  H28      1.0000 0.88310  0.73300  0.36630  Biso   1.000  H
  H29      1.0000 0.86430  0.83250  0.76020  Biso   1.000  H
  H30      1.0000 0.13570  0.33250  0.73980  Biso   1.000  H
  H31      1.0000 0.13570  0.16750  0.23980  Biso   1.000  H
  H32      1.0000 0.86430  0.66750  0.26020  Biso   1.000  H
  C9       1.0000 0.63250  0.13960  0.14790  Biso   1.000  C
  C10      1.0000 0.36750  0.63960  0.35210  Biso   1.000  C
  C11      1.0000 0.36750  0.86040  0.85210  Biso   1.000  C
  C12      1.0000 0.63250  0.36040  0.64790  Biso   1.000  C
  H33      1.0000 0.59880  0.16060  0.21270  Biso   1.000  H
  H34      1.0000 0.40120  0.66060  0.28730  Biso   1.000  H
  H35      1.0000 0.40120  0.83940  0.78730  Biso   1.000  H
  H36      1.0000 0.59880  0.33940  0.71270  Biso   1.000  H
  H37      1.0000 0.56400  0.11260  0.10380  Biso   1.000  H
  H38      1.0000 0.43600  0.61260  0.39620  Biso   1.000  H
  H39      1.0000 0.43600  0.88740  0.89620  Biso   1.000  H
  H40      1.0000 0.56400  0.38740  0.60380  Biso   1.000  H
  H41      1.0000 0.67400  0.21830  0.12110  Biso   1.000  H
  H42      1.0000 0.32600  0.71830  0.37890  Biso   1.000  H
  H43      1.0000 0.32600  0.78170  0.87890  Biso   1.000  H
  H44      1.0000 0.67400  0.28170  0.62110  Biso   1.000  H
  C13      1.0000 0.82340  0.05750  0.23320  Biso   1.000  C
  C14      1.0000 0.17660  0.55750  0.26680  Biso   1.000  C
  C15      1.0000 0.17660  0.94250  0.76680  Biso   1.000  C
  C16      1.0000 0.82340  0.44250  0.73320  Biso   1.000  C
  H45      1.0000 0.87280  0.13440  0.21260  Biso   1.000  H
  H46      1.0000 0.12720  0.63440  0.28740  Biso   1.000  H
  H47      1.0000 0.12720  0.86560  0.78740  Biso   1.000  H
  H48      1.0000 0.87280  0.36560  0.71260  Biso   1.000  H
  H49      1.0000 0.87840  0.98020  0.24100  Biso   1.000  H
  H50      1.0000 0.12160  0.48020  0.25900  Biso   1.000  H
  H51      1.0000 0.12160  0.01980  0.75900  Biso   1.000  H
  H52      1.0000 0.87840  0.51980  0.74100  Biso   1.000  H
  H53      1.0000 0.78310  0.07700  0.29580  Biso   1.000  H
  H54      1.0000 0.21690  0.57700  0.20420  Biso   1.000  H
  H55      1.0000 0.21690  0.92300  0.70420  Biso   1.000  H
  H56      1.0000 0.78310  0.42300  0.79580  Biso   1.000  H
  C17      1.0000 0.54790  0.59090  0.93210  Biso   1.000  C
  C18      1.0000 0.45210  0.09090  0.56790  Biso   1.000  C
  C19      1.0000 0.45210  0.40910  0.06790  Biso   1.000  C
  C20      1.0000 0.54790  0.90910  0.43210  Biso   1.000  C
  H57      1.0000 0.58040  0.65160  0.88560  Biso   1.000  H
  H58      1.0000 0.41960  0.15160  0.61440  Biso   1.000  H
  H59      1.0000 0.41960  0.34840  0.11440  Biso   1.000  H
  H60      1.0000 0.58040  0.84840  0.38560  Biso   1.000  H
  C21      1.0000 0.50200  0.53010  0.10020  Biso   1.000  C
  C22      1.0000 0.49800  0.03010  0.39980  Biso   1.000  C
  C23      1.0000 0.49800  0.46990  0.89980  Biso   1.000  C
  C24      1.0000 0.50200  0.96990  0.60020  Biso   1.000  C
  H61      1.0000 0.50340  0.54980  0.16830  Biso   1.000  H
  H62      1.0000 0.49660  0.04980  0.33170  Biso   1.000  H
  H63      1.0000 0.49660  0.45020  0.83170  Biso   1.000  H
  H64      1.0000 0.50340  0.95020  0.66830  Biso   1.000  H
  C25      1.0000 0.09390  0.42010  0.95920  Biso   1.000  C
  C26      1.0000 0.90610  0.92010  0.54080  Biso   1.000  C
  C27      1.0000 0.90610  0.57990  0.04080  Biso   1.000  C
  C28      1.0000 0.09390  0.07990  0.45920  Biso   1.000  C
  H65      1.0000 0.15760  0.36660  0.93150  Biso   1.000  H
  H66      1.0000 0.84240  0.86660  0.56850  Biso   1.000  H
  H67      1.0000 0.84240  0.63340  0.06850  Biso   1.000  H
  H68      1.0000 0.15760  0.13340  0.43150  Biso   1.000  H
  C29      1.0000 0.88560  0.44270  0.02820  Biso   1.000  C
  C30      1.0000 0.11440  0.94270  0.47180  Biso   1.000  C
  C31      1.0000 0.11440  0.55730  0.97180  Biso   1.000  C
  C32      1.0000 0.88560  0.05730  0.52820  Biso   1.000  C
  H69      1.0000 0.80820  0.40460  0.04720  Biso   1.000  H
  H70      1.0000 0.19180  0.90460  0.45280  Biso   1.000  H
  H71      1.0000 0.19180  0.59540  0.95280  Biso   1.000  H
  H72      1.0000 0.80820  0.09540  0.54720  Biso   1.000  H
  C33      1.0000 0.97980  0.36120  0.98730  Biso   1.000  C
  C34      1.0000 0.02020  0.86120  0.51270  Biso   1.000  C
  C35      1.0000 0.02020  0.63880  0.01270  Biso   1.000  C
  C36      1.0000 0.97980  0.13880  0.48730  Biso   1.000  C
  C37      1.0000 0.96090  0.21040  0.97480  Biso   1.000  C
  C38      1.0000 0.03910  0.71040  0.52520  Biso   1.000  C
  C39      1.0000 0.03910  0.78960  0.02520  Biso   1.000  C
  C40      1.0000 0.96090  0.28960  0.47480  Biso   1.000  C
  C41      1.0000 0.60490  0.75660  0.07180  Biso   1.000  C
  C42      1.0000 0.39510  0.25660  0.42820  Biso   1.000  C
  C43      1.0000 0.39510  0.24340  0.92820  Biso   1.000  C
  C44      1.0000 0.60490  0.74340  0.57180  Biso   1.000  C
  C45      1.0000 0.55060  0.62420  0.03280  Biso   1.000  C
  C46      1.0000 0.44940  0.12420  0.46720  Biso   1.000  C
  C47      1.0000 0.44940  0.37580  0.96720  Biso   1.000  C
  C48      1.0000 0.55060  0.87580  0.53280  Biso   1.000  C
