data_image0
_cell_length_a       13.8346
_cell_length_b       20.5675
_cell_length_c       30.1981
_cell_angle_alpha    90
_cell_angle_beta     90
_cell_angle_gamma    90

_symmetry_space_group_name_H-M    "P 1"
_symmetry_int_tables_number       1

loop_
  _symmetry_equiv_pos_as_xyz
  'x, y, z'

loop_
  _atom_site_label
  _atom_site_occupancy
  _atom_site_fract_x
  _atom_site_fract_y
  _atom_site_fract_z
  _atom_site_thermal_displace_type
  _atom_site_B_iso_or_equiv
  _atom_site_type_symbol
  Cu1      1.0000 0.50000  0.75000  0.67513  Biso   1.000  Cu
  Cu2      1.0000 0.50000  0.25000  0.32487  Biso   1.000  Cu
  Cu3      1.0000 0.00000  0.25000  0.17513  Biso   1.000  Cu
  Cu4      1.0000 0.00000  0.75000  0.82487  Biso   1.000  Cu
  Cu5      1.0000 0.50000  0.75000  0.58680  Biso   1.000  Cu
  Cu6      1.0000 0.50000  0.25000  0.41320  Biso   1.000  Cu
  Cu7      1.0000 0.00000  0.25000  0.08680  Biso   1.000  Cu
  Cu8      1.0000 0.00000  0.75000  0.91320  Biso   1.000  Cu
  Cu9      1.0000 0.00000  0.56270  0.48951  Biso   1.000  Cu
  Cu10     1.0000 0.00000  0.93730  0.48951  Biso   1.000  Cu
  Cu11     1.0000 0.00000  0.06270  0.51049  Biso   1.000  Cu
  Cu12     1.0000 0.00000  0.43730  0.51049  Biso   1.000  Cu
  Cu13     1.0000 0.50000  0.06270  0.98951  Biso   1.000  Cu
  Cu14     1.0000 0.50000  0.43730  0.98951  Biso   1.000  Cu
  Cu15     1.0000 0.50000  0.56270  0.01049  Biso   1.000  Cu
  Cu16     1.0000 0.50000  0.93730  0.01049  Biso   1.000  Cu
  O1       1.0000 0.40130  0.68174  0.66885  Biso   1.000  O
  O2       1.0000 0.59870  0.81826  0.66885  Biso   1.000  O
  O3       1.0000 0.59870  0.18174  0.33115  Biso   1.000  O
  O4       1.0000 0.40130  0.31826  0.33115  Biso   1.000  O
  O5       1.0000 0.90130  0.18174  0.16885  Biso   1.000  O
  O6       1.0000 0.09870  0.31826  0.16885  Biso   1.000  O
  O7       1.0000 0.09870  0.68174  0.83115  Biso   1.000  O
  O8       1.0000 0.90130  0.81826  0.83115  Biso   1.000  O
  O9       1.0000 0.59870  0.31826  0.33115  Biso   1.000  O
  O10      1.0000 0.40130  0.18174  0.33115  Biso   1.000  O
  O11      1.0000 0.40130  0.81826  0.66885  Biso   1.000  O
  O12      1.0000 0.59870  0.68174  0.66885  Biso   1.000  O
  O13      1.0000 0.09870  0.81826  0.83115  Biso   1.000  O
  O14      1.0000 0.90130  0.68174  0.83115  Biso   1.000  O
  O15      1.0000 0.90130  0.31826  0.16885  Biso   1.000  O
  O16      1.0000 0.09870  0.18174  0.16885  Biso   1.000  O
  O17      1.0000 0.40060  0.68195  0.59378  Biso   1.000  O
  O18      1.0000 0.59940  0.81805  0.59378  Biso   1.000  O
  O19      1.0000 0.59940  0.18195  0.40622  Biso   1.000  O
  O20      1.0000 0.40060  0.31805  0.40622  Biso   1.000  O
  O21      1.0000 0.90060  0.18195  0.09378  Biso   1.000  O
  O22      1.0000 0.09940  0.31805  0.09378  Biso   1.000  O
  O23      1.0000 0.09940  0.68195  0.90622  Biso   1.000  O
  O24      1.0000 0.90060  0.81805  0.90622  Biso   1.000  O
  O25      1.0000 0.59940  0.31805  0.40622  Biso   1.000  O
  O26      1.0000 0.40060  0.18195  0.40622  Biso   1.000  O
  O27      1.0000 0.40060  0.81805  0.59378  Biso   1.000  O
  O28      1.0000 0.59940  0.68195  0.59378  Biso   1.000  O
  O29      1.0000 0.09940  0.81805  0.90622  Biso   1.000  O
  O30      1.0000 0.90060  0.68195  0.90622  Biso   1.000  O
  O31      1.0000 0.90060  0.31805  0.09378  Biso   1.000  O
  O32      1.0000 0.09940  0.18195  0.09378  Biso   1.000  O
  O33      1.0000 0.10120  0.56535  0.53567  Biso   1.000  O
  O34      1.0000 0.89880  0.93465  0.53567  Biso   1.000  O
  O35      1.0000 0.89880  0.06535  0.46433  Biso   1.000  O
  O36      1.0000 0.10120  0.43465  0.46433  Biso   1.000  O
  O37      1.0000 0.60120  0.06535  0.03567  Biso   1.000  O
  O38      1.0000 0.39880  0.43465  0.03567  Biso   1.000  O
  O39      1.0000 0.39880  0.56535  0.96433  Biso   1.000  O
  O40      1.0000 0.60120  0.93465  0.96433  Biso   1.000  O
  O41      1.0000 0.89880  0.43465  0.46433  Biso   1.000  O
  O42      1.0000 0.10120  0.06535  0.46433  Biso   1.000  O
  O43      1.0000 0.10120  0.93465  0.53567  Biso   1.000  O
  O44      1.0000 0.89880  0.56535  0.53567  Biso   1.000  O
  O45      1.0000 0.39880  0.93465  0.96433  Biso   1.000  O
  O46      1.0000 0.60120  0.56535  0.96433  Biso   1.000  O
  O47      1.0000 0.60120  0.43465  0.03567  Biso   1.000  O
  O48      1.0000 0.39880  0.06535  0.03567  Biso   1.000  O
  O49      1.0000 0.09780  0.45920  0.55480  Biso   1.000  O
  O50      1.0000 0.90220  0.04080  0.55480  Biso   1.000  O
  O51      1.0000 0.90220  0.95920  0.44520  Biso   1.000  O
  O52      1.0000 0.09780  0.54080  0.44520  Biso   1.000  O
  O53      1.0000 0.59780  0.95920  0.05480  Biso   1.000  O
  O54      1.0000 0.40220  0.54080  0.05480  Biso   1.000  O
  O55      1.0000 0.40220  0.45920  0.94520  Biso   1.000  O
  O56      1.0000 0.59780  0.04080  0.94520  Biso   1.000  O
  O57      1.0000 0.90220  0.54080  0.44520  Biso   1.000  O
  O58      1.0000 0.09780  0.95920  0.44520  Biso   1.000  O
  O59      1.0000 0.09780  0.04080  0.55480  Biso   1.000  O
  O60      1.0000 0.90220  0.45920  0.55480  Biso   1.000  O
  O61      1.0000 0.40220  0.04080  0.94520  Biso   1.000  O
  O62      1.0000 0.59780  0.45920  0.94520  Biso   1.000  O
  O63      1.0000 0.59780  0.54080  0.05480  Biso   1.000  O
  O64      1.0000 0.40220  0.95920  0.05480  Biso   1.000  O
  O65      1.0000 0.50000  0.75000  0.74600  Biso   1.000  O
  O66      1.0000 0.50000  0.25000  0.25400  Biso   1.000  O
  O67      1.0000 0.00000  0.25000  0.24600  Biso   1.000  O
  O68      1.0000 0.00000  0.75000  0.75400  Biso   1.000  O
  O69      1.0000 0.50000  0.75000  0.51740  Biso   1.000  O
  O70      1.0000 0.50000  0.25000  0.48260  Biso   1.000  O
  O71      1.0000 0.00000  0.25000  0.01740  Biso   1.000  O
  O72      1.0000 0.00000  0.75000  0.98260  Biso   1.000  O
  H1       1.0000 0.50000  0.71160  0.50810  Biso   1.000  H
  H2       1.0000 0.50000  0.78840  0.50810  Biso   1.000  H
  H3       1.0000 0.50000  0.21160  0.49190  Biso   1.000  H
  H4       1.0000 0.50000  0.28840  0.49190  Biso   1.000  H
  H5       1.0000 0.00000  0.21160  0.00810  Biso   1.000  H
  H6       1.0000 0.00000  0.28840  0.00810  Biso   1.000  H
  H7       1.0000 0.00000  0.71160  0.99190  Biso   1.000  H
  H8       1.0000 0.00000  0.78840  0.99190  Biso   1.000  H
  O73      1.0000 0.00000  0.66340  0.47900  Biso   1.000  O
  O74      1.0000 0.00000  0.83660  0.47900  Biso   1.000  O
  O75      1.0000 0.00000  0.16340  0.52100  Biso   1.000  O
  O76      1.0000 0.00000  0.33660  0.52100  Biso   1.000  O
  O77      1.0000 0.50000  0.16340  0.97900  Biso   1.000  O
  O78      1.0000 0.50000  0.33660  0.97900  Biso   1.000  O
  O79      1.0000 0.50000  0.66340  0.02100  Biso   1.000  O
  O80      1.0000 0.50000  0.83660  0.02100  Biso   1.000  O
  H9       1.0000 0.04780  0.67940  0.49230  Biso   1.000  H
  H10      1.0000 0.95220  0.82060  0.49230  Biso   1.000  H
  H11      1.0000 0.95220  0.17940  0.50770  Biso   1.000  H
  H12      1.0000 0.04780  0.32060  0.50770  Biso   1.000  H
  H13      1.0000 0.54780  0.17940  0.99230  Biso   1.000  H
  H14      1.0000 0.45220  0.32060  0.99230  Biso   1.000  H
  H15      1.0000 0.45220  0.67940  0.00770  Biso   1.000  H
  H16      1.0000 0.54780  0.82060  0.00770  Biso   1.000  H
  H17      1.0000 0.95220  0.32060  0.50770  Biso   1.000  H
  H18      1.0000 0.04780  0.17940  0.50770  Biso   1.000  H
  H19      1.0000 0.04780  0.82060  0.49230  Biso   1.000  H
  H20      1.0000 0.95220  0.67940  0.49230  Biso   1.000  H
  H21      1.0000 0.45220  0.82060  0.00770  Biso   1.000  H
  H22      1.0000 0.54780  0.67940  0.00770  Biso   1.000  H
  H23      1.0000 0.54780  0.32060  0.99230  Biso   1.000  H
  H24      1.0000 0.45220  0.17940  0.99230  Biso   1.000  H
  N1       1.0000 0.25000  0.49970  0.75000  Biso   1.000  N
  N2       1.0000 0.75000  0.00030  0.75000  Biso   1.000  N
  N3       1.0000 0.75000  0.99970  0.25000  Biso   1.000  N
  N4       1.0000 0.25000  0.50030  0.25000  Biso   1.000  N
  N5       1.0000 0.75000  0.50030  0.25000  Biso   1.000  N
  N6       1.0000 0.25000  0.99970  0.25000  Biso   1.000  N
  N7       1.0000 0.25000  0.00030  0.75000  Biso   1.000  N
  N8       1.0000 0.75000  0.49970  0.75000  Biso   1.000  N
  C1       1.0000 0.37430  0.66030  0.63175  Biso   1.000  C
  C2       1.0000 0.62570  0.83970  0.63175  Biso   1.000  C
  C3       1.0000 0.62570  0.16030  0.36825  Biso   1.000  C
  C4       1.0000 0.37430  0.33970  0.36825  Biso   1.000  C
  C5       1.0000 0.87430  0.16030  0.13175  Biso   1.000  C
  C6       1.0000 0.12570  0.33970  0.13175  Biso   1.000  C
  C7       1.0000 0.12570  0.66030  0.86825  Biso   1.000  C
  C8       1.0000 0.87430  0.83970  0.86825  Biso   1.000  C
  C9       1.0000 0.62570  0.33970  0.36825  Biso   1.000  C
  C10      1.0000 0.37430  0.16030  0.36825  Biso   1.000  C
  C11      1.0000 0.37430  0.83970  0.63175  Biso   1.000  C
  C12      1.0000 0.62570  0.66030  0.63175  Biso   1.000  C
  C13      1.0000 0.12570  0.83970  0.86825  Biso   1.000  C
  C14      1.0000 0.87430  0.66030  0.86825  Biso   1.000  C
  C15      1.0000 0.87430  0.33970  0.13175  Biso   1.000  C
  C16      1.0000 0.12570  0.16030  0.13175  Biso   1.000  C
  C17      1.0000 0.30890  0.60320  0.63251  Biso   1.000  C
  C18      1.0000 0.69110  0.89680  0.63251  Biso   1.000  C
  C19      1.0000 0.69110  0.10320  0.36749  Biso   1.000  C
  C20      1.0000 0.30890  0.39680  0.36749  Biso   1.000  C
  C21      1.0000 0.80890  0.10320  0.13251  Biso   1.000  C
  C22      1.0000 0.19110  0.39680  0.13251  Biso   1.000  C
  C23      1.0000 0.19110  0.60320  0.86749  Biso   1.000  C
  C24      1.0000 0.80890  0.89680  0.86749  Biso   1.000  C
  C25      1.0000 0.69110  0.39680  0.36749  Biso   1.000  C
  C26      1.0000 0.30890  0.10320  0.36749  Biso   1.000  C
  C27      1.0000 0.30890  0.89680  0.63251  Biso   1.000  C
  C28      1.0000 0.69110  0.60320  0.63251  Biso   1.000  C
  C29      1.0000 0.19110  0.89680  0.86749  Biso   1.000  C
  C30      1.0000 0.80890  0.60320  0.86749  Biso   1.000  C
  C31      1.0000 0.80890  0.39680  0.13251  Biso   1.000  C
  C32      1.0000 0.19110  0.10320  0.13251  Biso   1.000  C
  C33      1.0000 0.25220  0.58650  0.59514  Biso   1.000  C
  C34      1.0000 0.74780  0.91350  0.59514  Biso   1.000  C
  C35      1.0000 0.74780  0.08650  0.40486  Biso   1.000  C
  C36      1.0000 0.25220  0.41350  0.40486  Biso   1.000  C
  C37      1.0000 0.75220  0.08650  0.09514  Biso   1.000  C
  C38      1.0000 0.24780  0.41350  0.09514  Biso   1.000  C
  C39      1.0000 0.24780  0.58650  0.90486  Biso   1.000  C
  C40      1.0000 0.75220  0.91350  0.90486  Biso   1.000  C
  C41      1.0000 0.74780  0.41350  0.40486  Biso   1.000  C
  C42      1.0000 0.25220  0.08650  0.40486  Biso   1.000  C
  C43      1.0000 0.25220  0.91350  0.59514  Biso   1.000  C
  C44      1.0000 0.74780  0.58650  0.59514  Biso   1.000  C
  C45      1.0000 0.24780  0.91350  0.90486  Biso   1.000  C
  C46      1.0000 0.75220  0.58650  0.90486  Biso   1.000  C
  C47      1.0000 0.75220  0.41350  0.09514  Biso   1.000  C
  C48      1.0000 0.24780  0.08650  0.09514  Biso   1.000  C
  H25      1.0000 0.25380  0.61240  0.56990  Biso   1.000  H
  H26      1.0000 0.74620  0.88760  0.56990  Biso   1.000  H
  H27      1.0000 0.74620  0.11240  0.43010  Biso   1.000  H
  H28      1.0000 0.25380  0.38760  0.43010  Biso   1.000  H
  H29      1.0000 0.75380  0.11240  0.06990  Biso   1.000  H
  H30      1.0000 0.24620  0.38760  0.06990  Biso   1.000  H
  H31      1.0000 0.24620  0.61240  0.93010  Biso   1.000  H
  H32      1.0000 0.75380  0.88760  0.93010  Biso   1.000  H
  H33      1.0000 0.74620  0.38760  0.43010  Biso   1.000  H
  H34      1.0000 0.25380  0.11240  0.43010  Biso   1.000  H
  H35      1.0000 0.25380  0.88760  0.56990  Biso   1.000  H
  H36      1.0000 0.74620  0.61240  0.56990  Biso   1.000  H
  H37      1.0000 0.24620  0.88760  0.93010  Biso   1.000  H
  H38      1.0000 0.75380  0.61240  0.93010  Biso   1.000  H
  H39      1.0000 0.75380  0.38760  0.06990  Biso   1.000  H
  H40      1.0000 0.24620  0.11240  0.06990  Biso   1.000  H
  C49      1.0000 0.19450  0.53160  0.59641  Biso   1.000  C
  C50      1.0000 0.80550  0.96840  0.59641  Biso   1.000  C
  C51      1.0000 0.80550  0.03160  0.40359  Biso   1.000  C
  C52      1.0000 0.19450  0.46840  0.40359  Biso   1.000  C
  C53      1.0000 0.69450  0.03160  0.09641  Biso   1.000  C
  C54      1.0000 0.30550  0.46840  0.09641  Biso   1.000  C
  C55      1.0000 0.30550  0.53160  0.90359  Biso   1.000  C
  C56      1.0000 0.69450  0.96840  0.90359  Biso   1.000  C
  C57      1.0000 0.80550  0.46840  0.40359  Biso   1.000  C
  C58      1.0000 0.19450  0.03160  0.40359  Biso   1.000  C
  C59      1.0000 0.19450  0.96840  0.59641  Biso   1.000  C
  C60      1.0000 0.80550  0.53160  0.59641  Biso   1.000  C
  C61      1.0000 0.30550  0.96840  0.90359  Biso   1.000  C
  C62      1.0000 0.69450  0.53160  0.90359  Biso   1.000  C
  C63      1.0000 0.69450  0.46840  0.09641  Biso   1.000  C
  C64      1.0000 0.30550  0.03160  0.09641  Biso   1.000  C
  C65      1.0000 0.19480  0.49110  0.63351  Biso   1.000  C
  C66      1.0000 0.80520  0.00890  0.63351  Biso   1.000  C
  C67      1.0000 0.80520  0.99110  0.36649  Biso   1.000  C
  C68      1.0000 0.19480  0.50890  0.36649  Biso   1.000  C
  C69      1.0000 0.69480  0.99110  0.13351  Biso   1.000  C
  C70      1.0000 0.30520  0.50890  0.13351  Biso   1.000  C
  C71      1.0000 0.30520  0.49110  0.86649  Biso   1.000  C
  C72      1.0000 0.69480  0.00890  0.86649  Biso   1.000  C
  C73      1.0000 0.80520  0.50890  0.36649  Biso   1.000  C
  C74      1.0000 0.19480  0.99110  0.36649  Biso   1.000  C
  C75      1.0000 0.19480  0.00890  0.63351  Biso   1.000  C
  C76      1.0000 0.80520  0.49110  0.63351  Biso   1.000  C
  C77      1.0000 0.30520  0.00890  0.86649  Biso   1.000  C
  C78      1.0000 0.69480  0.49110  0.86649  Biso   1.000  C
  C79      1.0000 0.69480  0.50890  0.13351  Biso   1.000  C
  C80      1.0000 0.30520  0.99110  0.13351  Biso   1.000  C
  H41      1.0000 0.15910  0.45280  0.63340  Biso   1.000  H
  H42      1.0000 0.84090  0.04720  0.63340  Biso   1.000  H
  H43      1.0000 0.84090  0.95280  0.36660  Biso   1.000  H
  H44      1.0000 0.15910  0.54720  0.36660  Biso   1.000  H
  H45      1.0000 0.65910  0.95280  0.13340  Biso   1.000  H
  H46      1.0000 0.34090  0.54720  0.13340  Biso   1.000  H
  H47      1.0000 0.34090  0.45280  0.86660  Biso   1.000  H
  H48      1.0000 0.65910  0.04720  0.86660  Biso   1.000  H
  H49      1.0000 0.84090  0.54720  0.36660  Biso   1.000  H
  H50      1.0000 0.15910  0.95280  0.36660  Biso   1.000  H
  H51      1.0000 0.15910  0.04720  0.63340  Biso   1.000  H
  H52      1.0000 0.84090  0.45280  0.63340  Biso   1.000  H
  H53      1.0000 0.34090  0.04720  0.86660  Biso   1.000  H
  H54      1.0000 0.65910  0.45280  0.86660  Biso   1.000  H
  H55      1.0000 0.65910  0.54720  0.13340  Biso   1.000  H
  H56      1.0000 0.34090  0.95280  0.13340  Biso   1.000  H
  C81      1.0000 0.24960  0.50840  0.67118  Biso   1.000  C
  C82      1.0000 0.75040  0.99160  0.67118  Biso   1.000  C
  C83      1.0000 0.75040  0.00840  0.32882  Biso   1.000  C
  C84      1.0000 0.24960  0.49160  0.32882  Biso   1.000  C
  C85      1.0000 0.74960  0.00840  0.17118  Biso   1.000  C
  C86      1.0000 0.25040  0.49160  0.17118  Biso   1.000  C
  C87      1.0000 0.25040  0.50840  0.82882  Biso   1.000  C
  C88      1.0000 0.74960  0.99160  0.82882  Biso   1.000  C
  C89      1.0000 0.75040  0.49160  0.32882  Biso   1.000  C
  C90      1.0000 0.24960  0.00840  0.32882  Biso   1.000  C
  C91      1.0000 0.24960  0.99160  0.67118  Biso   1.000  C
  C92      1.0000 0.75040  0.50840  0.67118  Biso   1.000  C
  C93      1.0000 0.25040  0.99160  0.82882  Biso   1.000  C
  C94      1.0000 0.74960  0.50840  0.82882  Biso   1.000  C
  C95      1.0000 0.74960  0.49160  0.17118  Biso   1.000  C
  C96      1.0000 0.25040  0.00840  0.17118  Biso   1.000  C
  C97      1.0000 0.30510  0.56430  0.67010  Biso   1.000  C
  C98      1.0000 0.69490  0.93570  0.67010  Biso   1.000  C
  C99      1.0000 0.69490  0.06430  0.32990  Biso   1.000  C
  C100     1.0000 0.30510  0.43570  0.32990  Biso   1.000  C
  C101     1.0000 0.80510  0.06430  0.17010  Biso   1.000  C
  C102     1.0000 0.19490  0.43570  0.17010  Biso   1.000  C
  C103     1.0000 0.19490  0.56430  0.82990  Biso   1.000  C
  C104     1.0000 0.80510  0.93570  0.82990  Biso   1.000  C
  C105     1.0000 0.69490  0.43570  0.32990  Biso   1.000  C
  C106     1.0000 0.30510  0.06430  0.32990  Biso   1.000  C
  C107     1.0000 0.30510  0.93570  0.67010  Biso   1.000  C
  C108     1.0000 0.69490  0.56430  0.67010  Biso   1.000  C
  C109     1.0000 0.19490  0.93570  0.82990  Biso   1.000  C
  C110     1.0000 0.80510  0.56430  0.82990  Biso   1.000  C
  C111     1.0000 0.80510  0.43570  0.17010  Biso   1.000  C
  C112     1.0000 0.19490  0.06430  0.17010  Biso   1.000  C
  H57      1.0000 0.34050  0.57600  0.69500  Biso   1.000  H
  H58      1.0000 0.65950  0.92400  0.69500  Biso   1.000  H
  H59      1.0000 0.65950  0.07600  0.30500  Biso   1.000  H
  H60      1.0000 0.34050  0.42400  0.30500  Biso   1.000  H
  H61      1.0000 0.84050  0.07600  0.19500  Biso   1.000  H
  H62      1.0000 0.15950  0.42400  0.19500  Biso   1.000  H
  H63      1.0000 0.15950  0.57600  0.80500  Biso   1.000  H
  H64      1.0000 0.84050  0.92400  0.80500  Biso   1.000  H
  H65      1.0000 0.65950  0.42400  0.30500  Biso   1.000  H
  H66      1.0000 0.34050  0.07600  0.30500  Biso   1.000  H
  H67      1.0000 0.34050  0.92400  0.69500  Biso   1.000  H
  H68      1.0000 0.65950  0.57600  0.69500  Biso   1.000  H
  H69      1.0000 0.15950  0.92400  0.80500  Biso   1.000  H
  H70      1.0000 0.84050  0.57600  0.80500  Biso   1.000  H
  H71      1.0000 0.84050  0.42400  0.19500  Biso   1.000  H
  H72      1.0000 0.15950  0.07600  0.19500  Biso   1.000  H
  C113     1.0000 0.12650  0.51670  0.55920  Biso   1.000  C
  C114     1.0000 0.87350  0.98330  0.55920  Biso   1.000  C
  C115     1.0000 0.87350  0.01670  0.44080  Biso   1.000  C
  C116     1.0000 0.12650  0.48330  0.44080  Biso   1.000  C
  C117     1.0000 0.62650  0.01670  0.05920  Biso   1.000  C
  C118     1.0000 0.37350  0.48330  0.05920  Biso   1.000  C
  C119     1.0000 0.37350  0.51670  0.94080  Biso   1.000  C
  C120     1.0000 0.62650  0.98330  0.94080  Biso   1.000  C
  C121     1.0000 0.87350  0.48330  0.44080  Biso   1.000  C
  C122     1.0000 0.12650  0.01670  0.44080  Biso   1.000  C
  C123     1.0000 0.12650  0.98330  0.55920  Biso   1.000  C
  C124     1.0000 0.87350  0.51670  0.55920  Biso   1.000  C
  C125     1.0000 0.37350  0.98330  0.94080  Biso   1.000  C
  C126     1.0000 0.62650  0.51670  0.94080  Biso   1.000  C
  C127     1.0000 0.62650  0.48330  0.05920  Biso   1.000  C
  C128     1.0000 0.37350  0.01670  0.05920  Biso   1.000  C
  C129     1.0000 0.24730  0.46700  0.71200  Biso   1.000  C
  C130     1.0000 0.75270  0.03300  0.71200  Biso   1.000  C
  C131     1.0000 0.75270  0.96700  0.28800  Biso   1.000  C
  C132     1.0000 0.24730  0.53300  0.28800  Biso   1.000  C
  C133     1.0000 0.74730  0.96700  0.21200  Biso   1.000  C
  C134     1.0000 0.25270  0.53300  0.21200  Biso   1.000  C
  C135     1.0000 0.25270  0.46700  0.78800  Biso   1.000  C
  C136     1.0000 0.74730  0.03300  0.78800  Biso   1.000  C
  C137     1.0000 0.75270  0.53300  0.28800  Biso   1.000  C
  C138     1.0000 0.24730  0.96700  0.28800  Biso   1.000  C
  C139     1.0000 0.24730  0.03300  0.71200  Biso   1.000  C
  C140     1.0000 0.75270  0.46700  0.71200  Biso   1.000  C
  C141     1.0000 0.25270  0.03300  0.78800  Biso   1.000  C
  C142     1.0000 0.74730  0.46700  0.78800  Biso   1.000  C
  C143     1.0000 0.74730  0.53300  0.21200  Biso   1.000  C
  C144     1.0000 0.25270  0.96700  0.21200  Biso   1.000  C
  C145     1.0000 0.24740  0.40020  0.71011  Biso   1.000  C
  C146     1.0000 0.75260  0.09980  0.71011  Biso   1.000  C
  C147     1.0000 0.75260  0.90020  0.28989  Biso   1.000  C
  C148     1.0000 0.24740  0.59980  0.28989  Biso   1.000  C
  C149     1.0000 0.74740  0.90020  0.21011  Biso   1.000  C
  C150     1.0000 0.25260  0.59980  0.21011  Biso   1.000  C
  C151     1.0000 0.25260  0.40020  0.78989  Biso   1.000  C
  C152     1.0000 0.74740  0.09980  0.78989  Biso   1.000  C
  C153     1.0000 0.75260  0.59980  0.28989  Biso   1.000  C
  C154     1.0000 0.24740  0.90020  0.28989  Biso   1.000  C
  C155     1.0000 0.24740  0.09980  0.71011  Biso   1.000  C
  C156     1.0000 0.75260  0.40020  0.71011  Biso   1.000  C
  C157     1.0000 0.25260  0.09980  0.78989  Biso   1.000  C
  C158     1.0000 0.74740  0.40020  0.78989  Biso   1.000  C
  C159     1.0000 0.74740  0.59980  0.21011  Biso   1.000  C
  C160     1.0000 0.25260  0.90020  0.21011  Biso   1.000  C
  H73      1.0000 0.24580  0.37860  0.68310  Biso   1.000  H
  H74      1.0000 0.75420  0.12140  0.68310  Biso   1.000  H
  H75      1.0000 0.75420  0.87860  0.31690  Biso   1.000  H
  H76      1.0000 0.24580  0.62140  0.31690  Biso   1.000  H
  H77      1.0000 0.74580  0.87860  0.18310  Biso   1.000  H
  H78      1.0000 0.25420  0.62140  0.18310  Biso   1.000  H
  H79      1.0000 0.25420  0.37860  0.81690  Biso   1.000  H
  H80      1.0000 0.74580  0.12140  0.81690  Biso   1.000  H
  H81      1.0000 0.75420  0.62140  0.31690  Biso   1.000  H
  H82      1.0000 0.24580  0.87860  0.31690  Biso   1.000  H
  H83      1.0000 0.24580  0.12140  0.68310  Biso   1.000  H
  H84      1.0000 0.75420  0.37860  0.68310  Biso   1.000  H
  H85      1.0000 0.25420  0.12140  0.81690  Biso   1.000  H
  H86      1.0000 0.74580  0.37860  0.81690  Biso   1.000  H
  H87      1.0000 0.74580  0.62140  0.18310  Biso   1.000  H
  H88      1.0000 0.25420  0.87860  0.18310  Biso   1.000  H
  C161     1.0000 0.25000  0.36550  0.75000  Biso   1.000  C
  C162     1.0000 0.75000  0.13450  0.75000  Biso   1.000  C
  C163     1.0000 0.75000  0.86550  0.25000  Biso   1.000  C
  C164     1.0000 0.25000  0.63450  0.25000  Biso   1.000  C
  C165     1.0000 0.75000  0.63450  0.25000  Biso   1.000  C
  C166     1.0000 0.25000  0.86550  0.25000  Biso   1.000  C
  C167     1.0000 0.25000  0.13450  0.75000  Biso   1.000  C
  C168     1.0000 0.75000  0.36550  0.75000  Biso   1.000  C
  H89      1.0000 0.25000  0.32030  0.75000  Biso   1.000  H
  H90      1.0000 0.75000  0.17970  0.75000  Biso   1.000  H
  H91      1.0000 0.75000  0.82030  0.25000  Biso   1.000  H
  H92      1.0000 0.25000  0.67970  0.25000  Biso   1.000  H
  H93      1.0000 0.75000  0.67970  0.25000  Biso   1.000  H
  H94      1.0000 0.25000  0.82030  0.25000  Biso   1.000  H
  H95      1.0000 0.25000  0.17970  0.75000  Biso   1.000  H
  H96      1.0000 0.75000  0.32030  0.75000  Biso   1.000  H
  H97      1.0000 0.48760  0.71240  0.75520  Biso   1.000  H
  H98      1.0000 0.51240  0.78760  0.75520  Biso   1.000  H
  H99      1.0000 0.51240  0.21240  0.24480  Biso   1.000  H
  H100     1.0000 0.48760  0.28760  0.24480  Biso   1.000  H
  H101     1.0000 0.98760  0.21240  0.25520  Biso   1.000  H
  H102     1.0000 0.01240  0.28760  0.25520  Biso   1.000  H
  H103     1.0000 0.01240  0.71240  0.74480  Biso   1.000  H
  H104     1.0000 0.98760  0.78760  0.74480  Biso   1.000  H
  H105     1.0000 0.51240  0.28760  0.24480  Biso   1.000  H
  H106     1.0000 0.48760  0.21240  0.24480  Biso   1.000  H
  H107     1.0000 0.48760  0.78760  0.75520  Biso   1.000  H
  H108     1.0000 0.51240  0.71240  0.75520  Biso   1.000  H
  H109     1.0000 0.01240  0.78760  0.74480  Biso   1.000  H
  H110     1.0000 0.98760  0.71240  0.74480  Biso   1.000  H
  H111     1.0000 0.98760  0.28760  0.25520  Biso   1.000  H
  H112     1.0000 0.01240  0.21240  0.25520  Biso   1.000  H
