data_image0
_cell_length_a       18.312
_cell_length_b       9.818
_cell_length_c       7.486
_cell_angle_alpha    90
_cell_angle_beta     107.75
_cell_angle_gamma    90

_symmetry_space_group_name_H-M    "P 1"
_symmetry_int_tables_number       1

loop_
  _symmetry_equiv_pos_as_xyz
  'x, y, z'

loop_
  _atom_site_label
  _atom_site_occupancy
  _atom_site_fract_x
  _atom_site_fract_y
  _atom_site_fract_z
  _atom_site_thermal_displace_type
  _atom_site_B_iso_or_equiv
  _atom_site_type_symbol
  Br1      1.0000 0.41800  0.89650  0.06050  Biso   1.000  Br
  Br2      1.0000 0.91800  0.39650  0.06050  Biso   1.000  Br
  Br3      1.0000 0.58200  0.89650  0.43950  Biso   1.000  Br
  Br4      1.0000 0.08200  0.39650  0.43950  Biso   1.000  Br
  Br5      1.0000 0.58200  0.10350  0.93950  Biso   1.000  Br
  Br6      1.0000 0.08200  0.60350  0.93950  Biso   1.000  Br
  Br7      1.0000 0.41800  0.10350  0.56050  Biso   1.000  Br
  Br8      1.0000 0.91800  0.60350  0.56050  Biso   1.000  Br
  Cu1      1.0000 0.50000  0.06970  0.25000  Biso   1.000  Cu
  Cu2      1.0000 0.00000  0.56970  0.25000  Biso   1.000  Cu
  Cu3      1.0000 0.50000  0.93030  0.75000  Biso   1.000  Cu
  Cu4      1.0000 0.00000  0.43030  0.75000  Biso   1.000  Cu
  N1       1.0000 0.43410  0.22950  0.11930  Biso   1.000  N
  N2       1.0000 0.93410  0.72950  0.11930  Biso   1.000  N
  N3       1.0000 0.56590  0.22950  0.38070  Biso   1.000  N
  N4       1.0000 0.06590  0.72950  0.38070  Biso   1.000  N
  N5       1.0000 0.56590  0.77050  0.88070  Biso   1.000  N
  N6       1.0000 0.06590  0.27050  0.88070  Biso   1.000  N
  N7       1.0000 0.43410  0.77050  0.61930  Biso   1.000  N
  N8       1.0000 0.93410  0.27050  0.61930  Biso   1.000  N
  C1       1.0000 0.42070  0.47140  0.10970  Biso   1.000  C
  C2       1.0000 0.92070  0.97140  0.10970  Biso   1.000  C
  C3       1.0000 0.57930  0.47140  0.39030  Biso   1.000  C
  C4       1.0000 0.07930  0.97140  0.39030  Biso   1.000  C
  C5       1.0000 0.57930  0.52860  0.89030  Biso   1.000  C
  C6       1.0000 0.07930  0.02860  0.89030  Biso   1.000  C
  C7       1.0000 0.42070  0.52860  0.60970  Biso   1.000  C
  C8       1.0000 0.92070  0.02860  0.60970  Biso   1.000  C
  C9       1.0000 0.46110  0.35540  0.17620  Biso   1.000  C
  C10      1.0000 0.96110  0.85540  0.17620  Biso   1.000  C
  C11      1.0000 0.53890  0.35540  0.32380  Biso   1.000  C
  C12      1.0000 0.03890  0.85540  0.32380  Biso   1.000  C
  C13      1.0000 0.53890  0.64460  0.82380  Biso   1.000  C
  C14      1.0000 0.03890  0.14460  0.82380  Biso   1.000  C
  C15      1.0000 0.46110  0.64460  0.67620  Biso   1.000  C
  C16      1.0000 0.96110  0.14460  0.67620  Biso   1.000  C
  C17      1.0000 0.36540  0.22010  0.98950  Biso   1.000  C
  C18      1.0000 0.86540  0.72010  0.98950  Biso   1.000  C
  C19      1.0000 0.63460  0.22010  0.51050  Biso   1.000  C
  C20      1.0000 0.13460  0.72010  0.51050  Biso   1.000  C
  C21      1.0000 0.63460  0.77990  0.01050  Biso   1.000  C
  C22      1.0000 0.13460  0.27990  0.01050  Biso   1.000  C
  C23      1.0000 0.36540  0.77990  0.48950  Biso   1.000  C
  C24      1.0000 0.86540  0.27990  0.48950  Biso   1.000  C
  C25      1.0000 0.34770  0.46270  0.97530  Biso   1.000  C
  C26      1.0000 0.84770  0.96270  0.97530  Biso   1.000  C
  C27      1.0000 0.65230  0.46270  0.52470  Biso   1.000  C
  C28      1.0000 0.15230  0.96270  0.52470  Biso   1.000  C
  C29      1.0000 0.65230  0.53730  0.02470  Biso   1.000  C
  C30      1.0000 0.15230  0.03730  0.02470  Biso   1.000  C
  C31      1.0000 0.34770  0.53730  0.47530  Biso   1.000  C
  C32      1.0000 0.84770  0.03730  0.47530  Biso   1.000  C
  C33      1.0000 0.32180  0.33410  0.91700  Biso   1.000  C
  C34      1.0000 0.82180  0.83410  0.91700  Biso   1.000  C
  C35      1.0000 0.67820  0.33410  0.58300  Biso   1.000  C
  C36      1.0000 0.17820  0.83410  0.58300  Biso   1.000  C
  C37      1.0000 0.67820  0.66590  0.08300  Biso   1.000  C
  C38      1.0000 0.17820  0.16590  0.08300  Biso   1.000  C
  C39      1.0000 0.32180  0.66590  0.41700  Biso   1.000  C
  C40      1.0000 0.82180  0.16590  0.41700  Biso   1.000  C
  C41      1.0000 0.29890  0.58500  0.90640  Biso   1.000  C
  C42      1.0000 0.79890  0.08500  0.90640  Biso   1.000  C
  C43      1.0000 0.70110  0.58500  0.59360  Biso   1.000  C
  C44      1.0000 0.20110  0.08500  0.59360  Biso   1.000  C
  C45      1.0000 0.70110  0.41500  0.09360  Biso   1.000  C
  C46      1.0000 0.20110  0.91500  0.09360  Biso   1.000  C
  C47      1.0000 0.29890  0.41500  0.40640  Biso   1.000  C
  C48      1.0000 0.79890  0.91500  0.40640  Biso   1.000  C
