data_image0
_cell_length_a       18.32
_cell_length_b       9.817
_cell_length_c       7.483
_cell_angle_alpha    90
_cell_angle_beta     107.86
_cell_angle_gamma    90

_symmetry_space_group_name_H-M    "P 1"
_symmetry_int_tables_number       1

loop_
  _symmetry_equiv_pos_as_xyz
  'x, y, z'

loop_
  _atom_site_label
  _atom_site_occupancy
  _atom_site_fract_x
  _atom_site_fract_y
  _atom_site_fract_z
  _atom_site_thermal_displace_type
  _atom_site_B_iso_or_equiv
  _atom_site_type_symbol
  Cu1      1.0000 0.50000  0.43042  0.25000  Biso   1.000  Cu
  Cu2      1.0000 0.00000  0.93042  0.25000  Biso   1.000  Cu
  Cu3      1.0000 0.50000  0.56958  0.75000  Biso   1.000  Cu
  Cu4      1.0000 0.00000  0.06958  0.75000  Biso   1.000  Cu
  Br1      1.0000 0.41803  0.60362  0.06040  Biso   1.000  Br
  Br2      1.0000 0.91803  0.10362  0.06040  Biso   1.000  Br
  Br3      1.0000 0.41803  0.39638  0.56040  Biso   1.000  Br
  Br4      1.0000 0.91803  0.89638  0.56040  Biso   1.000  Br
  Br5      1.0000 0.58197  0.39638  0.93960  Biso   1.000  Br
  Br6      1.0000 0.08197  0.89638  0.93960  Biso   1.000  Br
  Br7      1.0000 0.58197  0.60362  0.43960  Biso   1.000  Br
  Br8      1.0000 0.08197  0.10362  0.43960  Biso   1.000  Br
  N1       1.0000 0.43384  0.27150  0.12020  Biso   1.000  N
  N2       1.0000 0.93384  0.77150  0.12020  Biso   1.000  N
  N3       1.0000 0.43384  0.72850  0.62020  Biso   1.000  N
  N4       1.0000 0.93384  0.22850  0.62020  Biso   1.000  N
  N5       1.0000 0.56616  0.72850  0.87980  Biso   1.000  N
  N6       1.0000 0.06616  0.22850  0.87980  Biso   1.000  N
  N7       1.0000 0.56616  0.27150  0.37980  Biso   1.000  N
  N8       1.0000 0.06616  0.77150  0.37980  Biso   1.000  N
  C1       1.0000 0.46170  0.14570  0.17770  Biso   1.000  C
  C2       1.0000 0.96170  0.64570  0.17770  Biso   1.000  C
  C3       1.0000 0.46170  0.85430  0.67770  Biso   1.000  C
  C4       1.0000 0.96170  0.35430  0.67770  Biso   1.000  C
  C5       1.0000 0.53830  0.85430  0.82230  Biso   1.000  C
  C6       1.0000 0.03830  0.35430  0.82230  Biso   1.000  C
  C7       1.0000 0.53830  0.14570  0.32230  Biso   1.000  C
  C8       1.0000 0.03830  0.64570  0.32230  Biso   1.000  C
  C9       1.0000 0.42040  0.02890  0.10890  Biso   1.000  C
  C10      1.0000 0.92040  0.52890  0.10890  Biso   1.000  C
  C11      1.0000 0.42040  0.97110  0.60890  Biso   1.000  C
  C12      1.0000 0.92040  0.47110  0.60890  Biso   1.000  C
  C13      1.0000 0.57960  0.97110  0.89110  Biso   1.000  C
  C14      1.0000 0.07960  0.47110  0.89110  Biso   1.000  C
  C15      1.0000 0.57960  0.02890  0.39110  Biso   1.000  C
  C16      1.0000 0.07960  0.52890  0.39110  Biso   1.000  C
  H1       1.0000 0.44100  0.94600  0.15500  Biso   1.000  H
  H2       1.0000 0.94100  0.44600  0.15500  Biso   1.000  H
  H3       1.0000 0.44100  0.05400  0.65500  Biso   1.000  H
  H4       1.0000 0.94100  0.55400  0.65500  Biso   1.000  H
  H5       1.0000 0.55900  0.05400  0.84500  Biso   1.000  H
  H6       1.0000 0.05900  0.55400  0.84500  Biso   1.000  H
  H7       1.0000 0.55900  0.94600  0.34500  Biso   1.000  H
  H8       1.0000 0.05900  0.44600  0.34500  Biso   1.000  H
  C17      1.0000 0.34840  0.03720  0.97720  Biso   1.000  C
  C18      1.0000 0.84840  0.53720  0.97720  Biso   1.000  C
  C19      1.0000 0.34840  0.96280  0.47720  Biso   1.000  C
  C20      1.0000 0.84840  0.46280  0.47720  Biso   1.000  C
  C21      1.0000 0.65160  0.96280  0.02280  Biso   1.000  C
  C22      1.0000 0.15160  0.46280  0.02280  Biso   1.000  C
  C23      1.0000 0.65160  0.03720  0.52280  Biso   1.000  C
  C24      1.0000 0.15160  0.53720  0.52280  Biso   1.000  C
  C25      1.0000 0.32200  0.16610  0.91690  Biso   1.000  C
  C26      1.0000 0.82200  0.66610  0.91690  Biso   1.000  C
  C27      1.0000 0.32200  0.83390  0.41690  Biso   1.000  C
  C28      1.0000 0.82200  0.33390  0.41690  Biso   1.000  C
  C29      1.0000 0.67800  0.83390  0.08310  Biso   1.000  C
  C30      1.0000 0.17800  0.33390  0.08310  Biso   1.000  C
  C31      1.0000 0.67800  0.16610  0.58310  Biso   1.000  C
  C32      1.0000 0.17800  0.66610  0.58310  Biso   1.000  C
  H9       1.0000 0.28000  0.17600  0.83200  Biso   1.000  H
  H10      1.0000 0.78000  0.67600  0.83200  Biso   1.000  H
  H11      1.0000 0.28000  0.82400  0.33200  Biso   1.000  H
  H12      1.0000 0.78000  0.32400  0.33200  Biso   1.000  H
  H13      1.0000 0.72000  0.82400  0.16800  Biso   1.000  H
  H14      1.0000 0.22000  0.32400  0.16800  Biso   1.000  H
  H15      1.0000 0.72000  0.17600  0.66800  Biso   1.000  H
  H16      1.0000 0.22000  0.67600  0.66800  Biso   1.000  H
  C33      1.0000 0.36550  0.27900  0.98830  Biso   1.000  C
  C34      1.0000 0.86550  0.77900  0.98830  Biso   1.000  C
  C35      1.0000 0.36550  0.72100  0.48830  Biso   1.000  C
  C36      1.0000 0.86550  0.22100  0.48830  Biso   1.000  C
  C37      1.0000 0.63450  0.72100  0.01170  Biso   1.000  C
  C38      1.0000 0.13450  0.22100  0.01170  Biso   1.000  C
  C39      1.0000 0.63450  0.27900  0.51170  Biso   1.000  C
  C40      1.0000 0.13450  0.77900  0.51170  Biso   1.000  C
  H17      1.0000 0.34800  0.36600  0.95400  Biso   1.000  H
  H18      1.0000 0.84800  0.86600  0.95400  Biso   1.000  H
  H19      1.0000 0.34800  0.63400  0.45400  Biso   1.000  H
  H20      1.0000 0.84800  0.13400  0.45400  Biso   1.000  H
  H21      1.0000 0.65200  0.63400  0.04600  Biso   1.000  H
  H22      1.0000 0.15200  0.13400  0.04600  Biso   1.000  H
  H23      1.0000 0.65200  0.36600  0.54600  Biso   1.000  H
  H24      1.0000 0.15200  0.86600  0.54600  Biso   1.000  H
  C41      1.0000 0.30060  0.91250  0.90590  Biso   1.000  C
  C42      1.0000 0.80060  0.41250  0.90590  Biso   1.000  C
  C43      1.0000 0.30060  0.08750  0.40590  Biso   1.000  C
  C44      1.0000 0.80060  0.58750  0.40590  Biso   1.000  C
  C45      1.0000 0.69940  0.08750  0.09410  Biso   1.000  C
  C46      1.0000 0.19940  0.58750  0.09410  Biso   1.000  C
  C47      1.0000 0.69940  0.91250  0.59410  Biso   1.000  C
  C48      1.0000 0.19940  0.41250  0.59410  Biso   1.000  C
  H25      1.0000 0.27600  0.92100  0.78900  Biso   1.000  H
  H26      1.0000 0.77600  0.42100  0.78900  Biso   1.000  H
  H27      1.0000 0.27600  0.07900  0.28900  Biso   1.000  H
  H28      1.0000 0.77600  0.57900  0.28900  Biso   1.000  H
  H29      1.0000 0.72400  0.07900  0.21100  Biso   1.000  H
  H30      1.0000 0.22400  0.57900  0.21100  Biso   1.000  H
  H31      1.0000 0.72400  0.92100  0.71100  Biso   1.000  H
  H32      1.0000 0.22400  0.42100  0.71100  Biso   1.000  H
  H33      1.0000 0.26000  0.91000  0.94400  Biso   1.000  H
  H34      1.0000 0.76000  0.41000  0.94400  Biso   1.000  H
  H35      1.0000 0.26000  0.09000  0.44400  Biso   1.000  H
  H36      1.0000 0.76000  0.59000  0.44400  Biso   1.000  H
  H37      1.0000 0.74000  0.09000  0.05600  Biso   1.000  H
  H38      1.0000 0.24000  0.59000  0.05600  Biso   1.000  H
  H39      1.0000 0.74000  0.91000  0.55600  Biso   1.000  H
  H40      1.0000 0.24000  0.41000  0.55600  Biso   1.000  H
  H41      1.0000 0.32400  0.83800  0.94200  Biso   1.000  H
  H42      1.0000 0.82400  0.33800  0.94200  Biso   1.000  H
  H43      1.0000 0.32400  0.16200  0.44200  Biso   1.000  H
  H44      1.0000 0.82400  0.66200  0.44200  Biso   1.000  H
  H45      1.0000 0.67600  0.16200  0.05800  Biso   1.000  H
  H46      1.0000 0.17600  0.66200  0.05800  Biso   1.000  H
  H47      1.0000 0.67600  0.83800  0.55800  Biso   1.000  H
  H48      1.0000 0.17600  0.33800  0.55800  Biso   1.000  H
