data_image0
_cell_length_a       17.5087
_cell_length_b       17.5087
_cell_length_c       15.1964
_cell_angle_alpha    90
_cell_angle_beta     90
_cell_angle_gamma    90

_symmetry_space_group_name_H-M    "P 1"
_symmetry_int_tables_number       1

loop_
  _symmetry_equiv_pos_as_xyz
  'x, y, z'

loop_
  _atom_site_label
  _atom_site_occupancy
  _atom_site_fract_x
  _atom_site_fract_y
  _atom_site_fract_z
  _atom_site_thermal_displace_type
  _atom_site_B_iso_or_equiv
  _atom_site_type_symbol
  C1       1.0000 0.59743  0.90224  0.14556  Biso   1.000  C
  C2       1.0000 0.90257  0.09776  0.64556  Biso   1.000  C
  C3       1.0000 0.84776  0.84743  0.39556  Biso   1.000  C
  C4       1.0000 0.65224  0.15257  0.89556  Biso   1.000  C
  C5       1.0000 0.09743  0.40224  0.64556  Biso   1.000  C
  C6       1.0000 0.40257  0.59776  0.14556  Biso   1.000  C
  C7       1.0000 0.34776  0.34743  0.89556  Biso   1.000  C
  C8       1.0000 0.15224  0.65257  0.39556  Biso   1.000  C
  C9       1.0000 0.40257  0.09776  0.85444  Biso   1.000  C
  C10      1.0000 0.09743  0.90224  0.35444  Biso   1.000  C
  C11      1.0000 0.65224  0.65257  0.10444  Biso   1.000  C
  C12      1.0000 0.84776  0.34743  0.60444  Biso   1.000  C
  C13      1.0000 0.90257  0.59776  0.35444  Biso   1.000  C
  C14      1.0000 0.59743  0.40224  0.85444  Biso   1.000  C
  C15      1.0000 0.15224  0.15257  0.60444  Biso   1.000  C
  C16      1.0000 0.34776  0.84743  0.10444  Biso   1.000  C
  C17      1.0000 0.57610  0.98804  0.14551  Biso   1.000  C
  C18      1.0000 0.92390  0.01196  0.64551  Biso   1.000  C
  C19      1.0000 0.76196  0.82610  0.39551  Biso   1.000  C
  C20      1.0000 0.73804  0.17390  0.89551  Biso   1.000  C
  C21      1.0000 0.07610  0.48804  0.64551  Biso   1.000  C
  C22      1.0000 0.42390  0.51196  0.14551  Biso   1.000  C
  C23      1.0000 0.26196  0.32610  0.89551  Biso   1.000  C
  C24      1.0000 0.23804  0.67390  0.39551  Biso   1.000  C
  C25      1.0000 0.42390  0.01196  0.85449  Biso   1.000  C
  C26      1.0000 0.07610  0.98804  0.35449  Biso   1.000  C
  C27      1.0000 0.73804  0.67390  0.10449  Biso   1.000  C
  C28      1.0000 0.76196  0.32610  0.60449  Biso   1.000  C
  C29      1.0000 0.92390  0.51196  0.35449  Biso   1.000  C
  C30      1.0000 0.57610  0.48804  0.85449  Biso   1.000  C
  C31      1.0000 0.23804  0.17390  0.60449  Biso   1.000  C
  C32      1.0000 0.26196  0.82610  0.10449  Biso   1.000  C
  H1       1.0000 0.62260  0.01850  0.13750  Biso   1.000  H
  H2       1.0000 0.87740  0.98150  0.63750  Biso   1.000  H
  H3       1.0000 0.73150  0.87260  0.38750  Biso   1.000  H
  H4       1.0000 0.76850  0.12740  0.88750  Biso   1.000  H
  H5       1.0000 0.12260  0.51850  0.63750  Biso   1.000  H
  H6       1.0000 0.37740  0.48150  0.13750  Biso   1.000  H
  H7       1.0000 0.23150  0.37260  0.88750  Biso   1.000  H
  H8       1.0000 0.26850  0.62740  0.38750  Biso   1.000  H
  H9       1.0000 0.37740  0.98150  0.86250  Biso   1.000  H
  H10      1.0000 0.12260  0.01850  0.36250  Biso   1.000  H
  H11      1.0000 0.76850  0.62740  0.11250  Biso   1.000  H
  H12      1.0000 0.73150  0.37260  0.61250  Biso   1.000  H
  H13      1.0000 0.87740  0.48150  0.36250  Biso   1.000  H
  H14      1.0000 0.62260  0.51850  0.86250  Biso   1.000  H
  H15      1.0000 0.26850  0.12740  0.61250  Biso   1.000  H
  H16      1.0000 0.23150  0.87260  0.11250  Biso   1.000  H
  C33      1.0000 0.54040  0.00770  0.23418  Biso   1.000  C
  C34      1.0000 0.95960  0.99230  0.73418  Biso   1.000  C
  C35      1.0000 0.74230  0.79040  0.48418  Biso   1.000  C
  C36      1.0000 0.75770  0.20960  0.98418  Biso   1.000  C
  C37      1.0000 0.04040  0.50770  0.73418  Biso   1.000  C
  C38      1.0000 0.45960  0.49230  0.23418  Biso   1.000  C
  C39      1.0000 0.24230  0.29040  0.98418  Biso   1.000  C
  C40      1.0000 0.25770  0.70960  0.48418  Biso   1.000  C
  C41      1.0000 0.45960  0.99230  0.76582  Biso   1.000  C
  C42      1.0000 0.04040  0.00770  0.26582  Biso   1.000  C
  C43      1.0000 0.75770  0.70960  0.01582  Biso   1.000  C
  C44      1.0000 0.74230  0.29040  0.51582  Biso   1.000  C
  C45      1.0000 0.95960  0.49230  0.26582  Biso   1.000  C
  C46      1.0000 0.54040  0.50770  0.76582  Biso   1.000  C
  C47      1.0000 0.25770  0.20960  0.51582  Biso   1.000  C
  C48      1.0000 0.24230  0.79040  0.01582  Biso   1.000  C
  C49      1.0000 0.58430  0.03490  0.30350  Biso   1.000  C
  C50      1.0000 0.91570  0.96510  0.80350  Biso   1.000  C
  C51      1.0000 0.71510  0.83430  0.55350  Biso   1.000  C
  C52      1.0000 0.78490  0.16570  0.05350  Biso   1.000  C
  C53      1.0000 0.08430  0.53490  0.80350  Biso   1.000  C
  C54      1.0000 0.41570  0.46510  0.30350  Biso   1.000  C
  C55      1.0000 0.21510  0.33430  0.05350  Biso   1.000  C
  C56      1.0000 0.28490  0.66570  0.55350  Biso   1.000  C
  C57      1.0000 0.41570  0.96510  0.69650  Biso   1.000  C
  C58      1.0000 0.08430  0.03490  0.19650  Biso   1.000  C
  C59      1.0000 0.78490  0.66570  0.94650  Biso   1.000  C
  C60      1.0000 0.71510  0.33430  0.44650  Biso   1.000  C
  C61      1.0000 0.91570  0.46510  0.19650  Biso   1.000  C
  C62      1.0000 0.58430  0.53490  0.69650  Biso   1.000  C
  C63      1.0000 0.28490  0.16570  0.44650  Biso   1.000  C
  C64      1.0000 0.21510  0.83430  0.94650  Biso   1.000  C
  H17      1.0000 0.63670  0.04040  0.29610  Biso   1.000  H
  H18      1.0000 0.86330  0.95960  0.79610  Biso   1.000  H
  H19      1.0000 0.70960  0.88670  0.54610  Biso   1.000  H
  H20      1.0000 0.79040  0.11330  0.04610  Biso   1.000  H
  H21      1.0000 0.13670  0.54040  0.79610  Biso   1.000  H
  H22      1.0000 0.36330  0.45960  0.29610  Biso   1.000  H
  H23      1.0000 0.20960  0.38670  0.04610  Biso   1.000  H
  H24      1.0000 0.29040  0.61330  0.54610  Biso   1.000  H
  H25      1.0000 0.36330  0.95960  0.70390  Biso   1.000  H
  H26      1.0000 0.13670  0.04040  0.20390  Biso   1.000  H
  H27      1.0000 0.79040  0.61330  0.95390  Biso   1.000  H
  H28      1.0000 0.70960  0.38670  0.45390  Biso   1.000  H
  H29      1.0000 0.86330  0.45960  0.20390  Biso   1.000  H
  H30      1.0000 0.63670  0.54040  0.70390  Biso   1.000  H
  H31      1.0000 0.29040  0.11330  0.45390  Biso   1.000  H
  H32      1.0000 0.20960  0.88670  0.95390  Biso   1.000  H
  C65      1.0000 0.55160  0.05380  0.38290  Biso   1.000  C
  C66      1.0000 0.94840  0.94620  0.88290  Biso   1.000  C
  C67      1.0000 0.69620  0.80160  0.63290  Biso   1.000  C
  C68      1.0000 0.80380  0.19840  0.13290  Biso   1.000  C
  C69      1.0000 0.05160  0.55380  0.88290  Biso   1.000  C
  C70      1.0000 0.44840  0.44620  0.38290  Biso   1.000  C
  C71      1.0000 0.19620  0.30160  0.13290  Biso   1.000  C
  C72      1.0000 0.30380  0.69840  0.63290  Biso   1.000  C
  C73      1.0000 0.44840  0.94620  0.61710  Biso   1.000  C
  C74      1.0000 0.05160  0.05380  0.11710  Biso   1.000  C
  C75      1.0000 0.80380  0.69840  0.86710  Biso   1.000  C
  C76      1.0000 0.69620  0.30160  0.36710  Biso   1.000  C
  C77      1.0000 0.94840  0.44620  0.11710  Biso   1.000  C
  C78      1.0000 0.55160  0.55380  0.61710  Biso   1.000  C
  C79      1.0000 0.30380  0.19840  0.36710  Biso   1.000  C
  C80      1.0000 0.19620  0.80160  0.86710  Biso   1.000  C
  H33      1.0000 0.58170  0.07210  0.42870  Biso   1.000  H
  H34      1.0000 0.91830  0.92790  0.92870  Biso   1.000  H
  H35      1.0000 0.67790  0.83170  0.67870  Biso   1.000  H
  H36      1.0000 0.82210  0.16830  0.17870  Biso   1.000  H
  H37      1.0000 0.08170  0.57210  0.92870  Biso   1.000  H
  H38      1.0000 0.41830  0.42790  0.42870  Biso   1.000  H
  H39      1.0000 0.17790  0.33170  0.17870  Biso   1.000  H
  H40      1.0000 0.32210  0.66830  0.67870  Biso   1.000  H
  H41      1.0000 0.41830  0.92790  0.57130  Biso   1.000  H
  H42      1.0000 0.08170  0.07210  0.07130  Biso   1.000  H
  H43      1.0000 0.82210  0.66830  0.82130  Biso   1.000  H
  H44      1.0000 0.67790  0.33170  0.32130  Biso   1.000  H
  H45      1.0000 0.91830  0.42790  0.07130  Biso   1.000  H
  H46      1.0000 0.58170  0.57210  0.57130  Biso   1.000  H
  H47      1.0000 0.32210  0.16830  0.32130  Biso   1.000  H
  H48      1.0000 0.17790  0.83170  0.82130  Biso   1.000  H
  C81      1.0000 0.47550  0.04550  0.39400  Biso   1.000  C
  C82      1.0000 0.02450  0.95450  0.89400  Biso   1.000  C
  C83      1.0000 0.70450  0.72550  0.64400  Biso   1.000  C
  C84      1.0000 0.79550  0.27450  0.14400  Biso   1.000  C
  C85      1.0000 0.97550  0.54550  0.89400  Biso   1.000  C
  C86      1.0000 0.52450  0.45450  0.39400  Biso   1.000  C
  C87      1.0000 0.20450  0.22550  0.14400  Biso   1.000  C
  C88      1.0000 0.29550  0.77450  0.64400  Biso   1.000  C
  C89      1.0000 0.52450  0.95450  0.60600  Biso   1.000  C
  C90      1.0000 0.97550  0.04550  0.10600  Biso   1.000  C
  C91      1.0000 0.79550  0.77450  0.85600  Biso   1.000  C
  C92      1.0000 0.70450  0.22550  0.35600  Biso   1.000  C
  C93      1.0000 0.02450  0.45450  0.10600  Biso   1.000  C
  C94      1.0000 0.47550  0.54550  0.60600  Biso   1.000  C
  C95      1.0000 0.29550  0.27450  0.35600  Biso   1.000  C
  C96      1.0000 0.20450  0.72550  0.85600  Biso   1.000  C
  H49      1.0000 0.45340  0.05910  0.44740  Biso   1.000  H
  H50      1.0000 0.04660  0.94090  0.94740  Biso   1.000  H
  H51      1.0000 0.69090  0.70340  0.69740  Biso   1.000  H
  H52      1.0000 0.80910  0.29660  0.19740  Biso   1.000  H
  H53      1.0000 0.95340  0.55910  0.94740  Biso   1.000  H
  H54      1.0000 0.54660  0.44090  0.44740  Biso   1.000  H
  H55      1.0000 0.19090  0.20340  0.19740  Biso   1.000  H
  H56      1.0000 0.30910  0.79660  0.69740  Biso   1.000  H
  H57      1.0000 0.54660  0.94090  0.55260  Biso   1.000  H
  H58      1.0000 0.95340  0.05910  0.05260  Biso   1.000  H
  H59      1.0000 0.80910  0.79660  0.80260  Biso   1.000  H
  H60      1.0000 0.69090  0.20340  0.30260  Biso   1.000  H
  H61      1.0000 0.04660  0.44090  0.05260  Biso   1.000  H
  H62      1.0000 0.45340  0.55910  0.55260  Biso   1.000  H
  H63      1.0000 0.30910  0.29660  0.30260  Biso   1.000  H
  H64      1.0000 0.19090  0.70340  0.80260  Biso   1.000  H
  C97      1.0000 0.43080  0.01760  0.32850  Biso   1.000  C
  C98      1.0000 0.06920  0.98240  0.82850  Biso   1.000  C
  C99      1.0000 0.73240  0.68080  0.57850  Biso   1.000  C
  C100     1.0000 0.76760  0.31920  0.07850  Biso   1.000  C
  C101     1.0000 0.93080  0.51760  0.82850  Biso   1.000  C
  C102     1.0000 0.56920  0.48240  0.32850  Biso   1.000  C
  C103     1.0000 0.23240  0.18080  0.07850  Biso   1.000  C
  C104     1.0000 0.26760  0.81920  0.57850  Biso   1.000  C
  C105     1.0000 0.56920  0.98240  0.67150  Biso   1.000  C
  C106     1.0000 0.93080  0.01760  0.17150  Biso   1.000  C
  C107     1.0000 0.76760  0.81920  0.92150  Biso   1.000  C
  C108     1.0000 0.73240  0.18080  0.42150  Biso   1.000  C
  C109     1.0000 0.06920  0.48240  0.17150  Biso   1.000  C
  C110     1.0000 0.43080  0.51760  0.67150  Biso   1.000  C
  C111     1.0000 0.26760  0.31920  0.42150  Biso   1.000  C
  C112     1.0000 0.23240  0.68080  0.92150  Biso   1.000  C
  H65      1.0000 0.37870  0.01120  0.33770  Biso   1.000  H
  H66      1.0000 0.12130  0.98880  0.83770  Biso   1.000  H
  H67      1.0000 0.73880  0.62870  0.58770  Biso   1.000  H
  H68      1.0000 0.76120  0.37130  0.08770  Biso   1.000  H
  H69      1.0000 0.87870  0.51120  0.83770  Biso   1.000  H
  H70      1.0000 0.62130  0.48880  0.33770  Biso   1.000  H
  H71      1.0000 0.23880  0.12870  0.08770  Biso   1.000  H
  H72      1.0000 0.26120  0.87130  0.58770  Biso   1.000  H
  H73      1.0000 0.62130  0.98880  0.66230  Biso   1.000  H
  H74      1.0000 0.87870  0.01120  0.16230  Biso   1.000  H
  H75      1.0000 0.76120  0.87130  0.91230  Biso   1.000  H
  H76      1.0000 0.73880  0.12870  0.41230  Biso   1.000  H
  H77      1.0000 0.12130  0.48880  0.16230  Biso   1.000  H
  H78      1.0000 0.37870  0.51120  0.66230  Biso   1.000  H
  H79      1.0000 0.26120  0.37130  0.41230  Biso   1.000  H
  H80      1.0000 0.23880  0.62870  0.91230  Biso   1.000  H
  C113     1.0000 0.46300  0.99849  0.24690  Biso   1.000  C
  C114     1.0000 0.03700  0.00151  0.74690  Biso   1.000  C
  C115     1.0000 0.75151  0.71300  0.49690  Biso   1.000  C
  C116     1.0000 0.74849  0.28700  0.99690  Biso   1.000  C
  C117     1.0000 0.96300  0.49849  0.74690  Biso   1.000  C
  C118     1.0000 0.53700  0.50151  0.24690  Biso   1.000  C
  C119     1.0000 0.25151  0.21300  0.99690  Biso   1.000  C
  C120     1.0000 0.24849  0.78700  0.49690  Biso   1.000  C
  C121     1.0000 0.53700  0.00151  0.75310  Biso   1.000  C
  C122     1.0000 0.96300  0.99849  0.25310  Biso   1.000  C
  C123     1.0000 0.74849  0.78700  0.00310  Biso   1.000  C
  C124     1.0000 0.75151  0.21300  0.50310  Biso   1.000  C
  C125     1.0000 0.03700  0.50151  0.25310  Biso   1.000  C
  C126     1.0000 0.46300  0.49849  0.75310  Biso   1.000  C
  C127     1.0000 0.24849  0.28700  0.50310  Biso   1.000  C
  C128     1.0000 0.25151  0.71300  0.00310  Biso   1.000  C
  H81      1.0000 0.43240  0.97970  0.20180  Biso   1.000  H
  H82      1.0000 0.06760  0.02030  0.70180  Biso   1.000  H
  H83      1.0000 0.77030  0.68240  0.45180  Biso   1.000  H
  H84      1.0000 0.72970  0.31760  0.95180  Biso   1.000  H
  H85      1.0000 0.93240  0.47970  0.70180  Biso   1.000  H
  H86      1.0000 0.56760  0.52030  0.20180  Biso   1.000  H
  H87      1.0000 0.27030  0.18240  0.95180  Biso   1.000  H
  H88      1.0000 0.22970  0.81760  0.45180  Biso   1.000  H
  H89      1.0000 0.56760  0.02030  0.79820  Biso   1.000  H
  H90      1.0000 0.93240  0.97970  0.29820  Biso   1.000  H
  H91      1.0000 0.72970  0.81760  0.04820  Biso   1.000  H
  H92      1.0000 0.77030  0.18240  0.54820  Biso   1.000  H
  H93      1.0000 0.06760  0.52030  0.29820  Biso   1.000  H
  H94      1.0000 0.43240  0.47970  0.79820  Biso   1.000  H
  H95      1.0000 0.22970  0.31760  0.54820  Biso   1.000  H
  H96      1.0000 0.27030  0.68240  0.04820  Biso   1.000  H
  C129     1.0000 0.50000  0.75000  0.98120  Biso   1.000  C
  C130     1.0000 0.00000  0.25000  0.48120  Biso   1.000  C
  C131     1.0000 0.00000  0.75000  0.23120  Biso   1.000  C
  C132     1.0000 0.50000  0.25000  0.73120  Biso   1.000  C
  C133     1.0000 0.50000  0.25000  0.01880  Biso   1.000  C
  C134     1.0000 0.00000  0.75000  0.51880  Biso   1.000  C
  C135     1.0000 0.50000  0.75000  0.26880  Biso   1.000  C
  C136     1.0000 0.00000  0.25000  0.76880  Biso   1.000  C
  H97      1.0000 0.54470  0.75260  0.01880  Biso   1.000  H
  H98      1.0000 0.95530  0.24740  0.51880  Biso   1.000  H
  H99      1.0000 0.99740  0.79470  0.26880  Biso   1.000  H
  H100     1.0000 0.50260  0.20530  0.76880  Biso   1.000  H
  H101     1.0000 0.04470  0.25260  0.51880  Biso   1.000  H
  H102     1.0000 0.45530  0.74740  0.01880  Biso   1.000  H
  H103     1.0000 0.49740  0.29470  0.76880  Biso   1.000  H
  H104     1.0000 0.00260  0.70530  0.26880  Biso   1.000  H
  H105     1.0000 0.45530  0.24740  0.98120  Biso   1.000  H
  H106     1.0000 0.04470  0.75260  0.48120  Biso   1.000  H
  H107     1.0000 0.50260  0.70530  0.23120  Biso   1.000  H
  H108     1.0000 0.99740  0.29470  0.73120  Biso   1.000  H
  H109     1.0000 0.95530  0.74740  0.48120  Biso   1.000  H
  H110     1.0000 0.54470  0.25260  0.98120  Biso   1.000  H
  H111     1.0000 0.00260  0.20530  0.73120  Biso   1.000  H
  H112     1.0000 0.49740  0.79470  0.23120  Biso   1.000  H
  C137     1.0000 0.42712  0.81346  0.86886  Biso   1.000  C
  C138     1.0000 0.07288  0.18654  0.36886  Biso   1.000  C
  C139     1.0000 0.93654  0.67712  0.11886  Biso   1.000  C
  C140     1.0000 0.56346  0.32288  0.61886  Biso   1.000  C
  C141     1.0000 0.92712  0.31346  0.36886  Biso   1.000  C
  C142     1.0000 0.57288  0.68654  0.86886  Biso   1.000  C
  C143     1.0000 0.43654  0.17712  0.61886  Biso   1.000  C
  C144     1.0000 0.06346  0.82288  0.11886  Biso   1.000  C
  C145     1.0000 0.57288  0.18654  0.13114  Biso   1.000  C
  C146     1.0000 0.92712  0.81346  0.63114  Biso   1.000  C
  C147     1.0000 0.56346  0.82288  0.38114  Biso   1.000  C
  C148     1.0000 0.93654  0.17712  0.88114  Biso   1.000  C
  C149     1.0000 0.07288  0.68654  0.63114  Biso   1.000  C
  C150     1.0000 0.42712  0.31346  0.13114  Biso   1.000  C
  C151     1.0000 0.06346  0.32288  0.88114  Biso   1.000  C
  C152     1.0000 0.43654  0.67712  0.38114  Biso   1.000  C
  H113     1.0000 0.38170  0.81100  0.90530  Biso   1.000  H
  H114     1.0000 0.11830  0.18900  0.40530  Biso   1.000  H
  H115     1.0000 0.93900  0.63170  0.15530  Biso   1.000  H
  H116     1.0000 0.56100  0.36830  0.65530  Biso   1.000  H
  H117     1.0000 0.88170  0.31100  0.40530  Biso   1.000  H
  H118     1.0000 0.61830  0.68900  0.90530  Biso   1.000  H
  H119     1.0000 0.43900  0.13170  0.65530  Biso   1.000  H
  H120     1.0000 0.06100  0.86830  0.15530  Biso   1.000  H
  H121     1.0000 0.61830  0.18900  0.09470  Biso   1.000  H
  H122     1.0000 0.88170  0.81100  0.59470  Biso   1.000  H
  H123     1.0000 0.56100  0.86830  0.34470  Biso   1.000  H
  H124     1.0000 0.93900  0.13170  0.84470  Biso   1.000  H
  H125     1.0000 0.11830  0.68900  0.59470  Biso   1.000  H
  H126     1.0000 0.38170  0.31100  0.09470  Biso   1.000  H
  H127     1.0000 0.06100  0.36830  0.84470  Biso   1.000  H
  H128     1.0000 0.43900  0.63170  0.34470  Biso   1.000  H
  H129     1.0000 0.42320  0.85850  0.83190  Biso   1.000  H
  H130     1.0000 0.07680  0.14150  0.33190  Biso   1.000  H
  H131     1.0000 0.89150  0.67320  0.08190  Biso   1.000  H
  H132     1.0000 0.60850  0.32680  0.58190  Biso   1.000  H
  H133     1.0000 0.92320  0.35850  0.33190  Biso   1.000  H
  H134     1.0000 0.57680  0.64150  0.83190  Biso   1.000  H
  H135     1.0000 0.39150  0.17320  0.58190  Biso   1.000  H
  H136     1.0000 0.10850  0.82680  0.08190  Biso   1.000  H
  H137     1.0000 0.57680  0.14150  0.16810  Biso   1.000  H
  H138     1.0000 0.92320  0.85850  0.66810  Biso   1.000  H
  H139     1.0000 0.60850  0.82680  0.41810  Biso   1.000  H
  H140     1.0000 0.89150  0.17320  0.91810  Biso   1.000  H
  H141     1.0000 0.07680  0.64150  0.66810  Biso   1.000  H
  H142     1.0000 0.42320  0.35850  0.16810  Biso   1.000  H
  H143     1.0000 0.10850  0.32680  0.91810  Biso   1.000  H
  H144     1.0000 0.39150  0.67320  0.41810  Biso   1.000  H
  C153     1.0000 0.56481  0.82182  0.86879  Biso   1.000  C
  C154     1.0000 0.93519  0.17818  0.36879  Biso   1.000  C
  C155     1.0000 0.92818  0.81481  0.11879  Biso   1.000  C
  C156     1.0000 0.57182  0.18519  0.61879  Biso   1.000  C
  C157     1.0000 0.06481  0.32182  0.36879  Biso   1.000  C
  C158     1.0000 0.43519  0.67818  0.86879  Biso   1.000  C
  C159     1.0000 0.42818  0.31481  0.61879  Biso   1.000  C
  C160     1.0000 0.07182  0.68519  0.11879  Biso   1.000  C
  C161     1.0000 0.43519  0.17818  0.13121  Biso   1.000  C
  C162     1.0000 0.06481  0.82182  0.63121  Biso   1.000  C
  C163     1.0000 0.57182  0.68519  0.38121  Biso   1.000  C
  C164     1.0000 0.92818  0.31481  0.88121  Biso   1.000  C
  C165     1.0000 0.93519  0.67818  0.63121  Biso   1.000  C
  C166     1.0000 0.56481  0.32182  0.13121  Biso   1.000  C
  C167     1.0000 0.07182  0.18519  0.88121  Biso   1.000  C
  C168     1.0000 0.42818  0.81481  0.38121  Biso   1.000  C
  H145     1.0000 0.56320  0.86700  0.83180  Biso   1.000  H
  H146     1.0000 0.93680  0.13300  0.33180  Biso   1.000  H
  H147     1.0000 0.88300  0.81320  0.08180  Biso   1.000  H
  H148     1.0000 0.61700  0.18680  0.58180  Biso   1.000  H
  H149     1.0000 0.06320  0.36700  0.33180  Biso   1.000  H
  H150     1.0000 0.43680  0.63300  0.83180  Biso   1.000  H
  H151     1.0000 0.38300  0.31320  0.58180  Biso   1.000  H
  H152     1.0000 0.11700  0.68680  0.08180  Biso   1.000  H
  H153     1.0000 0.43680  0.13300  0.16820  Biso   1.000  H
  H154     1.0000 0.06320  0.86700  0.66820  Biso   1.000  H
  H155     1.0000 0.61700  0.68680  0.41820  Biso   1.000  H
  H156     1.0000 0.88300  0.31320  0.91820  Biso   1.000  H
  H157     1.0000 0.93680  0.63300  0.66820  Biso   1.000  H
  H158     1.0000 0.56320  0.36700  0.16820  Biso   1.000  H
  H159     1.0000 0.11700  0.18680  0.91820  Biso   1.000  H
  H160     1.0000 0.38300  0.81320  0.41820  Biso   1.000  H
  H161     1.0000 0.61030  0.82490  0.90510  Biso   1.000  H
  H162     1.0000 0.88970  0.17510  0.40510  Biso   1.000  H
  H163     1.0000 0.92510  0.86030  0.15510  Biso   1.000  H
  H164     1.0000 0.57490  0.13970  0.65510  Biso   1.000  H
  H165     1.0000 0.11030  0.32490  0.40510  Biso   1.000  H
  H166     1.0000 0.38970  0.67510  0.90510  Biso   1.000  H
  H167     1.0000 0.42510  0.36030  0.65510  Biso   1.000  H
  H168     1.0000 0.07490  0.63970  0.15510  Biso   1.000  H
  H169     1.0000 0.38970  0.17510  0.09490  Biso   1.000  H
  H170     1.0000 0.11030  0.82490  0.59490  Biso   1.000  H
  H171     1.0000 0.57490  0.63970  0.34490  Biso   1.000  H
  H172     1.0000 0.92510  0.36030  0.84490  Biso   1.000  H
  H173     1.0000 0.88970  0.67510  0.59490  Biso   1.000  H
  H174     1.0000 0.61030  0.32490  0.09490  Biso   1.000  H
  H175     1.0000 0.07490  0.13970  0.84490  Biso   1.000  H
  H176     1.0000 0.42510  0.86030  0.34490  Biso   1.000  H
  C169     1.0000 0.50000  0.75000  0.75930  Biso   1.000  C
  C170     1.0000 0.00000  0.25000  0.25930  Biso   1.000  C
  C171     1.0000 0.00000  0.75000  0.00930  Biso   1.000  C
  C172     1.0000 0.50000  0.25000  0.50930  Biso   1.000  C
  C173     1.0000 0.50000  0.25000  0.24070  Biso   1.000  C
  C174     1.0000 0.00000  0.75000  0.74070  Biso   1.000  C
  C175     1.0000 0.50000  0.75000  0.49070  Biso   1.000  C
  C176     1.0000 0.00000  0.25000  0.99070  Biso   1.000  C
  H177     1.0000 0.50270  0.70530  0.72180  Biso   1.000  H
  H178     1.0000 0.99730  0.29470  0.22180  Biso   1.000  H
  H179     1.0000 0.04470  0.75270  0.97180  Biso   1.000  H
  H180     1.0000 0.45530  0.24730  0.47180  Biso   1.000  H
  H181     1.0000 0.00270  0.20530  0.22180  Biso   1.000  H
  H182     1.0000 0.49730  0.79470  0.72180  Biso   1.000  H
  H183     1.0000 0.54470  0.25270  0.47180  Biso   1.000  H
  H184     1.0000 0.95530  0.74730  0.97180  Biso   1.000  H
  H185     1.0000 0.49730  0.29470  0.27820  Biso   1.000  H
  H186     1.0000 0.00270  0.70530  0.77820  Biso   1.000  H
  H187     1.0000 0.45530  0.74730  0.52820  Biso   1.000  H
  H188     1.0000 0.04470  0.25270  0.02820  Biso   1.000  H
  H189     1.0000 0.99730  0.79470  0.77820  Biso   1.000  H
  H190     1.0000 0.50270  0.20530  0.27820  Biso   1.000  H
  H191     1.0000 0.95530  0.24730  0.02820  Biso   1.000  H
  H192     1.0000 0.54470  0.75270  0.52820  Biso   1.000  H
  Cu1      1.0000 0.49768  0.91452  0.00683  Biso   1.000  Cu
  Cu2      1.0000 0.00232  0.08548  0.50683  Biso   1.000  Cu
  Cu3      1.0000 0.83548  0.74768  0.25683  Biso   1.000  Cu
  Cu4      1.0000 0.66452  0.25232  0.75683  Biso   1.000  Cu
  Cu5      1.0000 0.99768  0.41452  0.50683  Biso   1.000  Cu
  Cu6      1.0000 0.50232  0.58548  0.00683  Biso   1.000  Cu
  Cu7      1.0000 0.33548  0.24768  0.75683  Biso   1.000  Cu
  Cu8      1.0000 0.16452  0.75232  0.25683  Biso   1.000  Cu
  Cu9      1.0000 0.50232  0.08548  0.99317  Biso   1.000  Cu
  Cu10     1.0000 0.99768  0.91452  0.49317  Biso   1.000  Cu
  Cu11     1.0000 0.66452  0.75232  0.24317  Biso   1.000  Cu
  Cu12     1.0000 0.83548  0.24768  0.74317  Biso   1.000  Cu
  Cu13     1.0000 0.00232  0.58548  0.49317  Biso   1.000  Cu
  Cu14     1.0000 0.49768  0.41452  0.99317  Biso   1.000  Cu
  Cu15     1.0000 0.16452  0.25232  0.74317  Biso   1.000  Cu
  Cu16     1.0000 0.33548  0.74768  0.24317  Biso   1.000  Cu
  N1       1.0000 0.49583  0.82038  0.92648  Biso   1.000  N
  N2       1.0000 0.00417  0.17962  0.42648  Biso   1.000  N
  N3       1.0000 0.92962  0.74583  0.17648  Biso   1.000  N
  N4       1.0000 0.57038  0.25417  0.67648  Biso   1.000  N
  N5       1.0000 0.99583  0.32038  0.42648  Biso   1.000  N
  N6       1.0000 0.50417  0.67962  0.92648  Biso   1.000  N
  N7       1.0000 0.42962  0.24583  0.67648  Biso   1.000  N
  N8       1.0000 0.07038  0.75417  0.17648  Biso   1.000  N
  N9       1.0000 0.50417  0.17962  0.07352  Biso   1.000  N
  N10      1.0000 0.99583  0.82038  0.57352  Biso   1.000  N
  N11      1.0000 0.57038  0.75417  0.32352  Biso   1.000  N
  N12      1.0000 0.92962  0.24583  0.82352  Biso   1.000  N
  N13      1.0000 0.00417  0.67962  0.57352  Biso   1.000  N
  N14      1.0000 0.49583  0.32038  0.07352  Biso   1.000  N
  N15      1.0000 0.07038  0.25417  0.82352  Biso   1.000  N
  N16      1.0000 0.42962  0.74583  0.32352  Biso   1.000  N
  N17      1.0000 0.43077  0.74583  0.81346  Biso   1.000  N
  N18      1.0000 0.06923  0.25417  0.31346  Biso   1.000  N
  N19      1.0000 0.00417  0.68077  0.06346  Biso   1.000  N
  N20      1.0000 0.49583  0.31923  0.56346  Biso   1.000  N
  N21      1.0000 0.93077  0.24583  0.31346  Biso   1.000  N
  N22      1.0000 0.56923  0.75417  0.81346  Biso   1.000  N
  N23      1.0000 0.50417  0.18077  0.56346  Biso   1.000  N
  N24      1.0000 0.99583  0.81923  0.06346  Biso   1.000  N
  N25      1.0000 0.56923  0.25417  0.18654  Biso   1.000  N
  N26      1.0000 0.93077  0.74583  0.68654  Biso   1.000  N
  N27      1.0000 0.49583  0.81923  0.43654  Biso   1.000  N
  N28      1.0000 0.00417  0.18077  0.93654  Biso   1.000  N
  N29      1.0000 0.06923  0.75417  0.68654  Biso   1.000  N
  N30      1.0000 0.43077  0.24583  0.18654  Biso   1.000  N
  N31      1.0000 0.99583  0.31923  0.93654  Biso   1.000  N
  N32      1.0000 0.50417  0.68077  0.43654  Biso   1.000  N
  O1       1.0000 0.56571  0.86166  0.08817  Biso   1.000  O
  O2       1.0000 0.93429  0.13834  0.58817  Biso   1.000  O
  O3       1.0000 0.88834  0.81571  0.33817  Biso   1.000  O
  O4       1.0000 0.61166  0.18429  0.83817  Biso   1.000  O
  O5       1.0000 0.06571  0.36166  0.58817  Biso   1.000  O
  O6       1.0000 0.43429  0.63834  0.08817  Biso   1.000  O
  O7       1.0000 0.38834  0.31571  0.83817  Biso   1.000  O
  O8       1.0000 0.11166  0.68429  0.33817  Biso   1.000  O
  O9       1.0000 0.43429  0.13834  0.91183  Biso   1.000  O
  O10      1.0000 0.06571  0.86166  0.41183  Biso   1.000  O
  O11      1.0000 0.61166  0.68429  0.16183  Biso   1.000  O
  O12      1.0000 0.88834  0.31571  0.66183  Biso   1.000  O
  O13      1.0000 0.93429  0.63834  0.41183  Biso   1.000  O
  O14      1.0000 0.56571  0.36166  0.91183  Biso   1.000  O
  O15      1.0000 0.11166  0.18429  0.66183  Biso   1.000  O
  O16      1.0000 0.38834  0.81571  0.16183  Biso   1.000  O
  O17      1.0000 0.64243  0.87760  0.20197  Biso   1.000  O
  O18      1.0000 0.85757  0.12240  0.70197  Biso   1.000  O
  O19      1.0000 0.87240  0.89243  0.45197  Biso   1.000  O
  O20      1.0000 0.62760  0.10757  0.95197  Biso   1.000  O
  O21      1.0000 0.14243  0.37760  0.70197  Biso   1.000  O
  O22      1.0000 0.35757  0.62240  0.20197  Biso   1.000  O
  O23      1.0000 0.37240  0.39243  0.95197  Biso   1.000  O
  O24      1.0000 0.12760  0.60757  0.45197  Biso   1.000  O
  O25      1.0000 0.35757  0.12240  0.79803  Biso   1.000  O
  O26      1.0000 0.14243  0.87760  0.29803  Biso   1.000  O
  O27      1.0000 0.62760  0.60757  0.04803  Biso   1.000  O
  O28      1.0000 0.87240  0.39243  0.54803  Biso   1.000  O
  O29      1.0000 0.85757  0.62240  0.29803  Biso   1.000  O
  O30      1.0000 0.64243  0.37760  0.79803  Biso   1.000  O
  O31      1.0000 0.12760  0.10757  0.54803  Biso   1.000  O
  O32      1.0000 0.37240  0.89243  0.04803  Biso   1.000  O
  O33      1.0000 0.52598  0.00289  0.07601  Biso   1.000  O
  O34      1.0000 0.97402  0.99711  0.57601  Biso   1.000  O
  O35      1.0000 0.74711  0.77598  0.32601  Biso   1.000  O
  O36      1.0000 0.75289  0.22402  0.82601  Biso   1.000  O
  O37      1.0000 0.02598  0.50289  0.57601  Biso   1.000  O
  O38      1.0000 0.47402  0.49711  0.07601  Biso   1.000  O
  O39      1.0000 0.24711  0.27598  0.82601  Biso   1.000  O
  O40      1.0000 0.25289  0.72402  0.32601  Biso   1.000  O
  O41      1.0000 0.47402  0.99711  0.92399  Biso   1.000  O
  O42      1.0000 0.02598  0.00289  0.42399  Biso   1.000  O
  O43      1.0000 0.75289  0.72402  0.17399  Biso   1.000  O
  O44      1.0000 0.74711  0.27598  0.67399  Biso   1.000  O
  O45      1.0000 0.97402  0.49711  0.42399  Biso   1.000  O
  O46      1.0000 0.52598  0.50289  0.92399  Biso   1.000  O
  O47      1.0000 0.25289  0.22402  0.67399  Biso   1.000  O
  O48      1.0000 0.24711  0.77598  0.17399  Biso   1.000  O
  O49      1.0000 0.27310  0.96380  0.26500  Biso   1.000  O
  O50      1.0000 0.22690  0.03620  0.76500  Biso   1.000  O
  O51      1.0000 0.78620  0.52310  0.51500  Biso   1.000  O
  O52      1.0000 0.71380  0.47690  0.01500  Biso   1.000  O
  O53      1.0000 0.77310  0.46380  0.76500  Biso   1.000  O
  O54      1.0000 0.72690  0.53620  0.26500  Biso   1.000  O
  O55      1.0000 0.28620  0.02310  0.01500  Biso   1.000  O
  O56      1.0000 0.21380  0.97690  0.51500  Biso   1.000  O
  O57      1.0000 0.72690  0.03620  0.73500  Biso   1.000  O
  O58      1.0000 0.77310  0.96380  0.23500  Biso   1.000  O
  O59      1.0000 0.71380  0.97690  0.98500  Biso   1.000  O
  O60      1.0000 0.78620  0.02310  0.48500  Biso   1.000  O
  O61      1.0000 0.22690  0.53620  0.23500  Biso   1.000  O
  O62      1.0000 0.27310  0.46380  0.73500  Biso   1.000  O
  O63      1.0000 0.21380  0.47690  0.48500  Biso   1.000  O
  O64      1.0000 0.28620  0.52310  0.98500  Biso   1.000  O
