data_image0
_cell_length_a       10.2271
_cell_length_b       10.406
_cell_length_c       15.0672
_cell_angle_alpha    91.474
_cell_angle_beta     92.331
_cell_angle_gamma    116.221

_symmetry_space_group_name_H-M    "P 1"
_symmetry_int_tables_number       1

loop_
  _symmetry_equiv_pos_as_xyz
  'x, y, z'

loop_
  _atom_site_label
  _atom_site_occupancy
  _atom_site_fract_x
  _atom_site_fract_y
  _atom_site_fract_z
  _atom_site_thermal_displace_type
  _atom_site_B_iso_or_equiv
  _atom_site_type_symbol
  H1       1.0000 0.87600  0.90900  0.54000  Biso   1.000  H
  H2       1.0000 0.12400  0.09100  0.46000  Biso   1.000  H
  O1       1.0000 0.49290  0.85910  0.25120  Biso   1.000  O
  O2       1.0000 0.50710  0.14090  0.74880  Biso   1.000  O
  O3       1.0000 0.46640  0.08630  0.40967  Biso   1.000  O
  O4       1.0000 0.53360  0.91370  0.59033  Biso   1.000  O
  Cu1      1.0000 0.01516  0.19084  0.28577  Biso   1.000  Cu
  Cu2      1.0000 0.98484  0.80916  0.71423  Biso   1.000  Cu
  Cu3      1.0000 0.05053  0.88396  0.03069  Biso   1.000  Cu
  Cu4      1.0000 0.94947  0.11604  0.96931  Biso   1.000  Cu
  P1       1.0000 0.82542  0.92825  0.15433  Biso   1.000  P
  P2       1.0000 0.17458  0.07175  0.84567  Biso   1.000  P
  P3       1.0000 0.79757  0.94691  0.42839  Biso   1.000  P
  P4       1.0000 0.20243  0.05309  0.57161  Biso   1.000  P
  P5       1.0000 0.20791  0.02722  0.21317  Biso   1.000  P
  P6       1.0000 0.79209  0.97278  0.78683  Biso   1.000  P
  O5       1.0000 0.85720  0.06800  0.20389  Biso   1.000  O
  O6       1.0000 0.14280  0.93200  0.79611  Biso   1.000  O
  O7       1.0000 0.16290  0.13900  0.24170  Biso   1.000  O
  O8       1.0000 0.83710  0.86100  0.75830  Biso   1.000  O
  O9       1.0000 0.91070  0.95010  0.07059  Biso   1.000  O
  O10      1.0000 0.08930  0.04990  0.92941  Biso   1.000  O
  O11      1.0000 0.20920  0.00550  0.11420  Biso   1.000  O
  O12      1.0000 0.79080  0.99450  0.88580  Biso   1.000  O
  N1       1.0000 0.17950  0.36480  0.34828  Biso   1.000  N
  N2       1.0000 0.82050  0.63520  0.65172  Biso   1.000  N
  N3       1.0000 0.90470  0.30650  0.31406  Biso   1.000  N
  N4       1.0000 0.09530  0.69350  0.68594  Biso   1.000  N
  N5       1.0000 0.89180  0.71550  0.95942  Biso   1.000  N
  N6       1.0000 0.10820  0.28450  0.04058  Biso   1.000  N
  O13      1.0000 0.94290  0.06220  0.40483  Biso   1.000  O
  O14      1.0000 0.05710  0.93780  0.59517  Biso   1.000  O
  N7       1.0000 0.17250  0.79060  0.98683  Biso   1.000  N
  N8       1.0000 0.82750  0.20940  0.01317  Biso   1.000  N
  O15      1.0000 0.84670  0.82160  0.21290  Biso   1.000  O
  O16      1.0000 0.15330  0.17840  0.78710  Biso   1.000  O
  O17      1.0000 0.66060  0.86170  0.11784  Biso   1.000  O
  O18      1.0000 0.33940  0.13830  0.88216  Biso   1.000  O
  C1       1.0000 0.09360  0.66770  0.93677  Biso   1.000  C
  C2       1.0000 0.90640  0.33230  0.06323  Biso   1.000  C
  C3       1.0000 0.13980  0.46740  0.37413  Biso   1.000  C
  C4       1.0000 0.86020  0.53260  0.62587  Biso   1.000  C
  C5       1.0000 0.99000  0.43520  0.35682  Biso   1.000  C
  C6       1.0000 0.01000  0.56480  0.64318  Biso   1.000  C
  O19      1.0000 0.80430  0.90970  0.52780  Biso   1.000  O
  O20      1.0000 0.19570  0.09030  0.47220  Biso   1.000  O
  O21      1.0000 0.36900  0.06930  0.24836  Biso   1.000  O
  O22      1.0000 0.63100  0.93070  0.75164  Biso   1.000  O
  O23      1.0000 0.76460  0.80310  0.37548  Biso   1.000  O
  O24      1.0000 0.23540  0.19690  0.62452  Biso   1.000  O
  O25      1.0000 0.66880  0.97850  0.41768  Biso   1.000  O
  O26      1.0000 0.33120  0.02150  0.58232  Biso   1.000  O
  C7       1.0000 0.15420  0.58190  0.90094  Biso   1.000  C
  C8       1.0000 0.84580  0.41810  0.09906  Biso   1.000  C
  C9       1.0000 0.06070  0.45270  0.84990  Biso   1.000  C
  C10      1.0000 0.93930  0.54730  0.15010  Biso   1.000  C
  C11      1.0000 0.93860  0.53470  0.38226  Biso   1.000  C
  C12      1.0000 0.06140  0.46530  0.61774  Biso   1.000  C
  C13      1.0000 0.23700  0.60040  0.41506  Biso   1.000  C
  C14      1.0000 0.76300  0.39960  0.58494  Biso   1.000  C
  O27      1.0000 0.11630  0.88360  0.25653  Biso   1.000  O
  O28      1.0000 0.88370  0.11640  0.74347  Biso   1.000  O
  C15      1.0000 0.94140  0.62780  0.92091  Biso   1.000  C
  C16      1.0000 0.05860  0.37220  0.07909  Biso   1.000  C
  C17      1.0000 0.75080  0.68270  0.94520  Biso   1.000  C
  C18      1.0000 0.24920  0.31730  0.05480  Biso   1.000  C
  C19      1.0000 0.76510  0.27310  0.29660  Biso   1.000  C
  C20      1.0000 0.23490  0.72690  0.70340  Biso   1.000  C
  C21      1.0000 0.91770  0.41700  0.83420  Biso   1.000  C
  C22      1.0000 0.08230  0.58300  0.16580  Biso   1.000  C
  C23      1.0000 0.79050  0.49490  0.36160  Biso   1.000  C
  C24      1.0000 0.20950  0.50510  0.63840  Biso   1.000  C
  C25      1.0000 0.70580  0.47340  0.85480  Biso   1.000  C
  C26      1.0000 0.29420  0.52660  0.14520  Biso   1.000  C
  C27      1.0000 0.85360  0.50400  0.86860  Biso   1.000  C
  C28      1.0000 0.14640  0.49600  0.13140  Biso   1.000  C
  C29      1.0000 0.30540  0.63200  0.91650  Biso   1.000  C
  C30      1.0000 0.69460  0.36800  0.08350  Biso   1.000  C
  C31      1.0000 0.70460  0.36580  0.32000  Biso   1.000  C
  C32      1.0000 0.29540  0.63420  0.68000  Biso   1.000  C
  C33      1.0000 0.42240  0.52200  0.40070  Biso   1.000  C
  C34      1.0000 0.57760  0.47800  0.59930  Biso   1.000  C
  C35      1.0000 0.38260  0.62560  0.42730  Biso   1.000  C
  C36      1.0000 0.61740  0.37440  0.57270  Biso   1.000  C
  C37      1.0000 0.31450  0.83350  0.00120  Biso   1.000  C
  C38      1.0000 0.68550  0.16650  0.99880  Biso   1.000  C
  C39      1.0000 0.31910  0.39220  0.36210  Biso   1.000  C
  C40      1.0000 0.68090  0.60780  0.63790  Biso   1.000  C
  C41      1.0000 0.65680  0.56240  0.89250  Biso   1.000  C
  C42      1.0000 0.34320  0.43760  0.10750  Biso   1.000  C
  C43      1.0000 0.38490  0.75620  0.96580  Biso   1.000  C
  C44      1.0000 0.61510  0.24380  0.03420  Biso   1.000  C
  C45      1.0000 0.18170  0.69870  0.44060  Biso   1.000  C
  C46      1.0000 0.81830  0.30130  0.55940  Biso   1.000  C
  C47      1.0000 0.04050  0.66830  0.42600  Biso   1.000  C
  C48      1.0000 0.95950  0.33170  0.57400  Biso   1.000  C
  H3       1.0000 0.70800  0.18900  0.26400  Biso   1.000  H
  H4       1.0000 0.29200  0.81100  0.73600  Biso   1.000  H
  H5       1.0000 0.75900  0.55000  0.37300  Biso   1.000  H
  H6       1.0000 0.24100  0.45000  0.62700  Biso   1.000  H
  H7       1.0000 0.56100  0.54500  0.88500  Biso   1.000  H
  H8       1.0000 0.43900  0.45500  0.11500  Biso   1.000  H
  H9       1.0000 0.60600  0.33800  0.30900  Biso   1.000  H
  H10      1.0000 0.39400  0.66200  0.69100  Biso   1.000  H
  H11      1.0000 0.00100  0.73300  0.43800  Biso   1.000  H
  H12      1.0000 0.99900  0.26700  0.56200  Biso   1.000  H
  H13      1.0000 0.64700  0.39700  0.82200  Biso   1.000  H
  H14      1.0000 0.35300  0.60300  0.17800  Biso   1.000  H
  H15      1.0000 0.52200  0.54000  0.41100  Biso   1.000  H
  H16      1.0000 0.47800  0.46000  0.58900  Biso   1.000  H
  H17      1.0000 0.35000  0.58200  0.89300  Biso   1.000  H
  H18      1.0000 0.65000  0.41800  0.10700  Biso   1.000  H
  H19      1.0000 0.86500  0.33500  0.80700  Biso   1.000  H
  H20      1.0000 0.13500  0.66500  0.19300  Biso   1.000  H
  H21      1.0000 0.36300  0.91600  0.03600  Biso   1.000  H
  H22      1.0000 0.63700  0.08400  0.96400  Biso   1.000  H
  H23      1.0000 0.48900  0.78900  0.97800  Biso   1.000  H
  H24      1.0000 0.51100  0.21100  0.02200  Biso   1.000  H
  H25      1.0000 0.34000  0.32400  0.34500  Biso   1.000  H
  H26      1.0000 0.66000  0.67600  0.65500  Biso   1.000  H
  H27      1.0000 0.53700  0.88200  0.29100  Biso   1.000  H
  H28      1.0000 0.46300  0.11800  0.70900  Biso   1.000  H
  H29      1.0000 0.41700  0.05900  0.44000  Biso   1.000  H
  H30      1.0000 0.58300  0.94100  0.56000  Biso   1.000  H
  H31      1.0000 0.10400  0.39300  0.83000  Biso   1.000  H
  H32      1.0000 0.89600  0.60700  0.17000  Biso   1.000  H
  H33      1.0000 0.72800  0.74800  0.97100  Biso   1.000  H
  H34      1.0000 0.27200  0.25200  0.02900  Biso   1.000  H
  H35      1.0000 0.38500  0.07100  0.29600  Biso   1.000  H
  H36      1.0000 0.61500  0.92900  0.70400  Biso   1.000  H
  H37      1.0000 0.44200  0.69900  0.45300  Biso   1.000  H
  H38      1.0000 0.55800  0.30100  0.54700  Biso   1.000  H
  H39      1.0000 0.79300  0.82300  0.31900  Biso   1.000  H
  H40      1.0000 0.20700  0.17700  0.68100  Biso   1.000  H
  H41      1.0000 0.24400  0.78500  0.46400  Biso   1.000  H
  H42      1.0000 0.75600  0.21500  0.53600  Biso   1.000  H
  H43      1.0000 0.61700  0.85500  0.14900  Biso   1.000  H
  H44      1.0000 0.38300  0.14500  0.85100  Biso   1.000  H
  H45      1.0000 0.52700  0.05500  0.41200  Biso   1.000  H
  H46      1.0000 0.47300  0.94500  0.58800  Biso   1.000  H
  H47      1.0000 0.44200  0.89400  0.24500  Biso   1.000  H
  H48      1.0000 0.55800  0.10600  0.75500  Biso   1.000  H
  H49      1.0000 0.05300  0.86600  0.24800  Biso   1.000  H
  H50      1.0000 0.94700  0.13400  0.75200  Biso   1.000  H
