data_image0
_cell_length_a       12.8704
_cell_length_b       11.1575
_cell_length_c       17.4207
_cell_angle_alpha    90
_cell_angle_beta     91.099
_cell_angle_gamma    90

_symmetry_space_group_name_H-M    "P 1"
_symmetry_int_tables_number       1

loop_
  _symmetry_equiv_pos_as_xyz
  'x, y, z'

loop_
  _atom_site_label
  _atom_site_occupancy
  _atom_site_fract_x
  _atom_site_fract_y
  _atom_site_fract_z
  _atom_site_thermal_displace_type
  _atom_site_B_iso_or_equiv
  _atom_site_type_symbol
  H1       1.0000 0.30500  0.46500  0.24000  Biso   1.000  H
  H2       1.0000 0.30500  0.53500  0.74000  Biso   1.000  H
  H3       1.0000 0.80500  0.96500  0.24000  Biso   1.000  H
  H4       1.0000 0.80500  0.03500  0.74000  Biso   1.000  H
  H5       1.0000 0.68100  0.47000  0.23700  Biso   1.000  H
  H6       1.0000 0.68100  0.53000  0.73700  Biso   1.000  H
  H7       1.0000 0.18100  0.97000  0.23700  Biso   1.000  H
  H8       1.0000 0.18100  0.03000  0.73700  Biso   1.000  H
  H9       1.0000 0.47900  0.27500  0.25500  Biso   1.000  H
  H10      1.0000 0.47900  0.72500  0.75500  Biso   1.000  H
  H11      1.0000 0.97900  0.77500  0.25500  Biso   1.000  H
  H12      1.0000 0.97900  0.22500  0.75500  Biso   1.000  H
  H13      1.0000 0.05200  0.54100  0.27200  Biso   1.000  H
  H14      1.0000 0.05200  0.45900  0.77200  Biso   1.000  H
  H15      1.0000 0.55200  0.04100  0.27200  Biso   1.000  H
  H16      1.0000 0.55200  0.95900  0.77200  Biso   1.000  H
  H17      1.0000 0.29100  0.79000  0.16100  Biso   1.000  H
  H18      1.0000 0.29100  0.21000  0.66100  Biso   1.000  H
  H19      1.0000 0.79100  0.29000  0.16100  Biso   1.000  H
  H20      1.0000 0.79100  0.71000  0.66100  Biso   1.000  H
  Cu1      1.0000 0.41725  0.64973  0.34145  Biso   1.000  Cu
  Cu2      1.0000 0.41725  0.35027  0.84145  Biso   1.000  Cu
  Cu3      1.0000 0.91725  0.14973  0.34145  Biso   1.000  Cu
  Cu4      1.0000 0.91725  0.85027  0.84145  Biso   1.000  Cu
  Cu5      1.0000 0.73211  0.34930  0.37510  Biso   1.000  Cu
  Cu6      1.0000 0.73211  0.65070  0.87510  Biso   1.000  Cu
  Cu7      1.0000 0.23211  0.84930  0.37510  Biso   1.000  Cu
  Cu8      1.0000 0.23211  0.15070  0.87510  Biso   1.000  Cu
  P1       1.0000 0.19745  0.59168  0.26371  Biso   1.000  P
  P2       1.0000 0.19745  0.40832  0.76371  Biso   1.000  P
  P3       1.0000 0.69745  0.09168  0.26371  Biso   1.000  P
  P4       1.0000 0.69745  0.90832  0.76371  Biso   1.000  P
  C1       1.0000 0.94760  0.42470  0.42367  Biso   1.000  C
  C2       1.0000 0.94760  0.57530  0.92367  Biso   1.000  C
  C3       1.0000 0.44760  0.92470  0.42367  Biso   1.000  C
  C4       1.0000 0.44760  0.07530  0.92367  Biso   1.000  C
  P5       1.0000 0.37865  0.87527  0.23116  Biso   1.000  P
  P6       1.0000 0.37865  0.12473  0.73116  Biso   1.000  P
  P7       1.0000 0.87865  0.37527  0.23116  Biso   1.000  P
  P8       1.0000 0.87865  0.62473  0.73116  Biso   1.000  P
  O1       1.0000 0.59138  0.37421  0.33807  Biso   1.000  O
  O2       1.0000 0.59138  0.62579  0.83807  Biso   1.000  O
  O3       1.0000 0.09138  0.87421  0.33807  Biso   1.000  O
  O4       1.0000 0.09138  0.12579  0.83807  Biso   1.000  O
  N1       1.0000 0.56585  0.67099  0.37963  Biso   1.000  N
  N2       1.0000 0.56585  0.32901  0.87963  Biso   1.000  N
  N3       1.0000 0.06585  0.17099  0.37963  Biso   1.000  N
  N4       1.0000 0.06585  0.82901  0.87963  Biso   1.000  N
  O5       1.0000 0.26372  0.64888  0.32777  Biso   1.000  O
  O6       1.0000 0.26372  0.35112  0.82777  Biso   1.000  O
  O7       1.0000 0.76372  0.14888  0.32777  Biso   1.000  O
  O8       1.0000 0.76372  0.85112  0.82777  Biso   1.000  O
  O9       1.0000 0.29492  0.92012  0.28627  Biso   1.000  O
  O10      1.0000 0.29492  0.07988  0.78627  Biso   1.000  O
  O11      1.0000 0.79492  0.42012  0.28627  Biso   1.000  O
  O12      1.0000 0.79492  0.57988  0.78627  Biso   1.000  O
  O13      1.0000 0.43640  0.76745  0.26306  Biso   1.000  O
  O14      1.0000 0.43640  0.23255  0.76306  Biso   1.000  O
  O15      1.0000 0.93640  0.26745  0.26306  Biso   1.000  O
  O16      1.0000 0.93640  0.73255  0.76306  Biso   1.000  O
  O17      1.0000 0.45197  0.97466  0.20924  Biso   1.000  O
  O18      1.0000 0.45197  0.02534  0.70924  Biso   1.000  O
  O19      1.0000 0.95197  0.47466  0.20924  Biso   1.000  O
  O20      1.0000 0.95197  0.52534  0.70924  Biso   1.000  O
  O21      1.0000 0.44283  0.48590  0.27376  Biso   1.000  O
  O22      1.0000 0.44283  0.51410  0.77376  Biso   1.000  O
  O23      1.0000 0.94283  0.98590  0.27376  Biso   1.000  O
  O24      1.0000 0.94283  0.01410  0.77376  Biso   1.000  O
  C5       1.0000 0.58820  0.61980  0.44855  Biso   1.000  C
  C6       1.0000 0.58820  0.38020  0.94855  Biso   1.000  C
  C7       1.0000 0.08820  0.11980  0.44855  Biso   1.000  C
  C8       1.0000 0.08820  0.88020  0.94855  Biso   1.000  C
  O25      1.0000 0.32051  0.83810  0.15378  Biso   1.000  O
  O26      1.0000 0.32051  0.16190  0.65378  Biso   1.000  O
  O27      1.0000 0.82051  0.33810  0.15378  Biso   1.000  O
  O28      1.0000 0.82051  0.66190  0.65378  Biso   1.000  O
  O29      1.0000 0.18099  0.67251  0.19475  Biso   1.000  O
  O30      1.0000 0.18099  0.32749  0.69475  Biso   1.000  O
  O31      1.0000 0.68099  0.17251  0.19475  Biso   1.000  O
  O32      1.0000 0.68099  0.82749  0.69475  Biso   1.000  O
  N5       1.0000 0.40945  0.56383  0.44260  Biso   1.000  N
  N6       1.0000 0.40945  0.43617  0.94260  Biso   1.000  N
  N7       1.0000 0.90945  0.06383  0.44260  Biso   1.000  N
  N8       1.0000 0.90945  0.93617  0.94260  Biso   1.000  N
  N9       1.0000 0.67722  0.28539  0.47370  Biso   1.000  N
  N10      1.0000 0.67722  0.71461  0.97370  Biso   1.000  N
  N11      1.0000 0.17722  0.78539  0.47370  Biso   1.000  N
  N12      1.0000 0.17722  0.21461  0.97370  Biso   1.000  N
  N13      1.0000 0.85755  0.37468  0.44378  Biso   1.000  N
  N14      1.0000 0.85755  0.62532  0.94378  Biso   1.000  N
  N15      1.0000 0.35755  0.87468  0.44378  Biso   1.000  N
  N16      1.0000 0.35755  0.12532  0.94378  Biso   1.000  N
  O33      1.0000 0.24997  0.47195  0.23787  Biso   1.000  O
  O34      1.0000 0.24997  0.52805  0.73787  Biso   1.000  O
  O35      1.0000 0.74997  0.97195  0.23787  Biso   1.000  O
  O36      1.0000 0.74997  0.02805  0.73787  Biso   1.000  O
  C9       1.0000 0.92750  0.34580  0.56995  Biso   1.000  C
  C10      1.0000 0.92750  0.65420  0.06995  Biso   1.000  C
  C11      1.0000 0.42750  0.84580  0.56995  Biso   1.000  C
  C12      1.0000 0.42750  0.15420  0.06995  Biso   1.000  C
  O37      1.0000 0.09267  0.55490  0.29715  Biso   1.000  O
  O38      1.0000 0.09267  0.44510  0.79715  Biso   1.000  O
  O39      1.0000 0.59267  0.05490  0.29715  Biso   1.000  O
  O40      1.0000 0.59267  0.94510  0.79715  Biso   1.000  O
  C13      1.0000 0.03120  0.43410  0.47450  Biso   1.000  C
  C14      1.0000 0.03120  0.56590  0.97450  Biso   1.000  C
  C15      1.0000 0.53120  0.93410  0.47450  Biso   1.000  C
  C16      1.0000 0.53120  0.06590  0.97450  Biso   1.000  C
  C17      1.0000 0.58170  0.24170  0.48267  Biso   1.000  C
  C18      1.0000 0.58170  0.75830  0.98267  Biso   1.000  C
  C19      1.0000 0.08170  0.74170  0.48267  Biso   1.000  C
  C20      1.0000 0.08170  0.25830  0.98267  Biso   1.000  C
  C21      1.0000 0.84740  0.33600  0.51663  Biso   1.000  C
  C22      1.0000 0.84740  0.66400  0.01663  Biso   1.000  C
  C23      1.0000 0.34740  0.83600  0.51663  Biso   1.000  C
  C24      1.0000 0.34740  0.16400  0.01663  Biso   1.000  C
  C25      1.0000 0.74160  0.73420  0.37080  Biso   1.000  C
  C26      1.0000 0.74160  0.26580  0.87080  Biso   1.000  C
  C27      1.0000 0.24160  0.23420  0.37080  Biso   1.000  C
  C28      1.0000 0.24160  0.76580  0.87080  Biso   1.000  C
  C29      1.0000 0.68750  0.62540  0.48040  Biso   1.000  C
  C30      1.0000 0.68750  0.37460  0.98040  Biso   1.000  C
  C31      1.0000 0.18750  0.12540  0.48040  Biso   1.000  C
  C32      1.0000 0.18750  0.87460  0.98040  Biso   1.000  C
  C33      1.0000 0.32520  0.51150  0.47021  Biso   1.000  C
  C34      1.0000 0.32520  0.48850  0.97021  Biso   1.000  C
  C35      1.0000 0.82520  0.01150  0.47021  Biso   1.000  C
  C36      1.0000 0.82520  0.98850  0.97021  Biso   1.000  C
  C37      1.0000 0.74440  0.28680  0.53380  Biso   1.000  C
  C38      1.0000 0.74440  0.71320  0.03380  Biso   1.000  C
  C39      1.0000 0.24440  0.78680  0.53380  Biso   1.000  C
  C40      1.0000 0.24440  0.21320  0.03380  Biso   1.000  C
  C41      1.0000 0.02090  0.39440  0.54869  Biso   1.000  C
  C42      1.0000 0.02090  0.60560  0.04869  Biso   1.000  C
  C43      1.0000 0.52090  0.89440  0.54869  Biso   1.000  C
  C44      1.0000 0.52090  0.10560  0.04869  Biso   1.000  C
  C45      1.0000 0.64080  0.72630  0.34260  Biso   1.000  C
  C46      1.0000 0.64080  0.27370  0.84260  Biso   1.000  C
  C47      1.0000 0.14080  0.22630  0.34260  Biso   1.000  C
  C48      1.0000 0.14080  0.77370  0.84260  Biso   1.000  C
  C49      1.0000 0.49920  0.56030  0.48474  Biso   1.000  C
  C50      1.0000 0.49920  0.43970  0.98474  Biso   1.000  C
  C51      1.0000 0.99920  0.06030  0.48474  Biso   1.000  C
  C52      1.0000 0.99920  0.93970  0.98474  Biso   1.000  C
  C53      1.0000 0.50420  0.50570  0.55508  Biso   1.000  C
  C54      1.0000 0.50420  0.49430  0.05508  Biso   1.000  C
  C55      1.0000 0.00420  0.00570  0.55508  Biso   1.000  C
  C56      1.0000 0.00420  0.99430  0.05508  Biso   1.000  C
  P9       1.0000 0.54205  0.41810  0.26461  Biso   1.000  P
  P10      1.0000 0.54205  0.58190  0.76461  Biso   1.000  P
  P11      1.0000 0.04205  0.91810  0.26461  Biso   1.000  P
  P12      1.0000 0.04205  0.08190  0.76461  Biso   1.000  P
  O41      1.0000 0.62165  0.50430  0.22380  Biso   1.000  O
  O42      1.0000 0.62165  0.49570  0.72380  Biso   1.000  O
  O43      1.0000 0.12165  0.00430  0.22380  Biso   1.000  O
  O44      1.0000 0.12165  0.99570  0.72380  Biso   1.000  O
  O45      1.0000 0.51968  0.31390  0.20692  Biso   1.000  O
  O46      1.0000 0.51968  0.68610  0.70692  Biso   1.000  O
  O47      1.0000 0.01968  0.81390  0.20692  Biso   1.000  O
  O48      1.0000 0.01968  0.18610  0.70692  Biso   1.000  O
  C57      1.0000 0.71670  0.24300  0.60516  Biso   1.000  C
  C58      1.0000 0.71670  0.75700  0.10516  Biso   1.000  C
  C59      1.0000 0.21670  0.74300  0.60516  Biso   1.000  C
  C60      1.0000 0.21670  0.25700  0.10516  Biso   1.000  C
  C61      1.0000 0.54890  0.19840  0.55286  Biso   1.000  C
  C62      1.0000 0.54890  0.80160  0.05286  Biso   1.000  C
  C63      1.0000 0.04890  0.69840  0.55286  Biso   1.000  C
  C64      1.0000 0.04890  0.30160  0.05286  Biso   1.000  C
  C65      1.0000 0.76400  0.68250  0.44090  Biso   1.000  C
  C66      1.0000 0.76400  0.31750  0.94090  Biso   1.000  C
  C67      1.0000 0.26400  0.18250  0.44090  Biso   1.000  C
  C68      1.0000 0.26400  0.81750  0.94090  Biso   1.000  C
  C69      1.0000 0.41560  0.45150  0.58379  Biso   1.000  C
  C70      1.0000 0.41560  0.54850  0.08379  Biso   1.000  C
  C71      1.0000 0.91560  0.95150  0.58379  Biso   1.000  C
  C72      1.0000 0.91560  0.04850  0.08379  Biso   1.000  C
  C73      1.0000 0.32650  0.45510  0.54178  Biso   1.000  C
  C74      1.0000 0.32650  0.54490  0.04178  Biso   1.000  C
  C75      1.0000 0.82650  0.95510  0.54178  Biso   1.000  C
  C76      1.0000 0.82650  0.04490  0.04178  Biso   1.000  C
  C77      1.0000 0.61820  0.19900  0.61370  Biso   1.000  C
  C78      1.0000 0.61820  0.80100  0.11370  Biso   1.000  C
  C79      1.0000 0.11820  0.69900  0.61370  Biso   1.000  C
  C80      1.0000 0.11820  0.30100  0.11370  Biso   1.000  C
  H21      1.0000 0.54300  0.23800  0.43430  Biso   1.000  H
  H22      1.0000 0.54300  0.76200  0.93430  Biso   1.000  H
  H23      1.0000 0.04300  0.73800  0.43430  Biso   1.000  H
  H24      1.0000 0.04300  0.26200  0.93430  Biso   1.000  H
  H25      1.0000 0.62800  0.75400  0.31000  Biso   1.000  H
  H26      1.0000 0.62800  0.24600  0.81000  Biso   1.000  H
  H27      1.0000 0.12800  0.25400  0.31000  Biso   1.000  H
  H28      1.0000 0.12800  0.74600  0.81000  Biso   1.000  H
  H29      1.0000 0.95700  0.45200  0.37610  Biso   1.000  H
  H30      1.0000 0.95700  0.54800  0.87610  Biso   1.000  H
  H31      1.0000 0.45700  0.95200  0.37610  Biso   1.000  H
  H32      1.0000 0.45700  0.04800  0.87610  Biso   1.000  H
  H33      1.0000 0.76700  0.25300  0.64200  Biso   1.000  H
  H34      1.0000 0.76700  0.74700  0.14200  Biso   1.000  H
  H35      1.0000 0.26700  0.75300  0.64200  Biso   1.000  H
  H36      1.0000 0.26700  0.24700  0.14200  Biso   1.000  H
  H37      1.0000 0.09600  0.47200  0.45730  Biso   1.000  H
  H38      1.0000 0.09600  0.52800  0.95730  Biso   1.000  H
  H39      1.0000 0.59600  0.97200  0.45730  Biso   1.000  H
  H40      1.0000 0.59600  0.02800  0.95730  Biso   1.000  H
  H41      1.0000 0.26400  0.51700  0.44300  Biso   1.000  H
  H42      1.0000 0.26400  0.48300  0.94300  Biso   1.000  H
  H43      1.0000 0.76400  0.01700  0.44300  Biso   1.000  H
  H44      1.0000 0.76400  0.98300  0.94300  Biso   1.000  H
  H45      1.0000 0.60200  0.17900  0.64600  Biso   1.000  H
  H46      1.0000 0.60200  0.82100  0.14600  Biso   1.000  H
  H47      1.0000 0.10200  0.67900  0.64600  Biso   1.000  H
  H48      1.0000 0.10200  0.32100  0.14600  Biso   1.000  H
  H49      1.0000 0.91500  0.32600  0.61830  Biso   1.000  H
  H50      1.0000 0.91500  0.67400  0.11830  Biso   1.000  H
  H51      1.0000 0.41500  0.82600  0.61830  Biso   1.000  H
  H52      1.0000 0.41500  0.17400  0.11830  Biso   1.000  H
  H53      1.0000 0.49400  0.16700  0.55900  Biso   1.000  H
  H54      1.0000 0.49400  0.83300  0.05900  Biso   1.000  H
  H55      1.0000 0.99400  0.66700  0.55900  Biso   1.000  H
  H56      1.0000 0.99400  0.33300  0.05900  Biso   1.000  H
  H57      1.0000 0.78300  0.75400  0.34100  Biso   1.000  H
  H58      1.0000 0.78300  0.24600  0.84100  Biso   1.000  H
  H59      1.0000 0.28300  0.25400  0.34100  Biso   1.000  H
  H60      1.0000 0.28300  0.74600  0.84100  Biso   1.000  H
  H61      1.0000 0.08100  0.40400  0.58190  Biso   1.000  H
  H62      1.0000 0.08100  0.59600  0.08190  Biso   1.000  H
  H63      1.0000 0.58100  0.90400  0.58190  Biso   1.000  H
  H64      1.0000 0.58100  0.09600  0.08190  Biso   1.000  H
  H65      1.0000 0.56200  0.49200  0.58900  Biso   1.000  H
  H66      1.0000 0.56200  0.50800  0.08900  Biso   1.000  H
  H67      1.0000 0.06200  0.99200  0.58900  Biso   1.000  H
  H68      1.0000 0.06200  0.00800  0.08900  Biso   1.000  H
  H69      1.0000 0.27300  0.41300  0.54900  Biso   1.000  H
  H70      1.0000 0.27300  0.58700  0.04900  Biso   1.000  H
  H71      1.0000 0.77300  0.91300  0.54900  Biso   1.000  H
  H72      1.0000 0.77300  0.08700  0.04900  Biso   1.000  H
  H73      1.0000 0.82300  0.69100  0.46600  Biso   1.000  H
  H74      1.0000 0.82300  0.30900  0.96600  Biso   1.000  H
  H75      1.0000 0.32300  0.19100  0.46600  Biso   1.000  H
  H76      1.0000 0.32300  0.80900  0.96600  Biso   1.000  H
  H77      1.0000 0.69700  0.60300  0.52900  Biso   1.000  H
  H78      1.0000 0.69700  0.39700  0.02900  Biso   1.000  H
  H79      1.0000 0.19700  0.10300  0.52900  Biso   1.000  H
  H80      1.0000 0.19700  0.89700  0.02900  Biso   1.000  H
  H81      1.0000 0.41500  0.41000  0.62700  Biso   1.000  H
  H82      1.0000 0.41500  0.59000  0.12700  Biso   1.000  H
  H83      1.0000 0.91500  0.91000  0.62700  Biso   1.000  H
  H84      1.0000 0.91500  0.09000  0.12700  Biso   1.000  H
