data_image0
_cell_length_a       41.445
_cell_length_b       10.602
_cell_length_c       15.442
_cell_angle_alpha    90
_cell_angle_beta     111.139
_cell_angle_gamma    90

_symmetry_space_group_name_H-M    "P 1"
_symmetry_int_tables_number       1

loop_
  _symmetry_equiv_pos_as_xyz
  'x, y, z'

loop_
  _atom_site_label
  _atom_site_occupancy
  _atom_site_fract_x
  _atom_site_fract_y
  _atom_site_fract_z
  _atom_site_thermal_displace_type
  _atom_site_B_iso_or_equiv
  _atom_site_type_symbol
  Cu1      1.0000 0.92227  0.13510  0.40796  Biso   1.000  Cu
  Cu2      1.0000 0.42227  0.63510  0.40796  Biso   1.000  Cu
  Cu3      1.0000 0.07773  0.13510  0.09204  Biso   1.000  Cu
  Cu4      1.0000 0.57773  0.63510  0.09204  Biso   1.000  Cu
  Cu5      1.0000 0.07773  0.86490  0.59204  Biso   1.000  Cu
  Cu6      1.0000 0.57773  0.36490  0.59204  Biso   1.000  Cu
  Cu7      1.0000 0.92227  0.86490  0.90796  Biso   1.000  Cu
  Cu8      1.0000 0.42227  0.36490  0.90796  Biso   1.000  Cu
  Cu9      1.0000 0.84599  0.08226  0.16814  Biso   1.000  Cu
  Cu10     1.0000 0.34599  0.58226  0.16814  Biso   1.000  Cu
  Cu11     1.0000 0.15401  0.08226  0.33186  Biso   1.000  Cu
  Cu12     1.0000 0.65401  0.58226  0.33186  Biso   1.000  Cu
  Cu13     1.0000 0.15401  0.91774  0.83186  Biso   1.000  Cu
  Cu14     1.0000 0.65401  0.41774  0.83186  Biso   1.000  Cu
  Cu15     1.0000 0.84599  0.91774  0.66814  Biso   1.000  Cu
  Cu16     1.0000 0.34599  0.41774  0.66814  Biso   1.000  Cu
  Cl1      1.0000 0.79867  0.25670  0.31200  Biso   1.000  Cl
  Cl2      1.0000 0.29867  0.75670  0.31200  Biso   1.000  Cl
  Cl3      1.0000 0.20133  0.25670  0.18800  Biso   1.000  Cl
  Cl4      1.0000 0.70133  0.75670  0.18800  Biso   1.000  Cl
  Cl5      1.0000 0.20133  0.74330  0.68800  Biso   1.000  Cl
  Cl6      1.0000 0.70133  0.24330  0.68800  Biso   1.000  Cl
  Cl7      1.0000 0.79867  0.74330  0.81200  Biso   1.000  Cl
  Cl8      1.0000 0.29867  0.24330  0.81200  Biso   1.000  Cl
  O1       1.0000 0.79750  0.15040  0.25600  Biso   1.000  O
  O2       1.0000 0.29750  0.65040  0.25600  Biso   1.000  O
  O3       1.0000 0.20250  0.15040  0.24400  Biso   1.000  O
  O4       1.0000 0.70250  0.65040  0.24400  Biso   1.000  O
  O5       1.0000 0.20250  0.84960  0.74400  Biso   1.000  O
  O6       1.0000 0.70250  0.34960  0.74400  Biso   1.000  O
  O7       1.0000 0.79750  0.84960  0.75600  Biso   1.000  O
  O8       1.0000 0.29750  0.34960  0.75600  Biso   1.000  O
  O9       1.0000 0.81810  0.23370  0.40830  Biso   1.000  O
  O10      1.0000 0.31810  0.73370  0.40830  Biso   1.000  O
  O11      1.0000 0.18190  0.23370  0.09170  Biso   1.000  O
  O12      1.0000 0.68190  0.73370  0.09170  Biso   1.000  O
  O13      1.0000 0.18190  0.76630  0.59170  Biso   1.000  O
  O14      1.0000 0.68190  0.26630  0.59170  Biso   1.000  O
  O15      1.0000 0.81810  0.76630  0.90830  Biso   1.000  O
  O16      1.0000 0.31810  0.26630  0.90830  Biso   1.000  O
  O17      1.0000 0.81820  0.35470  0.28190  Biso   1.000  O
  O18      1.0000 0.31820  0.85470  0.28190  Biso   1.000  O
  O19      1.0000 0.18180  0.35470  0.21810  Biso   1.000  O
  O20      1.0000 0.68180  0.85470  0.21810  Biso   1.000  O
  O21      1.0000 0.18180  0.64530  0.71810  Biso   1.000  O
  O22      1.0000 0.68180  0.14530  0.71810  Biso   1.000  O
  O23      1.0000 0.81820  0.64530  0.78190  Biso   1.000  O
  O24      1.0000 0.31820  0.14530  0.78190  Biso   1.000  O
  O25      1.0000 0.76540  0.30100  0.30130  Biso   1.000  O
  O26      1.0000 0.26540  0.80100  0.30130  Biso   1.000  O
  O27      1.0000 0.23460  0.30100  0.19870  Biso   1.000  O
  O28      1.0000 0.73460  0.80100  0.19870  Biso   1.000  O
  O29      1.0000 0.23460  0.69900  0.69870  Biso   1.000  O
  O30      1.0000 0.73460  0.19900  0.69870  Biso   1.000  O
  O31      1.0000 0.76540  0.69900  0.80130  Biso   1.000  O
  O32      1.0000 0.26540  0.19900  0.80130  Biso   1.000  O
  O33      1.0000 0.76680  0.18240  0.27210  Biso   1.000  O
  O34      1.0000 0.26680  0.68240  0.27210  Biso   1.000  O
  O35      1.0000 0.23320  0.18240  0.22790  Biso   1.000  O
  O36      1.0000 0.73320  0.68240  0.22790  Biso   1.000  O
  O37      1.0000 0.23320  0.81760  0.72790  Biso   1.000  O
  O38      1.0000 0.73320  0.31760  0.72790  Biso   1.000  O
  O39      1.0000 0.76680  0.81760  0.77210  Biso   1.000  O
  O40      1.0000 0.26680  0.31760  0.77210  Biso   1.000  O
  O41      1.0000 0.79800  0.36510  0.25630  Biso   1.000  O
  O42      1.0000 0.29800  0.86510  0.25630  Biso   1.000  O
  O43      1.0000 0.20200  0.36510  0.24370  Biso   1.000  O
  O44      1.0000 0.70200  0.86510  0.24370  Biso   1.000  O
  O45      1.0000 0.20200  0.63490  0.74370  Biso   1.000  O
  O46      1.0000 0.70200  0.13490  0.74370  Biso   1.000  O
  O47      1.0000 0.79800  0.63490  0.75630  Biso   1.000  O
  O48      1.0000 0.29800  0.13490  0.75630  Biso   1.000  O
  O49      1.0000 0.80650  0.28650  0.40720  Biso   1.000  O
  O50      1.0000 0.30650  0.78650  0.40720  Biso   1.000  O
  O51      1.0000 0.19350  0.28650  0.09280  Biso   1.000  O
  O52      1.0000 0.69350  0.78650  0.09280  Biso   1.000  O
  O53      1.0000 0.19350  0.71350  0.59280  Biso   1.000  O
  O54      1.0000 0.69350  0.21350  0.59280  Biso   1.000  O
  O55      1.0000 0.80650  0.71350  0.90720  Biso   1.000  O
  O56      1.0000 0.30650  0.21350  0.90720  Biso   1.000  O
  O57      1.0000 0.82550  0.16990  0.30470  Biso   1.000  O
  O58      1.0000 0.32550  0.66990  0.30470  Biso   1.000  O
  O59      1.0000 0.17450  0.16990  0.19530  Biso   1.000  O
  O60      1.0000 0.67450  0.66990  0.19530  Biso   1.000  O
  O61      1.0000 0.17450  0.83010  0.69530  Biso   1.000  O
  O62      1.0000 0.67450  0.33010  0.69530  Biso   1.000  O
  O63      1.0000 0.82550  0.83010  0.80470  Biso   1.000  O
  O64      1.0000 0.32550  0.33010  0.80470  Biso   1.000  O
  O65      1.0000 0.91070  0.23950  0.67120  Biso   1.000  O
  O66      1.0000 0.41070  0.73950  0.67120  Biso   1.000  O
  O67      1.0000 0.08930  0.23950  0.82880  Biso   1.000  O
  O68      1.0000 0.58930  0.73950  0.82880  Biso   1.000  O
  O69      1.0000 0.08930  0.76050  0.32880  Biso   1.000  O
  O70      1.0000 0.58930  0.26050  0.32880  Biso   1.000  O
  O71      1.0000 0.91070  0.76050  0.17120  Biso   1.000  O
  O72      1.0000 0.41070  0.26050  0.17120  Biso   1.000  O
  O73      1.0000 0.93120  0.34460  0.79620  Biso   1.000  O
  O74      1.0000 0.43120  0.84460  0.79620  Biso   1.000  O
  O75      1.0000 0.06880  0.34460  0.70380  Biso   1.000  O
  O76      1.0000 0.56880  0.84460  0.70380  Biso   1.000  O
  O77      1.0000 0.06880  0.65540  0.20380  Biso   1.000  O
  O78      1.0000 0.56880  0.15540  0.20380  Biso   1.000  O
  O79      1.0000 0.93120  0.65540  0.29620  Biso   1.000  O
  O80      1.0000 0.43120  0.15540  0.29620  Biso   1.000  O
  O81      1.0000 0.94620  0.37290  0.66770  Biso   1.000  O
  O82      1.0000 0.44620  0.87290  0.66770  Biso   1.000  O
  O83      1.0000 0.05380  0.37290  0.83230  Biso   1.000  O
  O84      1.0000 0.55380  0.87290  0.83230  Biso   1.000  O
  O85      1.0000 0.05380  0.62710  0.33230  Biso   1.000  O
  O86      1.0000 0.55380  0.12710  0.33230  Biso   1.000  O
  O87      1.0000 0.94620  0.62710  0.16770  Biso   1.000  O
  O88      1.0000 0.44620  0.12710  0.16770  Biso   1.000  O
  O89      1.0000 0.89610  0.44620  0.67430  Biso   1.000  O
  O90      1.0000 0.39610  0.94620  0.67430  Biso   1.000  O
  O91      1.0000 0.10390  0.44620  0.82570  Biso   1.000  O
  O92      1.0000 0.60390  0.94620  0.82570  Biso   1.000  O
  O93      1.0000 0.10390  0.55380  0.32570  Biso   1.000  O
  O94      1.0000 0.60390  0.05380  0.32570  Biso   1.000  O
  O95      1.0000 0.89610  0.55380  0.17430  Biso   1.000  O
  O96      1.0000 0.39610  0.05380  0.17430  Biso   1.000  O
  Cl9      1.0000 0.92068  0.35840  0.70320  Biso   1.000  Cl
  Cl10     1.0000 0.42068  0.85840  0.70320  Biso   1.000  Cl
  Cl11     1.0000 0.07932  0.35840  0.79680  Biso   1.000  Cl
  Cl12     1.0000 0.57932  0.85840  0.79680  Biso   1.000  Cl
  Cl13     1.0000 0.07932  0.64160  0.29680  Biso   1.000  Cl
  Cl14     1.0000 0.57932  0.14160  0.29680  Biso   1.000  Cl
  Cl15     1.0000 0.92068  0.64160  0.20320  Biso   1.000  Cl
  Cl16     1.0000 0.42068  0.14160  0.20320  Biso   1.000  Cl
  N1       1.0000 0.89040  0.15770  0.24910  Biso   1.000  N
  N2       1.0000 0.39040  0.65770  0.24910  Biso   1.000  N
  N3       1.0000 0.10960  0.15770  0.25090  Biso   1.000  N
  N4       1.0000 0.60960  0.65770  0.25090  Biso   1.000  N
  N5       1.0000 0.10960  0.84230  0.75090  Biso   1.000  N
  N6       1.0000 0.60960  0.34230  0.75090  Biso   1.000  N
  N7       1.0000 0.89040  0.84230  0.74910  Biso   1.000  N
  N8       1.0000 0.39040  0.34230  0.74910  Biso   1.000  N
  N9       1.0000 0.92690  0.24540  0.17810  Biso   1.000  N
  N10      1.0000 0.42690  0.74540  0.17810  Biso   1.000  N
  N11      1.0000 0.07310  0.24540  0.32190  Biso   1.000  N
  N12      1.0000 0.57310  0.74540  0.32190  Biso   1.000  N
  N13      1.0000 0.07310  0.75460  0.82190  Biso   1.000  N
  N14      1.0000 0.57310  0.25460  0.82190  Biso   1.000  N
  N15      1.0000 0.92690  0.75460  0.67810  Biso   1.000  N
  N16      1.0000 0.42690  0.25460  0.67810  Biso   1.000  N
  N17      1.0000 0.90830  0.20110  0.21040  Biso   1.000  N
  N18      1.0000 0.40830  0.70110  0.21040  Biso   1.000  N
  N19      1.0000 0.09170  0.20110  0.28960  Biso   1.000  N
  N20      1.0000 0.59170  0.70110  0.28960  Biso   1.000  N
  N21      1.0000 0.09170  0.79890  0.78960  Biso   1.000  N
  N22      1.0000 0.59170  0.29890  0.78960  Biso   1.000  N
  N23      1.0000 0.90830  0.79890  0.71040  Biso   1.000  N
  N24      1.0000 0.40830  0.29890  0.71040  Biso   1.000  N
  N25      1.0000 0.96180  0.03770  0.38790  Biso   1.000  N
  N26      1.0000 0.46180  0.53770  0.38790  Biso   1.000  N
  N27      1.0000 0.03820  0.03770  0.11210  Biso   1.000  N
  N28      1.0000 0.53820  0.53770  0.11210  Biso   1.000  N
  N29      1.0000 0.03820  0.96230  0.61210  Biso   1.000  N
  N30      1.0000 0.53820  0.46230  0.61210  Biso   1.000  N
  N31      1.0000 0.96180  0.96230  0.88790  Biso   1.000  N
  N32      1.0000 0.46180  0.46230  0.88790  Biso   1.000  N
  C1       1.0000 0.96460  0.91410  0.37760  Biso   1.000  C
  C2       1.0000 0.46460  0.41410  0.37760  Biso   1.000  C
  C3       1.0000 0.03540  0.91410  0.12240  Biso   1.000  C
  C4       1.0000 0.53540  0.41410  0.12240  Biso   1.000  C
  C5       1.0000 0.03540  0.08590  0.62240  Biso   1.000  C
  C6       1.0000 0.53540  0.58590  0.62240  Biso   1.000  C
  C7       1.0000 0.96460  0.08590  0.87760  Biso   1.000  C
  C8       1.0000 0.46460  0.58590  0.87760  Biso   1.000  C
  H1       1.0000 0.94670  0.86170  0.37840  Biso   1.000  H
  H2       1.0000 0.44670  0.36170  0.37840  Biso   1.000  H
  H3       1.0000 0.05330  0.86170  0.12160  Biso   1.000  H
  H4       1.0000 0.55330  0.36170  0.12160  Biso   1.000  H
  H5       1.0000 0.05330  0.13830  0.62160  Biso   1.000  H
  H6       1.0000 0.55330  0.63830  0.62160  Biso   1.000  H
  H7       1.0000 0.94670  0.13830  0.87840  Biso   1.000  H
  H8       1.0000 0.44670  0.63830  0.87840  Biso   1.000  H
  C9       1.0000 0.99340  0.86000  0.36570  Biso   1.000  C
  C10      1.0000 0.49340  0.36000  0.36570  Biso   1.000  C
  C11      1.0000 0.00660  0.86000  0.13430  Biso   1.000  C
  C12      1.0000 0.50660  0.36000  0.13430  Biso   1.000  C
  C13      1.0000 0.00660  0.14000  0.63430  Biso   1.000  C
  C14      1.0000 0.50660  0.64000  0.63430  Biso   1.000  C
  C15      1.0000 0.99340  0.14000  0.86570  Biso   1.000  C
  C16      1.0000 0.49340  0.64000  0.86570  Biso   1.000  C
  H9       1.0000 0.99440  0.77350  0.35720  Biso   1.000  H
  H10      1.0000 0.49440  0.27350  0.35720  Biso   1.000  H
  H11      1.0000 0.00560  0.77350  0.14280  Biso   1.000  H
  H12      1.0000 0.50560  0.27350  0.14280  Biso   1.000  H
  H13      1.0000 0.00560  0.22650  0.64280  Biso   1.000  H
  H14      1.0000 0.50560  0.72650  0.64280  Biso   1.000  H
  H15      1.0000 0.99440  0.22650  0.85720  Biso   1.000  H
  H16      1.0000 0.49440  0.72650  0.85720  Biso   1.000  H
  C17      1.0000 0.02010  0.93670  0.36690  Biso   1.000  C
  C18      1.0000 0.52010  0.43670  0.36690  Biso   1.000  C
  C19      1.0000 0.97990  0.93670  0.13310  Biso   1.000  C
  C20      1.0000 0.47990  0.43670  0.13310  Biso   1.000  C
  C21      1.0000 0.97990  0.06330  0.63310  Biso   1.000  C
  C22      1.0000 0.47990  0.56330  0.63310  Biso   1.000  C
  C23      1.0000 0.02010  0.06330  0.86690  Biso   1.000  C
  C24      1.0000 0.52010  0.56330  0.86690  Biso   1.000  C
  H17      1.0000 0.03980  0.90180  0.36140  Biso   1.000  H
  H18      1.0000 0.53980  0.40180  0.36140  Biso   1.000  H
  H19      1.0000 0.96020  0.90180  0.13860  Biso   1.000  H
  H20      1.0000 0.46020  0.40180  0.13860  Biso   1.000  H
  H21      1.0000 0.96020  0.09820  0.63860  Biso   1.000  H
  H22      1.0000 0.46020  0.59820  0.63860  Biso   1.000  H
  H23      1.0000 0.03980  0.09820  0.86140  Biso   1.000  H
  H24      1.0000 0.53980  0.59820  0.86140  Biso   1.000  H
  C25      1.0000 0.01790  0.06440  0.37600  Biso   1.000  C
  C26      1.0000 0.51790  0.56440  0.37600  Biso   1.000  C
  C27      1.0000 0.98210  0.06440  0.12400  Biso   1.000  C
  C28      1.0000 0.48210  0.56440  0.12400  Biso   1.000  C
  C29      1.0000 0.98210  0.93560  0.62400  Biso   1.000  C
  C30      1.0000 0.48210  0.43560  0.62400  Biso   1.000  C
  C31      1.0000 0.01790  0.93560  0.87600  Biso   1.000  C
  C32      1.0000 0.51790  0.43560  0.87600  Biso   1.000  C
  H25      1.0000 0.03590  0.11720  0.37690  Biso   1.000  H
  H26      1.0000 0.53590  0.61720  0.37690  Biso   1.000  H
  H27      1.0000 0.96410  0.11720  0.12310  Biso   1.000  H
  H28      1.0000 0.46410  0.61720  0.12310  Biso   1.000  H
  H29      1.0000 0.96410  0.88280  0.62310  Biso   1.000  H
  H30      1.0000 0.46410  0.38280  0.62310  Biso   1.000  H
  H31      1.0000 0.03590  0.88280  0.87690  Biso   1.000  H
  H32      1.0000 0.53590  0.38280  0.87690  Biso   1.000  H
  C33      1.0000 0.98810  0.11280  0.38390  Biso   1.000  C
  C34      1.0000 0.48810  0.61280  0.38390  Biso   1.000  C
  C35      1.0000 0.01190  0.11280  0.11610  Biso   1.000  C
  C36      1.0000 0.51190  0.61280  0.11610  Biso   1.000  C
  C37      1.0000 0.01190  0.88720  0.61610  Biso   1.000  C
  C38      1.0000 0.51190  0.38720  0.61610  Biso   1.000  C
  C39      1.0000 0.98810  0.88720  0.88390  Biso   1.000  C
  C40      1.0000 0.48810  0.38720  0.88390  Biso   1.000  C
  C41      1.0000 0.98210  0.24980  0.39810  Biso   1.000  C
  C42      1.0000 0.48210  0.74980  0.39810  Biso   1.000  C
  C43      1.0000 0.01790  0.24980  0.10190  Biso   1.000  C
  C44      1.0000 0.51790  0.74980  0.10190  Biso   1.000  C
  C45      1.0000 0.01790  0.75020  0.60190  Biso   1.000  C
  C46      1.0000 0.51790  0.25020  0.60190  Biso   1.000  C
  C47      1.0000 0.98210  0.75020  0.89810  Biso   1.000  C
  C48      1.0000 0.48210  0.25020  0.89810  Biso   1.000  C
  C49      1.0000 0.00890  0.34710  0.39570  Biso   1.000  C
  C50      1.0000 0.50890  0.84710  0.39570  Biso   1.000  C
  C51      1.0000 0.99110  0.34710  0.10430  Biso   1.000  C
  C52      1.0000 0.49110  0.84710  0.10430  Biso   1.000  C
  C53      1.0000 0.99110  0.65290  0.60430  Biso   1.000  C
  C54      1.0000 0.49110  0.15290  0.60430  Biso   1.000  C
  C55      1.0000 0.00890  0.65290  0.89570  Biso   1.000  C
  C56      1.0000 0.50890  0.15290  0.89570  Biso   1.000  C
  H33      1.0000 0.99730  0.42110  0.36350  Biso   1.000  H
  H34      1.0000 0.49730  0.92110  0.36350  Biso   1.000  H
  H35      1.0000 0.00270  0.42110  0.13650  Biso   1.000  H
  H36      1.0000 0.50270  0.92110  0.13650  Biso   1.000  H
  H37      1.0000 0.00270  0.57890  0.63650  Biso   1.000  H
  H38      1.0000 0.50270  0.07890  0.63650  Biso   1.000  H
  H39      1.0000 0.99730  0.57890  0.86350  Biso   1.000  H
  H40      1.0000 0.49730  0.07890  0.86350  Biso   1.000  H
  H41      1.0000 0.02300  0.31220  0.36400  Biso   1.000  H
  H42      1.0000 0.52300  0.81220  0.36400  Biso   1.000  H
  H43      1.0000 0.97700  0.31220  0.13600  Biso   1.000  H
  H44      1.0000 0.47700  0.81220  0.13600  Biso   1.000  H
  H45      1.0000 0.97700  0.68780  0.63600  Biso   1.000  H
  H46      1.0000 0.47700  0.18780  0.63600  Biso   1.000  H
  H47      1.0000 0.02300  0.68780  0.86400  Biso   1.000  H
  H48      1.0000 0.52300  0.18780  0.86400  Biso   1.000  H
  H49      1.0000 0.02330  0.36910  0.45800  Biso   1.000  H
  H50      1.0000 0.52330  0.86910  0.45800  Biso   1.000  H
  H51      1.0000 0.97670  0.36910  0.04200  Biso   1.000  H
  H52      1.0000 0.47670  0.86910  0.04200  Biso   1.000  H
  H53      1.0000 0.97670  0.63090  0.54200  Biso   1.000  H
  H54      1.0000 0.47670  0.13090  0.54200  Biso   1.000  H
  H55      1.0000 0.02330  0.63090  0.95800  Biso   1.000  H
  H56      1.0000 0.52330  0.13090  0.95800  Biso   1.000  H
  N33      1.0000 0.95450  0.27550  0.41330  Biso   1.000  N
  N34      1.0000 0.45450  0.77550  0.41330  Biso   1.000  N
  N35      1.0000 0.04550  0.27550  0.08670  Biso   1.000  N
  N36      1.0000 0.54550  0.77550  0.08670  Biso   1.000  N
  N37      1.0000 0.04550  0.72450  0.58670  Biso   1.000  N
  N38      1.0000 0.54550  0.22450  0.58670  Biso   1.000  N
  N39      1.0000 0.95450  0.72450  0.91330  Biso   1.000  N
  N40      1.0000 0.45450  0.22450  0.91330  Biso   1.000  N
  C57      1.0000 0.94300  0.39820  0.43050  Biso   1.000  C
  C58      1.0000 0.44300  0.89820  0.43050  Biso   1.000  C
  C59      1.0000 0.05700  0.39820  0.06950  Biso   1.000  C
  C60      1.0000 0.55700  0.89820  0.06950  Biso   1.000  C
  C61      1.0000 0.05700  0.60180  0.56950  Biso   1.000  C
  C62      1.0000 0.55700  0.10180  0.56950  Biso   1.000  C
  C63      1.0000 0.94300  0.60180  0.93050  Biso   1.000  C
  C64      1.0000 0.44300  0.10180  0.93050  Biso   1.000  C
  H57      1.0000 0.94900  0.46130  0.39330  Biso   1.000  H
  H58      1.0000 0.44900  0.96130  0.39330  Biso   1.000  H
  H59      1.0000 0.05100  0.46130  0.10670  Biso   1.000  H
  H60      1.0000 0.55100  0.96130  0.10670  Biso   1.000  H
  H61      1.0000 0.05100  0.53870  0.60670  Biso   1.000  H
  H62      1.0000 0.55100  0.03870  0.60670  Biso   1.000  H
  H63      1.0000 0.94900  0.53870  0.89330  Biso   1.000  H
  H64      1.0000 0.44900  0.03870  0.89330  Biso   1.000  H
  H65      1.0000 0.95430  0.42040  0.49550  Biso   1.000  H
  H66      1.0000 0.45430  0.92040  0.49550  Biso   1.000  H
  H67      1.0000 0.04570  0.42040  0.00450  Biso   1.000  H
  H68      1.0000 0.54570  0.92040  0.00450  Biso   1.000  H
  H69      1.0000 0.04570  0.57960  0.50450  Biso   1.000  H
  H70      1.0000 0.54570  0.07960  0.50450  Biso   1.000  H
  H71      1.0000 0.95430  0.57960  0.99550  Biso   1.000  H
  H72      1.0000 0.45430  0.07960  0.99550  Biso   1.000  H
  C65      1.0000 0.90410  0.39440  0.40560  Biso   1.000  C
  C66      1.0000 0.40410  0.89440  0.40560  Biso   1.000  C
  C67      1.0000 0.09590  0.39440  0.09440  Biso   1.000  C
  C68      1.0000 0.59590  0.89440  0.09440  Biso   1.000  C
  C69      1.0000 0.09590  0.60560  0.59440  Biso   1.000  C
  C70      1.0000 0.59590  0.10560  0.59440  Biso   1.000  C
  C71      1.0000 0.90410  0.60560  0.90560  Biso   1.000  C
  C72      1.0000 0.40410  0.10560  0.90560  Biso   1.000  C
  H73      1.0000 0.89350  0.39110  0.33770  Biso   1.000  H
  H74      1.0000 0.39350  0.89110  0.33770  Biso   1.000  H
  H75      1.0000 0.10650  0.39110  0.16230  Biso   1.000  H
  H76      1.0000 0.60650  0.89110  0.16230  Biso   1.000  H
  H77      1.0000 0.10650  0.60890  0.66230  Biso   1.000  H
  H78      1.0000 0.60650  0.10890  0.66230  Biso   1.000  H
  H79      1.0000 0.89350  0.60890  0.83770  Biso   1.000  H
  H80      1.0000 0.39350  0.10890  0.83770  Biso   1.000  H
  C73      1.0000 0.89090  0.51260  0.43730  Biso   1.000  C
  C74      1.0000 0.39090  0.01260  0.43730  Biso   1.000  C
  C75      1.0000 0.10910  0.51260  0.06270  Biso   1.000  C
  C76      1.0000 0.60910  0.01260  0.06270  Biso   1.000  C
  C77      1.0000 0.10910  0.48740  0.56270  Biso   1.000  C
  C78      1.0000 0.60910  0.98740  0.56270  Biso   1.000  C
  C79      1.0000 0.89090  0.48740  0.93730  Biso   1.000  C
  C80      1.0000 0.39090  0.98740  0.93730  Biso   1.000  C
  H81      1.0000 0.89880  0.51390  0.50390  Biso   1.000  H
  H82      1.0000 0.39880  0.01390  0.50390  Biso   1.000  H
  H83      1.0000 0.10120  0.51390  0.99610  Biso   1.000  H
  H84      1.0000 0.60120  0.01390  0.99610  Biso   1.000  H
  H85      1.0000 0.10120  0.48610  0.49610  Biso   1.000  H
  H86      1.0000 0.60120  0.98610  0.49610  Biso   1.000  H
  H87      1.0000 0.89880  0.48610  0.00390  Biso   1.000  H
  H88      1.0000 0.39880  0.98610  0.00390  Biso   1.000  H
  H89      1.0000 0.86610  0.51300  0.41220  Biso   1.000  H
  H90      1.0000 0.36610  0.01300  0.41220  Biso   1.000  H
  H91      1.0000 0.13390  0.51300  0.08780  Biso   1.000  H
  H92      1.0000 0.63390  0.01300  0.08780  Biso   1.000  H
  H93      1.0000 0.13390  0.48700  0.58780  Biso   1.000  H
  H94      1.0000 0.63390  0.98700  0.58780  Biso   1.000  H
  H95      1.0000 0.86610  0.48700  0.91220  Biso   1.000  H
  H96      1.0000 0.36610  0.98700  0.91220  Biso   1.000  H
  H97      1.0000 0.89950  0.58570  0.41580  Biso   1.000  H
  H98      1.0000 0.39950  0.08570  0.41580  Biso   1.000  H
  H99      1.0000 0.10050  0.58570  0.08420  Biso   1.000  H
  H100     1.0000 0.60050  0.08570  0.08420  Biso   1.000  H
  H101     1.0000 0.10050  0.41430  0.58420  Biso   1.000  H
  H102     1.0000 0.60050  0.91430  0.58420  Biso   1.000  H
  H103     1.0000 0.89950  0.41430  0.91580  Biso   1.000  H
  H104     1.0000 0.39950  0.91430  0.91580  Biso   1.000  H
  N41      1.0000 0.89590  0.27310  0.44240  Biso   1.000  N
  N42      1.0000 0.39590  0.77310  0.44240  Biso   1.000  N
  N43      1.0000 0.10410  0.27310  0.05760  Biso   1.000  N
  N44      1.0000 0.60410  0.77310  0.05760  Biso   1.000  N
  N45      1.0000 0.10410  0.72690  0.55760  Biso   1.000  N
  N46      1.0000 0.60410  0.22690  0.55760  Biso   1.000  N
  N47      1.0000 0.89590  0.72690  0.94240  Biso   1.000  N
  N48      1.0000 0.39590  0.22690  0.94240  Biso   1.000  N
  H105     1.0000 0.87300  0.25760  0.41760  Biso   1.000  H
  H106     1.0000 0.37300  0.75760  0.41760  Biso   1.000  H
  H107     1.0000 0.12700  0.25760  0.08240  Biso   1.000  H
  H108     1.0000 0.62700  0.75760  0.08240  Biso   1.000  H
  H109     1.0000 0.12700  0.74240  0.58240  Biso   1.000  H
  H110     1.0000 0.62700  0.24240  0.58240  Biso   1.000  H
  H111     1.0000 0.87300  0.74240  0.91760  Biso   1.000  H
  H112     1.0000 0.37300  0.24240  0.91760  Biso   1.000  H
  H113     1.0000 0.90210  0.27740  0.50450  Biso   1.000  H
  H114     1.0000 0.40210  0.77740  0.50450  Biso   1.000  H
  H115     1.0000 0.09790  0.27740  0.99550  Biso   1.000  H
  H116     1.0000 0.59790  0.77740  0.99550  Biso   1.000  H
  H117     1.0000 0.09790  0.72260  0.49550  Biso   1.000  H
  H118     1.0000 0.59790  0.22260  0.49550  Biso   1.000  H
  H119     1.0000 0.90210  0.72260  0.00450  Biso   1.000  H
  H120     1.0000 0.40210  0.22260  0.00450  Biso   1.000  H
  N49      1.0000 0.82460  0.22690  0.07980  Biso   1.000  N
  N50      1.0000 0.32460  0.72690  0.07980  Biso   1.000  N
  N51      1.0000 0.17540  0.22690  0.42020  Biso   1.000  N
  N52      1.0000 0.67540  0.72690  0.42020  Biso   1.000  N
  N53      1.0000 0.17540  0.77310  0.92020  Biso   1.000  N
  N54      1.0000 0.67540  0.27310  0.92020  Biso   1.000  N
  N55      1.0000 0.82460  0.77310  0.57980  Biso   1.000  N
  N56      1.0000 0.32460  0.27310  0.57980  Biso   1.000  N
  C81      1.0000 0.83590  0.34590  0.08520  Biso   1.000  C
  C82      1.0000 0.33590  0.84590  0.08520  Biso   1.000  C
  C83      1.0000 0.16410  0.34590  0.41480  Biso   1.000  C
  C84      1.0000 0.66410  0.84590  0.41480  Biso   1.000  C
  C85      1.0000 0.16410  0.65410  0.91480  Biso   1.000  C
  C86      1.0000 0.66410  0.15410  0.91480  Biso   1.000  C
  C87      1.0000 0.83590  0.65410  0.58520  Biso   1.000  C
  C88      1.0000 0.33590  0.15410  0.58520  Biso   1.000  C
  H121     1.0000 0.85460  0.37140  0.13690  Biso   1.000  H
  H122     1.0000 0.35460  0.87140  0.13690  Biso   1.000  H
  H123     1.0000 0.14540  0.37140  0.36310  Biso   1.000  H
  H124     1.0000 0.64540  0.87140  0.36310  Biso   1.000  H
  H125     1.0000 0.14540  0.62860  0.86310  Biso   1.000  H
  H126     1.0000 0.64540  0.12860  0.86310  Biso   1.000  H
  H127     1.0000 0.85460  0.62860  0.63690  Biso   1.000  H
  H128     1.0000 0.35460  0.12860  0.63690  Biso   1.000  H
  C89      1.0000 0.81990  0.43300  0.01370  Biso   1.000  C
  C90      1.0000 0.31990  0.93300  0.01370  Biso   1.000  C
  C91      1.0000 0.18010  0.43300  0.48630  Biso   1.000  C
  C92      1.0000 0.68010  0.93300  0.48630  Biso   1.000  C
  C93      1.0000 0.18010  0.56700  0.98630  Biso   1.000  C
  C94      1.0000 0.68010  0.06700  0.98630  Biso   1.000  C
  C95      1.0000 0.81990  0.56700  0.51370  Biso   1.000  C
  C96      1.0000 0.31990  0.06700  0.51370  Biso   1.000  C
  H129     1.0000 0.82790  0.51570  0.01810  Biso   1.000  H
  H130     1.0000 0.32790  0.01570  0.01810  Biso   1.000  H
  H131     1.0000 0.17210  0.51570  0.48190  Biso   1.000  H
  H132     1.0000 0.67210  0.01570  0.48190  Biso   1.000  H
  H133     1.0000 0.17210  0.48430  0.98190  Biso   1.000  H
  H134     1.0000 0.67210  0.98430  0.98190  Biso   1.000  H
  H135     1.0000 0.82790  0.48430  0.51810  Biso   1.000  H
  H136     1.0000 0.32790  0.98430  0.51810  Biso   1.000  H
  C97      1.0000 0.79310  0.39510  0.93940  Biso   1.000  C
  C98      1.0000 0.29310  0.89510  0.93940  Biso   1.000  C
  C99      1.0000 0.20690  0.39510  0.56060  Biso   1.000  C
  C100     1.0000 0.70690  0.89510  0.56060  Biso   1.000  C
  C101     1.0000 0.20690  0.60490  0.06060  Biso   1.000  C
  C102     1.0000 0.70690  0.10490  0.06060  Biso   1.000  C
  C103     1.0000 0.79310  0.60490  0.43940  Biso   1.000  C
  C104     1.0000 0.29310  0.10490  0.43940  Biso   1.000  C
  H137     1.0000 0.78250  0.45130  0.89120  Biso   1.000  H
  H138     1.0000 0.28250  0.95130  0.89120  Biso   1.000  H
  H139     1.0000 0.21750  0.45130  0.60880  Biso   1.000  H
  H140     1.0000 0.71750  0.95130  0.60880  Biso   1.000  H
  H141     1.0000 0.21750  0.54870  0.10880  Biso   1.000  H
  H142     1.0000 0.71750  0.04870  0.10880  Biso   1.000  H
  H143     1.0000 0.78250  0.54870  0.39120  Biso   1.000  H
  H144     1.0000 0.28250  0.04870  0.39120  Biso   1.000  H
  C105     1.0000 0.78090  0.27120  0.93420  Biso   1.000  C
  C106     1.0000 0.28090  0.77120  0.93420  Biso   1.000  C
  C107     1.0000 0.21910  0.27120  0.56580  Biso   1.000  C
  C108     1.0000 0.71910  0.77120  0.56580  Biso   1.000  C
  C109     1.0000 0.21910  0.72880  0.06580  Biso   1.000  C
  C110     1.0000 0.71910  0.22880  0.06580  Biso   1.000  C
  C111     1.0000 0.78090  0.72880  0.43420  Biso   1.000  C
  C112     1.0000 0.28090  0.22880  0.43420  Biso   1.000  C
  H145     1.0000 0.76210  0.24480  0.88310  Biso   1.000  H
  H146     1.0000 0.26210  0.74480  0.88310  Biso   1.000  H
  H147     1.0000 0.23790  0.24480  0.61690  Biso   1.000  H
  H148     1.0000 0.73790  0.74480  0.61690  Biso   1.000  H
  H149     1.0000 0.23790  0.75520  0.11690  Biso   1.000  H
  H150     1.0000 0.73790  0.25520  0.11690  Biso   1.000  H
  H151     1.0000 0.76210  0.75520  0.38310  Biso   1.000  H
  H152     1.0000 0.26210  0.25520  0.38310  Biso   1.000  H
  C113     1.0000 0.79700  0.18940  0.00510  Biso   1.000  C
  C114     1.0000 0.29700  0.68940  0.00510  Biso   1.000  C
  C115     1.0000 0.20300  0.18940  0.49490  Biso   1.000  C
  C116     1.0000 0.70300  0.68940  0.49490  Biso   1.000  C
  C117     1.0000 0.20300  0.81060  0.99490  Biso   1.000  C
  C118     1.0000 0.70300  0.31060  0.99490  Biso   1.000  C
  C119     1.0000 0.79700  0.81060  0.50510  Biso   1.000  C
  C120     1.0000 0.29700  0.31060  0.50510  Biso   1.000  C
  C121     1.0000 0.78620  0.05680  0.00930  Biso   1.000  C
  C122     1.0000 0.28620  0.55680  0.00930  Biso   1.000  C
  C123     1.0000 0.21380  0.05680  0.49070  Biso   1.000  C
  C124     1.0000 0.71380  0.55680  0.49070  Biso   1.000  C
  C125     1.0000 0.21380  0.94320  0.99070  Biso   1.000  C
  C126     1.0000 0.71380  0.44320  0.99070  Biso   1.000  C
  C127     1.0000 0.78620  0.94320  0.50930  Biso   1.000  C
  C128     1.0000 0.28620  0.44320  0.50930  Biso   1.000  C
  C129     1.0000 0.75790  0.99950  0.92810  Biso   1.000  C
  C130     1.0000 0.25790  0.49950  0.92810  Biso   1.000  C
  C131     1.0000 0.24210  0.99950  0.57190  Biso   1.000  C
  C132     1.0000 0.74210  0.49950  0.57190  Biso   1.000  C
  C133     1.0000 0.24210  0.00050  0.07190  Biso   1.000  C
  C134     1.0000 0.74210  0.50050  0.07190  Biso   1.000  C
  C135     1.0000 0.75790  0.00050  0.42810  Biso   1.000  C
  C136     1.0000 0.25790  0.50050  0.42810  Biso   1.000  C
  H153     1.0000 0.76660  0.98150  0.87960  Biso   1.000  H
  H154     1.0000 0.26660  0.48150  0.87960  Biso   1.000  H
  H155     1.0000 0.23340  0.98150  0.62040  Biso   1.000  H
  H156     1.0000 0.73340  0.48150  0.62040  Biso   1.000  H
  H157     1.0000 0.23340  0.01850  0.12040  Biso   1.000  H
  H158     1.0000 0.73340  0.51850  0.12040  Biso   1.000  H
  H159     1.0000 0.76660  0.01850  0.37960  Biso   1.000  H
  H160     1.0000 0.26660  0.51850  0.37960  Biso   1.000  H
  H161     1.0000 0.73900  0.05760  0.90560  Biso   1.000  H
  H162     1.0000 0.23900  0.55760  0.90560  Biso   1.000  H
  H163     1.0000 0.26100  0.05760  0.59440  Biso   1.000  H
  H164     1.0000 0.76100  0.55760  0.59440  Biso   1.000  H
  H165     1.0000 0.26100  0.94240  0.09440  Biso   1.000  H
  H166     1.0000 0.76100  0.44240  0.09440  Biso   1.000  H
  H167     1.0000 0.73900  0.94240  0.40560  Biso   1.000  H
  H168     1.0000 0.23900  0.44240  0.40560  Biso   1.000  H
  H169     1.0000 0.75020  0.92280  0.94730  Biso   1.000  H
  H170     1.0000 0.25020  0.42280  0.94730  Biso   1.000  H
  H171     1.0000 0.24980  0.92280  0.55270  Biso   1.000  H
  H172     1.0000 0.74980  0.42280  0.55270  Biso   1.000  H
  H173     1.0000 0.24980  0.07720  0.05270  Biso   1.000  H
  H174     1.0000 0.74980  0.57720  0.05270  Biso   1.000  H
  H175     1.0000 0.75020  0.07720  0.44730  Biso   1.000  H
  H176     1.0000 0.25020  0.57720  0.44730  Biso   1.000  H
  N57      1.0000 0.80350  0.99990  0.08290  Biso   1.000  N
  N58      1.0000 0.30350  0.49990  0.08290  Biso   1.000  N
  N59      1.0000 0.19650  0.99990  0.41710  Biso   1.000  N
  N60      1.0000 0.69650  0.49990  0.41710  Biso   1.000  N
  N61      1.0000 0.19650  0.00010  0.91710  Biso   1.000  N
  N62      1.0000 0.69650  0.50010  0.91710  Biso   1.000  N
  N63      1.0000 0.80350  0.00010  0.58290  Biso   1.000  N
  N64      1.0000 0.30350  0.50010  0.58290  Biso   1.000  N
  C137     1.0000 0.79950  0.86780  0.10530  Biso   1.000  C
  C138     1.0000 0.29950  0.36780  0.10530  Biso   1.000  C
  C139     1.0000 0.20050  0.86780  0.39470  Biso   1.000  C
  C140     1.0000 0.70050  0.36780  0.39470  Biso   1.000  C
  C141     1.0000 0.20050  0.13220  0.89470  Biso   1.000  C
  C142     1.0000 0.70050  0.63220  0.89470  Biso   1.000  C
  C143     1.0000 0.79950  0.13220  0.60530  Biso   1.000  C
  C144     1.0000 0.29950  0.63220  0.60530  Biso   1.000  C
  H177     1.0000 0.80780  0.81230  0.06800  Biso   1.000  H
  H178     1.0000 0.30780  0.31230  0.06800  Biso   1.000  H
  H179     1.0000 0.19220  0.81230  0.43200  Biso   1.000  H
  H180     1.0000 0.69220  0.31230  0.43200  Biso   1.000  H
  H181     1.0000 0.19220  0.18770  0.93200  Biso   1.000  H
  H182     1.0000 0.69220  0.68770  0.93200  Biso   1.000  H
  H183     1.0000 0.80780  0.18770  0.56800  Biso   1.000  H
  H184     1.0000 0.30780  0.68770  0.56800  Biso   1.000  H
  H185     1.0000 0.77530  0.84920  0.09220  Biso   1.000  H
  H186     1.0000 0.27530  0.34920  0.09220  Biso   1.000  H
  H187     1.0000 0.22470  0.84920  0.40780  Biso   1.000  H
  H188     1.0000 0.72470  0.34920  0.40780  Biso   1.000  H
  H189     1.0000 0.22470  0.15080  0.90780  Biso   1.000  H
  H190     1.0000 0.72470  0.65080  0.90780  Biso   1.000  H
  H191     1.0000 0.77530  0.15080  0.59220  Biso   1.000  H
  H192     1.0000 0.27530  0.65080  0.59220  Biso   1.000  H
  C145     1.0000 0.82040  0.84760  0.20830  Biso   1.000  C
  C146     1.0000 0.32040  0.34760  0.20830  Biso   1.000  C
  C147     1.0000 0.17960  0.84760  0.29170  Biso   1.000  C
  C148     1.0000 0.67960  0.34760  0.29170  Biso   1.000  C
  C149     1.0000 0.17960  0.15240  0.79170  Biso   1.000  C
  C150     1.0000 0.67960  0.65240  0.79170  Biso   1.000  C
  C151     1.0000 0.82040  0.15240  0.70830  Biso   1.000  C
  C152     1.0000 0.32040  0.65240  0.70830  Biso   1.000  C
  H193     1.0000 0.80760  0.89120  0.24180  Biso   1.000  H
  H194     1.0000 0.30760  0.39120  0.24180  Biso   1.000  H
  H195     1.0000 0.19240  0.89120  0.25820  Biso   1.000  H
  H196     1.0000 0.69240  0.39120  0.25820  Biso   1.000  H
  H197     1.0000 0.19240  0.10880  0.75820  Biso   1.000  H
  H198     1.0000 0.69240  0.60880  0.75820  Biso   1.000  H
  H199     1.0000 0.80760  0.10880  0.74180  Biso   1.000  H
  H200     1.0000 0.30760  0.60880  0.74180  Biso   1.000  H
  C153     1.0000 0.82270  0.71300  0.23830  Biso   1.000  C
  C154     1.0000 0.32270  0.21300  0.23830  Biso   1.000  C
  C155     1.0000 0.17730  0.71300  0.26170  Biso   1.000  C
  C156     1.0000 0.67730  0.21300  0.26170  Biso   1.000  C
  C157     1.0000 0.17730  0.28700  0.76170  Biso   1.000  C
  C158     1.0000 0.67730  0.78700  0.76170  Biso   1.000  C
  C159     1.0000 0.82270  0.28700  0.73830  Biso   1.000  C
  C160     1.0000 0.32270  0.78700  0.73830  Biso   1.000  C
  H201     1.0000 0.83450  0.66500  0.20620  Biso   1.000  H
  H202     1.0000 0.33450  0.16500  0.20620  Biso   1.000  H
  H203     1.0000 0.16550  0.66500  0.29380  Biso   1.000  H
  H204     1.0000 0.66550  0.16500  0.29380  Biso   1.000  H
  H205     1.0000 0.16550  0.33500  0.79380  Biso   1.000  H
  H206     1.0000 0.66550  0.83500  0.79380  Biso   1.000  H
  H207     1.0000 0.83450  0.33500  0.70620  Biso   1.000  H
  H208     1.0000 0.33450  0.83500  0.70620  Biso   1.000  H
  H209     1.0000 0.79980  0.67970  0.22410  Biso   1.000  H
  H210     1.0000 0.29980  0.17970  0.22410  Biso   1.000  H
  H211     1.0000 0.20020  0.67970  0.27590  Biso   1.000  H
  H212     1.0000 0.70020  0.17970  0.27590  Biso   1.000  H
  H213     1.0000 0.20020  0.32030  0.77590  Biso   1.000  H
  H214     1.0000 0.70020  0.82030  0.77590  Biso   1.000  H
  H215     1.0000 0.79980  0.32030  0.72410  Biso   1.000  H
  H216     1.0000 0.29980  0.82030  0.72410  Biso   1.000  H
  H217     1.0000 0.83520  0.70780  0.30400  Biso   1.000  H
  H218     1.0000 0.33520  0.20780  0.30400  Biso   1.000  H
  H219     1.0000 0.16480  0.70780  0.19600  Biso   1.000  H
  H220     1.0000 0.66480  0.20780  0.19600  Biso   1.000  H
  H221     1.0000 0.16480  0.29220  0.69600  Biso   1.000  H
  H222     1.0000 0.66480  0.79220  0.69600  Biso   1.000  H
  H223     1.0000 0.83520  0.29220  0.80400  Biso   1.000  H
  H224     1.0000 0.33520  0.79220  0.80400  Biso   1.000  H
  N65      1.0000 0.85390  0.91430  0.23310  Biso   1.000  N
  N66      1.0000 0.35390  0.41430  0.23310  Biso   1.000  N
  N67      1.0000 0.14610  0.91430  0.26690  Biso   1.000  N
  N68      1.0000 0.64610  0.41430  0.26690  Biso   1.000  N
  N69      1.0000 0.14610  0.08570  0.76690  Biso   1.000  N
  N70      1.0000 0.64610  0.58570  0.76690  Biso   1.000  N
  N71      1.0000 0.85390  0.08570  0.73310  Biso   1.000  N
  N72      1.0000 0.35390  0.58570  0.73310  Biso   1.000  N
  H225     1.0000 0.86870  0.86800  0.21580  Biso   1.000  H
  H226     1.0000 0.36870  0.36800  0.21580  Biso   1.000  H
  H227     1.0000 0.13130  0.86800  0.28420  Biso   1.000  H
  H228     1.0000 0.63130  0.36800  0.28420  Biso   1.000  H
  H229     1.0000 0.13130  0.13200  0.78420  Biso   1.000  H
  H230     1.0000 0.63130  0.63200  0.78420  Biso   1.000  H
  H231     1.0000 0.86870  0.13200  0.71580  Biso   1.000  H
  H232     1.0000 0.36870  0.63200  0.71580  Biso   1.000  H
  H233     1.0000 0.86310  0.92580  0.29500  Biso   1.000  H
  H234     1.0000 0.36310  0.42580  0.29500  Biso   1.000  H
  H235     1.0000 0.13690  0.92580  0.20500  Biso   1.000  H
  H236     1.0000 0.63690  0.42580  0.20500  Biso   1.000  H
  H237     1.0000 0.13690  0.07420  0.70500  Biso   1.000  H
  H238     1.0000 0.63690  0.57420  0.70500  Biso   1.000  H
  H239     1.0000 0.86310  0.07420  0.79500  Biso   1.000  H
  H240     1.0000 0.36310  0.57420  0.79500  Biso   1.000  H
  N73      1.0000 0.89900  0.98570  0.43390  Biso   1.000  N
  N74      1.0000 0.39900  0.48570  0.43390  Biso   1.000  N
  N75      1.0000 0.10100  0.98570  0.06610  Biso   1.000  N
  N76      1.0000 0.60100  0.48570  0.06610  Biso   1.000  N
  N77      1.0000 0.10100  0.01430  0.56610  Biso   1.000  N
  N78      1.0000 0.60100  0.51430  0.56610  Biso   1.000  N
  N79      1.0000 0.89900  0.01430  0.93390  Biso   1.000  N
  N80      1.0000 0.39900  0.51430  0.93390  Biso   1.000  N
  N81      1.0000 0.88600  0.98850  0.49150  Biso   1.000  N
  N82      1.0000 0.38600  0.48850  0.49150  Biso   1.000  N
  N83      1.0000 0.11400  0.98850  0.00850  Biso   1.000  N
  N84      1.0000 0.61400  0.48850  0.00850  Biso   1.000  N
  N85      1.0000 0.11400  0.01150  0.50850  Biso   1.000  N
  N86      1.0000 0.61400  0.51150  0.50850  Biso   1.000  N
  N87      1.0000 0.88600  0.01150  0.99150  Biso   1.000  N
  N88      1.0000 0.38600  0.51150  0.99150  Biso   1.000  N
  N89      1.0000 0.87320  0.98730  0.54490  Biso   1.000  N
  N90      1.0000 0.37320  0.48730  0.54490  Biso   1.000  N
  N91      1.0000 0.12680  0.98730  0.95510  Biso   1.000  N
  N92      1.0000 0.62680  0.48730  0.95510  Biso   1.000  N
  N93      1.0000 0.12680  0.01270  0.45510  Biso   1.000  N
  N94      1.0000 0.62680  0.51270  0.45510  Biso   1.000  N
  N95      1.0000 0.87320  0.01270  0.04490  Biso   1.000  N
  N96      1.0000 0.37320  0.51270  0.04490  Biso   1.000  N
