data_image0
_cell_length_a       13.148
_cell_length_b       7.336
_cell_length_c       15.079
_cell_angle_alpha    90
_cell_angle_beta     100.852
_cell_angle_gamma    90

_symmetry_space_group_name_H-M    "P 1"
_symmetry_int_tables_number       1

loop_
  _symmetry_equiv_pos_as_xyz
  'x, y, z'

loop_
  _atom_site_label
  _atom_site_occupancy
  _atom_site_fract_x
  _atom_site_fract_y
  _atom_site_fract_z
  _atom_site_thermal_displace_type
  _atom_site_B_iso_or_equiv
  _atom_site_type_symbol
  Cu1      1.0000 0.83843  0.18555  0.01924  Biso   1.000  Cu
  Cu2      1.0000 0.66157  0.68555  0.48076  Biso   1.000  Cu
  Cu3      1.0000 0.16157  0.81445  0.98076  Biso   1.000  Cu
  Cu4      1.0000 0.33843  0.31445  0.51924  Biso   1.000  Cu
  N1       1.0000 0.72380  0.18930  0.09160  Biso   1.000  N
  N2       1.0000 0.77620  0.68930  0.40840  Biso   1.000  N
  N3       1.0000 0.27620  0.81070  0.90840  Biso   1.000  N
  N4       1.0000 0.22380  0.31070  0.59160  Biso   1.000  N
  C1       1.0000 0.73060  0.16060  0.18060  Biso   1.000  C
  C2       1.0000 0.76940  0.66060  0.31940  Biso   1.000  C
  C3       1.0000 0.26940  0.83940  0.81940  Biso   1.000  C
  C4       1.0000 0.23060  0.33940  0.68060  Biso   1.000  C
  H1       1.0000 0.79560  0.14270  0.21630  Biso   1.000  H
  H2       1.0000 0.70440  0.64270  0.28370  Biso   1.000  H
  H3       1.0000 0.20440  0.85730  0.78370  Biso   1.000  H
  H4       1.0000 0.29560  0.35730  0.71630  Biso   1.000  H
  C5       1.0000 0.64390  0.15670  0.22110  Biso   1.000  C
  C6       1.0000 0.85610  0.65670  0.27890  Biso   1.000  C
  C7       1.0000 0.35610  0.84330  0.77890  Biso   1.000  C
  C8       1.0000 0.14390  0.34330  0.72110  Biso   1.000  C
  H5       1.0000 0.65070  0.13650  0.28280  Biso   1.000  H
  H6       1.0000 0.84930  0.63650  0.21720  Biso   1.000  H
  H7       1.0000 0.34930  0.86350  0.71720  Biso   1.000  H
  H8       1.0000 0.15070  0.36350  0.78280  Biso   1.000  H
  C9       1.0000 0.54890  0.18310  0.16850  Biso   1.000  C
  C10      1.0000 0.95110  0.68310  0.33150  Biso   1.000  C
  C11      1.0000 0.45110  0.81690  0.83150  Biso   1.000  C
  C12      1.0000 0.04890  0.31690  0.66850  Biso   1.000  C
  H9       1.0000 0.49020  0.18130  0.19470  Biso   1.000  H
  H10      1.0000 0.00980  0.68130  0.30530  Biso   1.000  H
  H11      1.0000 0.50980  0.81870  0.80530  Biso   1.000  H
  H12      1.0000 0.99020  0.31870  0.69470  Biso   1.000  H
  C13      1.0000 0.53880  0.21260  0.07650  Biso   1.000  C
  C14      1.0000 0.96120  0.71260  0.42350  Biso   1.000  C
  C15      1.0000 0.46120  0.78740  0.92350  Biso   1.000  C
  C16      1.0000 0.03880  0.28740  0.57650  Biso   1.000  C
  H13      1.0000 0.47410  0.23060  0.04020  Biso   1.000  H
  H14      1.0000 0.02590  0.73060  0.45980  Biso   1.000  H
  H15      1.0000 0.52590  0.76940  0.95980  Biso   1.000  H
  H16      1.0000 0.97410  0.26940  0.54020  Biso   1.000  H
  C17      1.0000 0.62870  0.21440  0.04000  Biso   1.000  C
  C18      1.0000 0.87130  0.71440  0.46000  Biso   1.000  C
  C19      1.0000 0.37130  0.78560  0.96000  Biso   1.000  C
  C20      1.0000 0.12870  0.28560  0.54000  Biso   1.000  C
  C21      1.0000 0.62980  0.24320  0.94210  Biso   1.000  C
  C22      1.0000 0.87020  0.74320  0.55790  Biso   1.000  C
  C23      1.0000 0.37020  0.75680  0.05790  Biso   1.000  C
  C24      1.0000 0.12980  0.25680  0.44210  Biso   1.000  C
  C25      1.0000 0.53470  0.30290  0.87810  Biso   1.000  C
  C26      1.0000 0.96530  0.80290  0.62190  Biso   1.000  C
  C27      1.0000 0.46530  0.69710  0.12190  Biso   1.000  C
  C28      1.0000 0.03470  0.19710  0.37810  Biso   1.000  C
  H17      1.0000 0.55030  0.31680  0.81880  Biso   1.000  H
  H18      1.0000 0.94970  0.81680  0.68120  Biso   1.000  H
  H19      1.0000 0.44970  0.68320  0.18120  Biso   1.000  H
  H20      1.0000 0.05030  0.18320  0.31880  Biso   1.000  H
  H21      1.0000 0.51140  0.41730  0.89780  Biso   1.000  H
  H22      1.0000 0.98860  0.91730  0.60220  Biso   1.000  H
  H23      1.0000 0.48860  0.58270  0.10220  Biso   1.000  H
  H24      1.0000 0.01140  0.08270  0.39780  Biso   1.000  H
  H25      1.0000 0.48130  0.21300  0.87650  Biso   1.000  H
  H26      1.0000 0.01870  0.71300  0.62350  Biso   1.000  H
  H27      1.0000 0.51870  0.78700  0.12350  Biso   1.000  H
  H28      1.0000 0.98130  0.28700  0.37650  Biso   1.000  H
  N5       1.0000 0.71850  0.21780  0.92180  Biso   1.000  N
  N6       1.0000 0.78150  0.71780  0.57820  Biso   1.000  N
  N7       1.0000 0.28150  0.78220  0.07820  Biso   1.000  N
  N8       1.0000 0.21850  0.28220  0.42180  Biso   1.000  N
  C29      1.0000 0.74450  0.24330  0.83160  Biso   1.000  C
  C30      1.0000 0.75550  0.74330  0.66840  Biso   1.000  C
  C31      1.0000 0.25550  0.75670  0.16840  Biso   1.000  C
  C32      1.0000 0.24450  0.25670  0.33160  Biso   1.000  C
  H29      1.0000 0.75250  0.37170  0.81930  Biso   1.000  H
  H30      1.0000 0.74750  0.87170  0.68070  Biso   1.000  H
  H31      1.0000 0.24750  0.62830  0.18070  Biso   1.000  H
  H32      1.0000 0.25250  0.12830  0.31930  Biso   1.000  H
  H33      1.0000 0.69050  0.19330  0.78520  Biso   1.000  H
  H34      1.0000 0.80950  0.69330  0.71480  Biso   1.000  H
  H35      1.0000 0.30950  0.80670  0.21480  Biso   1.000  H
  H36      1.0000 0.19050  0.30670  0.28520  Biso   1.000  H
  C33      1.0000 0.84610  0.14200  0.83360  Biso   1.000  C
  C34      1.0000 0.65390  0.64200  0.66640  Biso   1.000  C
  C35      1.0000 0.15390  0.85800  0.16640  Biso   1.000  C
  C36      1.0000 0.34610  0.35800  0.33360  Biso   1.000  C
  H37      1.0000 0.83390  0.01150  0.83140  Biso   1.000  H
  H38      1.0000 0.66610  0.51150  0.66860  Biso   1.000  H
  H39      1.0000 0.16610  0.98850  0.16860  Biso   1.000  H
  H40      1.0000 0.33390  0.48850  0.33140  Biso   1.000  H
  H41      1.0000 0.87570  0.17590  0.78170  Biso   1.000  H
  H42      1.0000 0.62430  0.67590  0.71830  Biso   1.000  H
  H43      1.0000 0.12430  0.82410  0.21830  Biso   1.000  H
  H44      1.0000 0.37570  0.32410  0.28170  Biso   1.000  H
  N9       1.0000 0.91830  0.19010  0.91770  Biso   1.000  N
  N10      1.0000 0.58170  0.69010  0.58230  Biso   1.000  N
  N11      1.0000 0.08170  0.80990  0.08230  Biso   1.000  N
  N12      1.0000 0.41830  0.30990  0.41770  Biso   1.000  N
  H45      1.0000 0.94500  0.30190  0.91280  Biso   1.000  H
  H46      1.0000 0.55500  0.80190  0.58720  Biso   1.000  H
  H47      1.0000 0.05500  0.69810  0.08720  Biso   1.000  H
  H48      1.0000 0.44500  0.19810  0.41280  Biso   1.000  H
  H49      1.0000 0.97080  0.10950  0.92840  Biso   1.000  H
  H50      1.0000 0.52920  0.60950  0.57160  Biso   1.000  H
  H51      1.0000 0.02920  0.89050  0.07160  Biso   1.000  H
  H52      1.0000 0.47080  0.39050  0.42840  Biso   1.000  H
  N13      1.0000 0.04680  0.44220  0.17380  Biso   1.000  N
  N14      1.0000 0.45320  0.94220  0.32620  Biso   1.000  N
  N15      1.0000 0.95320  0.55780  0.82620  Biso   1.000  N
  N16      1.0000 0.54680  0.05780  0.67380  Biso   1.000  N
  N17      1.0000 0.95520  0.17710  0.12080  Biso   1.000  N
  N18      1.0000 0.54480  0.67710  0.37920  Biso   1.000  N
  N19      1.0000 0.04480  0.82290  0.87920  Biso   1.000  N
  N20      1.0000 0.45520  0.32290  0.62080  Biso   1.000  N
  N21      1.0000 0.00090  0.31480  0.14540  Biso   1.000  N
  N22      1.0000 0.49910  0.81480  0.35460  Biso   1.000  N
  N23      1.0000 0.99910  0.68520  0.85460  Biso   1.000  N
  N24      1.0000 0.50090  0.18520  0.64540  Biso   1.000  N
  O1       1.0000 0.83980  0.85440  0.01630  Biso   1.000  O
  O2       1.0000 0.66020  0.35440  0.48370  Biso   1.000  O
  O3       1.0000 0.16020  0.14560  0.98370  Biso   1.000  O
  O4       1.0000 0.33980  0.64560  0.51630  Biso   1.000  O
  Cl1      1.0000 0.77562  0.69897  0.99985  Biso   1.000  Cl
  Cl2      1.0000 0.72438  0.19897  0.50015  Biso   1.000  Cl
  Cl3      1.0000 0.22438  0.30103  0.00015  Biso   1.000  Cl
  Cl4      1.0000 0.27562  0.80103  0.49985  Biso   1.000  Cl
  O5       1.0000 0.70340  0.70010  0.05810  Biso   1.000  O
  O6       1.0000 0.79660  0.20010  0.44190  Biso   1.000  O
  O7       1.0000 0.29660  0.29990  0.94190  Biso   1.000  O
  O8       1.0000 0.20340  0.79990  0.55810  Biso   1.000  O
  O9       1.0000 0.84260  0.54430  0.01790  Biso   1.000  O
  O10      1.0000 0.65740  0.04430  0.48210  Biso   1.000  O
  O11      1.0000 0.15740  0.45570  0.98210  Biso   1.000  O
  O12      1.0000 0.34260  0.95570  0.51790  Biso   1.000  O
  O13      1.0000 0.72090  0.69870  0.90980  Biso   1.000  O
  O14      1.0000 0.77910  0.19870  0.59020  Biso   1.000  O
  O15      1.0000 0.27910  0.30130  0.09020  Biso   1.000  O
  O16      1.0000 0.22090  0.80130  0.40980  Biso   1.000  O
