data_image0
_cell_length_a       21.359
_cell_length_b       12.0195
_cell_length_c       28.954
_cell_angle_alpha    90
_cell_angle_beta     97.896
_cell_angle_gamma    90

_symmetry_space_group_name_H-M    "P 1"
_symmetry_int_tables_number       1

loop_
  _symmetry_equiv_pos_as_xyz
  'x, y, z'

loop_
  _atom_site_label
  _atom_site_occupancy
  _atom_site_fract_x
  _atom_site_fract_y
  _atom_site_fract_z
  _atom_site_thermal_displace_type
  _atom_site_B_iso_or_equiv
  _atom_site_type_symbol
  Cu1      1.0000 0.51090  0.49042  0.95602  Biso   1.000  Cu
  Cu2      1.0000 0.51090  0.50958  0.45602  Biso   1.000  Cu
  Cu3      1.0000 0.01090  0.99042  0.95602  Biso   1.000  Cu
  Cu4      1.0000 0.01090  0.00958  0.45602  Biso   1.000  Cu
  Cu5      1.0000 0.59571  0.73516  0.96785  Biso   1.000  Cu
  Cu6      1.0000 0.59571  0.26484  0.46785  Biso   1.000  Cu
  Cu7      1.0000 0.09571  0.23516  0.96785  Biso   1.000  Cu
  Cu8      1.0000 0.09571  0.76484  0.46785  Biso   1.000  Cu
  Cu9      1.0000 0.42621  0.73409  0.95262  Biso   1.000  Cu
  Cu10     1.0000 0.42621  0.26591  0.45262  Biso   1.000  Cu
  Cu11     1.0000 0.92621  0.23409  0.95262  Biso   1.000  Cu
  Cu12     1.0000 0.92621  0.76591  0.45262  Biso   1.000  Cu
  Cu13     1.0000 0.36112  0.56511  0.63219  Biso   1.000  Cu
  Cu14     1.0000 0.36112  0.43489  0.13219  Biso   1.000  Cu
  Cu15     1.0000 0.86112  0.06511  0.63219  Biso   1.000  Cu
  Cu16     1.0000 0.86112  0.93489  0.13219  Biso   1.000  Cu
  Cu17     1.0000 0.44228  0.81123  0.62364  Biso   1.000  Cu
  Cu18     1.0000 0.44228  0.18877  0.12364  Biso   1.000  Cu
  Cu19     1.0000 0.94228  0.31123  0.62364  Biso   1.000  Cu
  Cu20     1.0000 0.94228  0.68877  0.12364  Biso   1.000  Cu
  Cu21     1.0000 0.52535  0.43236  0.12032  Biso   1.000  Cu
  Cu22     1.0000 0.52535  0.56764  0.62032  Biso   1.000  Cu
  Cu23     1.0000 0.02535  0.93236  0.12032  Biso   1.000  Cu
  Cu24     1.0000 0.02535  0.06764  0.62032  Biso   1.000  Cu
  Cl1      1.0000 0.54737  0.42060  0.04044  Biso   1.000  Cl
  Cl2      1.0000 0.54737  0.57940  0.54044  Biso   1.000  Cl
  Cl3      1.0000 0.04737  0.92060  0.04044  Biso   1.000  Cl
  Cl4      1.0000 0.04737  0.07940  0.54044  Biso   1.000  Cl
  Cl5      1.0000 0.62190  0.77470  0.04799  Biso   1.000  Cl
  Cl6      1.0000 0.62190  0.22530  0.54799  Biso   1.000  Cl
  Cl7      1.0000 0.12190  0.27470  0.04799  Biso   1.000  Cl
  Cl8      1.0000 0.12190  0.72530  0.54799  Biso   1.000  Cl
  Cl9      1.0000 0.41490  0.77820  0.02790  Biso   1.000  Cl
  Cl10     1.0000 0.41490  0.22180  0.52790  Biso   1.000  Cl
  Cl11     1.0000 0.91490  0.27820  0.02790  Biso   1.000  Cl
  Cl12     1.0000 0.91490  0.72180  0.52790  Biso   1.000  Cl
  Cl13     1.0000 0.31479  0.51350  0.55974  Biso   1.000  Cl
  Cl14     1.0000 0.31479  0.48650  0.05974  Biso   1.000  Cl
  Cl15     1.0000 0.81479  0.01350  0.55974  Biso   1.000  Cl
  Cl16     1.0000 0.81479  0.98650  0.05974  Biso   1.000  Cl
  Cl17     1.0000 0.43070  0.86990  0.53865  Biso   1.000  Cl
  Cl18     1.0000 0.43070  0.13010  0.03865  Biso   1.000  Cl
  Cl19     1.0000 0.93070  0.36990  0.53865  Biso   1.000  Cl
  Cl20     1.0000 0.93070  0.63010  0.03865  Biso   1.000  Cl
  Cl21     1.0000 0.61970  0.15370  0.68300  Biso   1.000  Cl
  Cl22     1.0000 0.61970  0.84630  0.18300  Biso   1.000  Cl
  Cl23     1.0000 0.11970  0.65370  0.68300  Biso   1.000  Cl
  Cl24     1.0000 0.11970  0.34630  0.18300  Biso   1.000  Cl
  Cl25     1.0000 0.67480  0.15180  0.93560  Biso   1.000  Cl
  Cl26     1.0000 0.67480  0.84820  0.43560  Biso   1.000  Cl
  Cl27     1.0000 0.17480  0.65180  0.93560  Biso   1.000  Cl
  Cl28     1.0000 0.17480  0.34820  0.43560  Biso   1.000  Cl
  Cl29     1.0000 0.66550  0.14790  0.90050  Biso   1.000  Cl
  Cl30     1.0000 0.66550  0.85210  0.40050  Biso   1.000  Cl
  Cl31     1.0000 0.16550  0.64790  0.90050  Biso   1.000  Cl
  Cl32     1.0000 0.16550  0.35210  0.40050  Biso   1.000  Cl
  Cl33     1.0000 0.72420  0.23500  0.96650  Biso   1.000  Cl
  Cl34     1.0000 0.72420  0.76500  0.46650  Biso   1.000  Cl
  Cl35     1.0000 0.22420  0.73500  0.96650  Biso   1.000  Cl
  Cl36     1.0000 0.22420  0.26500  0.46650  Biso   1.000  Cl
  Cl37     1.0000 0.27780  0.15220  0.64550  Biso   1.000  Cl
  Cl38     1.0000 0.27780  0.84780  0.14550  Biso   1.000  Cl
  Cl39     1.0000 0.77780  0.65220  0.64550  Biso   1.000  Cl
  Cl40     1.0000 0.77780  0.34780  0.14550  Biso   1.000  Cl
  Cl41     1.0000 0.28360  0.14660  0.66760  Biso   1.000  Cl
  Cl42     1.0000 0.28360  0.85340  0.16760  Biso   1.000  Cl
  Cl43     1.0000 0.78360  0.64660  0.66760  Biso   1.000  Cl
  Cl44     1.0000 0.78360  0.35340  0.16760  Biso   1.000  Cl
  Cl45     1.0000 0.28780  0.14660  0.69210  Biso   1.000  Cl
  Cl46     1.0000 0.28780  0.85340  0.19210  Biso   1.000  Cl
  Cl47     1.0000 0.78780  0.64660  0.69210  Biso   1.000  Cl
  Cl48     1.0000 0.78780  0.35340  0.19210  Biso   1.000  Cl
  Cl49     1.0000 0.50830  0.96150  0.82040  Biso   1.000  Cl
  Cl50     1.0000 0.50830  0.03850  0.32040  Biso   1.000  Cl
  Cl51     1.0000 0.00830  0.46150  0.82040  Biso   1.000  Cl
  Cl52     1.0000 0.00830  0.53850  0.32040  Biso   1.000  Cl
  Cl53     1.0000 0.45800  0.97800  0.81370  Biso   1.000  Cl
  Cl54     1.0000 0.45800  0.02200  0.31370  Biso   1.000  Cl
  Cl55     1.0000 0.95800  0.47800  0.81370  Biso   1.000  Cl
  Cl56     1.0000 0.95800  0.52200  0.31370  Biso   1.000  Cl
  Cl57     1.0000 0.33290  0.15940  0.89850  Biso   1.000  Cl
  Cl58     1.0000 0.33290  0.84060  0.39850  Biso   1.000  Cl
  Cl59     1.0000 0.83290  0.65940  0.89850  Biso   1.000  Cl
  Cl60     1.0000 0.83290  0.34060  0.39850  Biso   1.000  Cl
  O1       1.0000 0.52060  0.64720  0.97750  Biso   1.000  O
  O2       1.0000 0.52060  0.35280  0.47750  Biso   1.000  O
  O3       1.0000 0.02060  0.14720  0.97750  Biso   1.000  O
  O4       1.0000 0.02060  0.85280  0.47750  Biso   1.000  O
  H1       1.0000 0.52210  0.64340  0.00690  Biso   1.000  H
  H2       1.0000 0.52210  0.35660  0.50690  Biso   1.000  H
  H3       1.0000 0.02210  0.14340  0.00690  Biso   1.000  H
  H4       1.0000 0.02210  0.85660  0.50690  Biso   1.000  H
  O5       1.0000 0.44650  0.65430  0.60560  Biso   1.000  O
  O6       1.0000 0.44650  0.34570  0.10560  Biso   1.000  O
  O7       1.0000 0.94650  0.15430  0.60560  Biso   1.000  O
  O8       1.0000 0.94650  0.84570  0.10560  Biso   1.000  O
  H5       1.0000 0.43820  0.65370  0.57600  Biso   1.000  H
  H6       1.0000 0.43820  0.34630  0.07600  Biso   1.000  H
  H7       1.0000 0.93820  0.15370  0.57600  Biso   1.000  H
  H8       1.0000 0.93820  0.84630  0.07600  Biso   1.000  H
  N1       1.0000 0.41600  0.48870  0.96020  Biso   1.000  N
  N2       1.0000 0.41600  0.51130  0.46020  Biso   1.000  N
  N3       1.0000 0.91600  0.98870  0.96020  Biso   1.000  N
  N4       1.0000 0.91600  0.01130  0.46020  Biso   1.000  N
  N5       1.0000 0.38140  0.58770  0.95700  Biso   1.000  N
  N6       1.0000 0.38140  0.41230  0.45700  Biso   1.000  N
  N7       1.0000 0.88140  0.08770  0.95700  Biso   1.000  N
  N8       1.0000 0.88140  0.91230  0.45700  Biso   1.000  N
  N9       1.0000 0.31530  0.45680  0.95040  Biso   1.000  N
  N10      1.0000 0.31530  0.54320  0.45040  Biso   1.000  N
  N11      1.0000 0.81530  0.95680  0.95040  Biso   1.000  N
  N12      1.0000 0.81530  0.04320  0.45040  Biso   1.000  N
  N13      1.0000 0.17410  0.33110  0.90140  Biso   1.000  N
  N14      1.0000 0.17410  0.66890  0.40140  Biso   1.000  N
  N15      1.0000 0.67410  0.83110  0.90140  Biso   1.000  N
  N16      1.0000 0.67410  0.16890  0.40140  Biso   1.000  N
  N17      1.0000 0.16900  0.32010  0.94980  Biso   1.000  N
  N18      1.0000 0.16900  0.67990  0.44980  Biso   1.000  N
  N19      1.0000 0.66900  0.82010  0.94980  Biso   1.000  N
  N20      1.0000 0.66900  0.17990  0.44980  Biso   1.000  N
  N21      1.0000 0.25710  0.39740  0.94230  Biso   1.000  N
  N22      1.0000 0.25710  0.60260  0.44230  Biso   1.000  N
  N23      1.0000 0.75710  0.89740  0.94230  Biso   1.000  N
  N24      1.0000 0.75710  0.10260  0.44230  Biso   1.000  N
  N25      1.0000 0.60050  0.49510  0.94160  Biso   1.000  N
  N26      1.0000 0.60050  0.50490  0.44160  Biso   1.000  N
  N27      1.0000 0.10050  0.99510  0.94160  Biso   1.000  N
  N28      1.0000 0.10050  0.00490  0.44160  Biso   1.000  N
  N29      1.0000 0.63210  0.59690  0.94020  Biso   1.000  N
  N30      1.0000 0.63210  0.40310  0.44020  Biso   1.000  N
  N31      1.0000 0.13210  0.09690  0.94020  Biso   1.000  N
  N32      1.0000 0.13210  0.90310  0.44020  Biso   1.000  N
  N33      1.0000 0.69220  0.46210  0.92410  Biso   1.000  N
  N34      1.0000 0.69220  0.53790  0.42410  Biso   1.000  N
  N35      1.0000 0.19220  0.96210  0.92410  Biso   1.000  N
  N36      1.0000 0.19220  0.03790  0.42410  Biso   1.000  N
  N37      1.0000 0.83450  0.31770  0.92040  Biso   1.000  N
  N38      1.0000 0.83450  0.68230  0.42040  Biso   1.000  N
  N39      1.0000 0.33450  0.81770  0.92040  Biso   1.000  N
  N40      1.0000 0.33450  0.18230  0.42040  Biso   1.000  N
  N41      1.0000 0.81220  0.33090  0.87440  Biso   1.000  N
  N42      1.0000 0.81220  0.66910  0.37440  Biso   1.000  N
  N43      1.0000 0.31220  0.83090  0.87440  Biso   1.000  N
  N44      1.0000 0.31220  0.16910  0.37440  Biso   1.000  N
  N45      1.0000 0.74710  0.40820  0.91220  Biso   1.000  N
  N46      1.0000 0.74710  0.59180  0.41220  Biso   1.000  N
  N47      1.0000 0.24710  0.90820  0.91220  Biso   1.000  N
  N48      1.0000 0.24710  0.09180  0.41220  Biso   1.000  N
  N49      1.0000 0.53810  0.87490  0.94470  Biso   1.000  N
  N50      1.0000 0.53810  0.12510  0.44470  Biso   1.000  N
  N51      1.0000 0.03810  0.37490  0.94470  Biso   1.000  N
  N52      1.0000 0.03810  0.62510  0.44470  Biso   1.000  N
  N53      1.0000 0.47320  0.87570  0.94620  Biso   1.000  N
  N54      1.0000 0.47320  0.12430  0.44620  Biso   1.000  N
  N55      1.0000 0.97320  0.37570  0.94620  Biso   1.000  N
  N56      1.0000 0.97320  0.62430  0.44620  Biso   1.000  N
  N57      1.0000 0.50430  0.04300  0.93240  Biso   1.000  N
  N58      1.0000 0.50430  0.95700  0.43240  Biso   1.000  N
  N59      1.0000 0.00430  0.54300  0.93240  Biso   1.000  N
  N60      1.0000 0.00430  0.45700  0.43240  Biso   1.000  N
  N61      1.0000 0.50410  0.33410  0.93330  Biso   1.000  N
  N62      1.0000 0.50410  0.66590  0.43330  Biso   1.000  N
  N63      1.0000 0.00410  0.83410  0.93330  Biso   1.000  N
  N64      1.0000 0.00410  0.16590  0.43330  Biso   1.000  N
  N65      1.0000 0.49580  0.31030  0.88500  Biso   1.000  N
  N66      1.0000 0.49580  0.68970  0.38500  Biso   1.000  N
  N67      1.0000 0.99580  0.81030  0.88500  Biso   1.000  N
  N68      1.0000 0.99580  0.18970  0.38500  Biso   1.000  N
  N69      1.0000 0.50330  0.15470  0.92360  Biso   1.000  N
  N70      1.0000 0.50330  0.84530  0.42360  Biso   1.000  N
  N71      1.0000 0.00330  0.65470  0.92360  Biso   1.000  N
  N72      1.0000 0.00330  0.34530  0.42360  Biso   1.000  N
  N73      1.0000 0.31190  0.70830  0.62950  Biso   1.000  N
  N74      1.0000 0.31190  0.29170  0.12950  Biso   1.000  N
  N75      1.0000 0.81190  0.20830  0.62950  Biso   1.000  N
  N76      1.0000 0.81190  0.79170  0.12950  Biso   1.000  N
  N77      1.0000 0.34410  0.80820  0.62580  Biso   1.000  N
  N78      1.0000 0.34410  0.19180  0.12580  Biso   1.000  N
  N79      1.0000 0.84410  0.30820  0.62580  Biso   1.000  N
  N80      1.0000 0.84410  0.69180  0.12580  Biso   1.000  N
  N81      1.0000 0.24850  0.84480  0.63760  Biso   1.000  N
  N82      1.0000 0.24850  0.15520  0.13760  Biso   1.000  N
  N83      1.0000 0.74850  0.34480  0.63760  Biso   1.000  N
  N84      1.0000 0.74850  0.65520  0.13760  Biso   1.000  N
  N85      1.0000 0.12630  0.96960  0.68690  Biso   1.000  N
  N86      1.0000 0.12630  0.03040  0.18690  Biso   1.000  N
  N87      1.0000 0.62630  0.46960  0.68690  Biso   1.000  N
  N88      1.0000 0.62630  0.53040  0.18690  Biso   1.000  N
  N89      1.0000 0.10650  0.98270  0.63990  Biso   1.000  N
  N90      1.0000 0.10650  0.01730  0.13990  Biso   1.000  N
  N91      1.0000 0.60650  0.48270  0.63990  Biso   1.000  N
  N92      1.0000 0.60650  0.51730  0.13990  Biso   1.000  N
  N93      1.0000 0.19580  0.89910  0.64650  Biso   1.000  N
  N94      1.0000 0.19580  0.10090  0.14650  Biso   1.000  N
  N95      1.0000 0.69580  0.39910  0.64650  Biso   1.000  N
  N96      1.0000 0.69580  0.60090  0.14650  Biso   1.000  N
  N97      1.0000 0.41410  0.42360  0.63790  Biso   1.000  N
  N98      1.0000 0.41410  0.57640  0.13790  Biso   1.000  N
  N99      1.0000 0.91410  0.92360  0.63790  Biso   1.000  N
  N100     1.0000 0.91410  0.07640  0.13790  Biso   1.000  N
  N101     1.0000 0.47740  0.42430  0.63190  Biso   1.000  N
  N102     1.0000 0.47740  0.57570  0.13190  Biso   1.000  N
  N103     1.0000 0.97740  0.92430  0.63190  Biso   1.000  N
  N104     1.0000 0.97740  0.07570  0.13190  Biso   1.000  N
  N105     1.0000 0.44940  0.25790  0.64540  Biso   1.000  N
  N106     1.0000 0.44940  0.74210  0.14540  Biso   1.000  N
  N107     1.0000 0.94940  0.75790  0.64540  Biso   1.000  N
  N108     1.0000 0.94940  0.24210  0.14540  Biso   1.000  N
  N109     1.0000 0.45380  0.98770  0.69300  Biso   1.000  N
  N110     1.0000 0.45380  0.01230  0.19300  Biso   1.000  N
  N111     1.0000 0.95380  0.48770  0.69300  Biso   1.000  N
  N112     1.0000 0.95380  0.51230  0.19300  Biso   1.000  N
  N113     1.0000 0.44410  0.97010  0.64570  Biso   1.000  N
  N114     1.0000 0.44410  0.02990  0.14570  Biso   1.000  N
  N115     1.0000 0.94410  0.47010  0.64570  Biso   1.000  N
  N116     1.0000 0.94410  0.52990  0.14570  Biso   1.000  N
  N117     1.0000 0.44930  0.14590  0.65570  Biso   1.000  N
  N118     1.0000 0.44930  0.85410  0.15570  Biso   1.000  N
  N119     1.0000 0.94930  0.64590  0.65570  Biso   1.000  N
  N120     1.0000 0.94930  0.35410  0.15570  Biso   1.000  N
  N121     1.0000 0.07120  0.21010  0.64330  Biso   1.000  N
  N122     1.0000 0.07120  0.78990  0.14330  Biso   1.000  N
  N123     1.0000 0.57120  0.71010  0.64330  Biso   1.000  N
  N124     1.0000 0.57120  0.28990  0.14330  Biso   1.000  N
  N125     1.0000 0.03800  0.30870  0.64110  Biso   1.000  N
  N126     1.0000 0.03800  0.69130  0.14110  Biso   1.000  N
  N127     1.0000 0.53800  0.80870  0.64110  Biso   1.000  N
  N128     1.0000 0.53800  0.19130  0.14110  Biso   1.000  N
  N129     1.0000 0.13820  0.33890  0.66170  Biso   1.000  N
  N130     1.0000 0.13820  0.66110  0.16170  Biso   1.000  N
  N131     1.0000 0.63820  0.83890  0.66170  Biso   1.000  N
  N132     1.0000 0.63820  0.16110  0.16170  Biso   1.000  N
  N133     1.0000 0.27930  0.46210  0.71450  Biso   1.000  N
  N134     1.0000 0.27930  0.53790  0.21450  Biso   1.000  N
  N135     1.0000 0.77930  0.96210  0.71450  Biso   1.000  N
  N136     1.0000 0.77930  0.03790  0.21450  Biso   1.000  N
  N137     1.0000 0.28260  0.47510  0.66680  Biso   1.000  N
  N138     1.0000 0.28260  0.52490  0.16680  Biso   1.000  N
  N139     1.0000 0.78260  0.97510  0.66680  Biso   1.000  N
  N140     1.0000 0.78260  0.02490  0.16680  Biso   1.000  N
  N141     1.0000 0.19370  0.39360  0.67500  Biso   1.000  N
  N142     1.0000 0.19370  0.60640  0.17500  Biso   1.000  N
  N143     1.0000 0.69370  0.89360  0.67500  Biso   1.000  N
  N144     1.0000 0.69370  0.10640  0.17500  Biso   1.000  N
  N145     1.0000 0.48010  0.58200  0.88530  Biso   1.000  N
  N146     1.0000 0.48010  0.41800  0.38530  Biso   1.000  N
  N147     1.0000 0.98010  0.08200  0.88530  Biso   1.000  N
  N148     1.0000 0.98010  0.91800  0.38530  Biso   1.000  N
  N149     1.0000 0.44620  0.67890  0.88710  Biso   1.000  N
  N150     1.0000 0.44620  0.32110  0.38710  Biso   1.000  N
  N151     1.0000 0.94620  0.17890  0.88710  Biso   1.000  N
  N152     1.0000 0.94620  0.82110  0.38710  Biso   1.000  N
  N153     1.0000 0.44920  0.64420  0.81560  Biso   1.000  N
  N154     1.0000 0.44920  0.35580  0.31560  Biso   1.000  N
  N155     1.0000 0.94920  0.14420  0.81560  Biso   1.000  N
  N156     1.0000 0.94920  0.85580  0.31560  Biso   1.000  N
  N157     1.0000 0.40700  0.62170  0.69480  Biso   1.000  N
  N158     1.0000 0.40700  0.37830  0.19480  Biso   1.000  N
  N159     1.0000 0.90700  0.12170  0.69480  Biso   1.000  N
  N160     1.0000 0.90700  0.87830  0.19480  Biso   1.000  N
  N161     1.0000 0.44200  0.71920  0.69780  Biso   1.000  N
  N162     1.0000 0.44200  0.28080  0.19780  Biso   1.000  N
  N163     1.0000 0.94200  0.21920  0.69780  Biso   1.000  N
  N164     1.0000 0.94200  0.78080  0.19780  Biso   1.000  N
  N165     1.0000 0.44010  0.65420  0.76730  Biso   1.000  N
  N166     1.0000 0.44010  0.34580  0.26730  Biso   1.000  N
  N167     1.0000 0.94010  0.15420  0.76730  Biso   1.000  N
  N168     1.0000 0.94010  0.84580  0.26730  Biso   1.000  N
  C1       1.0000 0.37340  0.40700  0.95570  Biso   1.000  C
  C2       1.0000 0.37340  0.59300  0.45570  Biso   1.000  C
  C3       1.0000 0.87340  0.90700  0.95570  Biso   1.000  C
  C4       1.0000 0.87340  0.09300  0.45570  Biso   1.000  C
  H9       1.0000 0.38170  0.33020  0.95610  Biso   1.000  H
  H10      1.0000 0.38170  0.66980  0.45610  Biso   1.000  H
  H11      1.0000 0.88170  0.83020  0.95610  Biso   1.000  H
  H12      1.0000 0.88170  0.16980  0.45610  Biso   1.000  H
  C5       1.0000 0.32300  0.56560  0.95100  Biso   1.000  C
  C6       1.0000 0.32300  0.43440  0.45100  Biso   1.000  C
  C7       1.0000 0.82300  0.06560  0.95100  Biso   1.000  C
  C8       1.0000 0.82300  0.93440  0.45100  Biso   1.000  C
  H13      1.0000 0.29030  0.61840  0.94740  Biso   1.000  H
  H14      1.0000 0.29030  0.38160  0.44740  Biso   1.000  H
  H15      1.0000 0.79030  0.11840  0.94740  Biso   1.000  H
  H16      1.0000 0.79030  0.88160  0.44740  Biso   1.000  H
  C9       1.0000 0.22680  0.37920  0.89900  Biso   1.000  C
  C10      1.0000 0.22680  0.62080  0.39900  Biso   1.000  C
  C11      1.0000 0.72680  0.87920  0.89900  Biso   1.000  C
  C12      1.0000 0.72680  0.12080  0.39900  Biso   1.000  C
  H17      1.0000 0.24220  0.39900  0.87130  Biso   1.000  H
  H18      1.0000 0.24220  0.60100  0.37130  Biso   1.000  H
  H19      1.0000 0.74220  0.89900  0.87130  Biso   1.000  H
  H20      1.0000 0.74220  0.10100  0.37130  Biso   1.000  H
  C13      1.0000 0.21950  0.36160  0.97280  Biso   1.000  C
  C14      1.0000 0.21950  0.63840  0.47280  Biso   1.000  C
  C15      1.0000 0.71950  0.86160  0.97280  Biso   1.000  C
  C16      1.0000 0.71950  0.13840  0.47280  Biso   1.000  C
  H21      1.0000 0.22850  0.36620  0.00540  Biso   1.000  H
  H22      1.0000 0.22850  0.63380  0.50540  Biso   1.000  H
  H23      1.0000 0.72850  0.86620  0.00540  Biso   1.000  H
  H24      1.0000 0.72850  0.13380  0.50540  Biso   1.000  H
  C17      1.0000 0.63850  0.41610  0.93240  Biso   1.000  C
  C18      1.0000 0.63850  0.58390  0.43240  Biso   1.000  C
  C19      1.0000 0.13850  0.91610  0.93240  Biso   1.000  C
  C20      1.0000 0.13850  0.08390  0.43240  Biso   1.000  C
  H25      1.0000 0.62940  0.33960  0.93170  Biso   1.000  H
  H26      1.0000 0.62940  0.66040  0.43170  Biso   1.000  H
  H27      1.0000 0.12940  0.83960  0.93170  Biso   1.000  H
  H28      1.0000 0.12940  0.16040  0.43170  Biso   1.000  H
  C21      1.0000 0.68840  0.57640  0.92930  Biso   1.000  C
  C22      1.0000 0.68840  0.42360  0.42930  Biso   1.000  C
  C23      1.0000 0.18840  0.07640  0.92930  Biso   1.000  C
  C24      1.0000 0.18840  0.92360  0.42930  Biso   1.000  C
  H29      1.0000 0.72000  0.62880  0.92570  Biso   1.000  H
  H30      1.0000 0.72000  0.37120  0.42570  Biso   1.000  H
  H31      1.0000 0.22000  0.12880  0.92570  Biso   1.000  H
  H32      1.0000 0.22000  0.87120  0.42570  Biso   1.000  H
  C25      1.0000 0.76100  0.38600  0.87050  Biso   1.000  C
  C26      1.0000 0.76100  0.61400  0.37050  Biso   1.000  C
  C27      1.0000 0.26100  0.88600  0.87050  Biso   1.000  C
  C28      1.0000 0.26100  0.11400  0.37050  Biso   1.000  C
  H33      1.0000 0.73680  0.40680  0.84230  Biso   1.000  H
  H34      1.0000 0.73680  0.59320  0.34230  Biso   1.000  H
  H35      1.0000 0.23680  0.90680  0.84230  Biso   1.000  H
  H36      1.0000 0.23680  0.09320  0.34230  Biso   1.000  H
  C29      1.0000 0.79290  0.36800  0.94310  Biso   1.000  C
  C30      1.0000 0.79290  0.63200  0.44310  Biso   1.000  C
  C31      1.0000 0.29290  0.86800  0.94310  Biso   1.000  C
  C32      1.0000 0.29290  0.13200  0.44310  Biso   1.000  C
  H37      1.0000 0.79540  0.37420  0.97570  Biso   1.000  H
  H38      1.0000 0.79540  0.62580  0.47570  Biso   1.000  H
  H39      1.0000 0.29540  0.87420  0.97570  Biso   1.000  H
  H40      1.0000 0.29540  0.12580  0.47570  Biso   1.000  H
  C33      1.0000 0.55560  0.97600  0.93660  Biso   1.000  C
  C34      1.0000 0.55560  0.02400  0.43660  Biso   1.000  C
  C35      1.0000 0.05560  0.47600  0.93660  Biso   1.000  C
  C36      1.0000 0.05560  0.52400  0.43660  Biso   1.000  C
  H41      1.0000 0.59710  0.99860  0.93410  Biso   1.000  H
  H42      1.0000 0.59710  0.00140  0.43410  Biso   1.000  H
  H43      1.0000 0.09710  0.49860  0.93410  Biso   1.000  H
  H44      1.0000 0.09710  0.50140  0.43410  Biso   1.000  H
  C37      1.0000 0.45470  0.97690  0.93740  Biso   1.000  C
  C38      1.0000 0.45470  0.02310  0.43740  Biso   1.000  C
  C39      1.0000 0.95470  0.47690  0.93740  Biso   1.000  C
  C40      1.0000 0.95470  0.52310  0.43740  Biso   1.000  C
  H45      1.0000 0.41250  0.00100  0.93480  Biso   1.000  H
  H46      1.0000 0.41250  0.99900  0.43480  Biso   1.000  H
  H47      1.0000 0.91250  0.50100  0.93480  Biso   1.000  H
  H48      1.0000 0.91250  0.49900  0.43480  Biso   1.000  H
  C41      1.0000 0.49440  0.20400  0.88000  Biso   1.000  C
  C42      1.0000 0.49440  0.79600  0.38000  Biso   1.000  C
  C43      1.0000 0.99440  0.70400  0.88000  Biso   1.000  C
  C44      1.0000 0.99440  0.29600  0.38000  Biso   1.000  C
  H49      1.0000 0.48830  0.16590  0.85140  Biso   1.000  H
  H50      1.0000 0.48830  0.83410  0.35140  Biso   1.000  H
  H51      1.0000 0.98830  0.66590  0.85140  Biso   1.000  H
  H52      1.0000 0.98830  0.33410  0.35140  Biso   1.000  H
  C45      1.0000 0.51030  0.24060  0.95560  Biso   1.000  C
  C46      1.0000 0.51030  0.75940  0.45560  Biso   1.000  C
  C47      1.0000 0.01030  0.74060  0.95560  Biso   1.000  C
  C48      1.0000 0.01030  0.25940  0.45560  Biso   1.000  C
  H53      1.0000 0.51830  0.23250  0.98820  Biso   1.000  H
  H54      1.0000 0.51830  0.76750  0.48820  Biso   1.000  H
  H55      1.0000 0.01830  0.73250  0.98820  Biso   1.000  H
  H56      1.0000 0.01830  0.26750  0.48820  Biso   1.000  H
  C49      1.0000 0.25500  0.72990  0.63430  Biso   1.000  C
  C50      1.0000 0.25500  0.27010  0.13430  Biso   1.000  C
  C51      1.0000 0.75500  0.22990  0.63430  Biso   1.000  C
  C52      1.0000 0.75500  0.77010  0.13430  Biso   1.000  C
  H57      1.0000 0.22270  0.67730  0.63550  Biso   1.000  H
  H58      1.0000 0.22270  0.32270  0.13550  Biso   1.000  H
  H59      1.0000 0.72270  0.17730  0.63550  Biso   1.000  H
  H60      1.0000 0.72270  0.82270  0.13550  Biso   1.000  H
  C53      1.0000 0.30550  0.89020  0.63230  Biso   1.000  C
  C54      1.0000 0.30550  0.10980  0.13230  Biso   1.000  C
  C55      1.0000 0.80550  0.39020  0.63230  Biso   1.000  C
  C56      1.0000 0.80550  0.60980  0.13230  Biso   1.000  C
  H61      1.0000 0.31550  0.96640  0.63320  Biso   1.000  H
  H62      1.0000 0.31550  0.03360  0.13320  Biso   1.000  H
  H63      1.0000 0.81550  0.46640  0.63320  Biso   1.000  H
  H64      1.0000 0.81550  0.53360  0.13320  Biso   1.000  H
  C57      1.0000 0.18070  0.91720  0.69130  Biso   1.000  C
  C58      1.0000 0.18070  0.08280  0.19130  Biso   1.000  C
  C59      1.0000 0.68070  0.41720  0.69130  Biso   1.000  C
  C60      1.0000 0.68070  0.58280  0.19130  Biso   1.000  C
  H65      1.0000 0.20500  0.89580  0.71950  Biso   1.000  H
  H66      1.0000 0.20500  0.10420  0.21950  Biso   1.000  H
  H67      1.0000 0.70500  0.39580  0.71950  Biso   1.000  H
  H68      1.0000 0.70500  0.60420  0.21950  Biso   1.000  H
  C61      1.0000 0.14850  0.94380  0.61660  Biso   1.000  C
  C62      1.0000 0.14850  0.05620  0.11660  Biso   1.000  C
  C63      1.0000 0.64850  0.44380  0.61660  Biso   1.000  C
  C64      1.0000 0.64850  0.55620  0.11660  Biso   1.000  C
  H69      1.0000 0.14660  0.94610  0.58400  Biso   1.000  H
  H70      1.0000 0.14660  0.05390  0.08400  Biso   1.000  H
  H71      1.0000 0.64660  0.44610  0.58400  Biso   1.000  H
  H72      1.0000 0.64660  0.55390  0.08400  Biso   1.000  H
  C65      1.0000 0.39880  0.32550  0.64590  Biso   1.000  C
  C66      1.0000 0.39880  0.67450  0.14590  Biso   1.000  C
  C67      1.0000 0.89880  0.82550  0.64590  Biso   1.000  C
  C68      1.0000 0.89880  0.17450  0.14590  Biso   1.000  C
  H73      1.0000 0.35840  0.30240  0.65150  Biso   1.000  H
  H74      1.0000 0.35840  0.69760  0.15150  Biso   1.000  H
  H75      1.0000 0.85840  0.80240  0.65150  Biso   1.000  H
  H76      1.0000 0.85840  0.19760  0.15150  Biso   1.000  H
  C69      1.0000 0.49800  0.32480  0.63740  Biso   1.000  C
  C70      1.0000 0.49800  0.67520  0.13740  Biso   1.000  C
  C71      1.0000 0.99800  0.82480  0.63740  Biso   1.000  C
  C72      1.0000 0.99800  0.17520  0.13740  Biso   1.000  C
  H77      1.0000 0.53980  0.30170  0.63620  Biso   1.000  H
  H78      1.0000 0.53980  0.69830  0.13620  Biso   1.000  H
  H79      1.0000 0.03980  0.80170  0.63620  Biso   1.000  H
  H80      1.0000 0.03980  0.19830  0.13620  Biso   1.000  H
  C73      1.0000 0.45830  0.09880  0.69750  Biso   1.000  C
  C74      1.0000 0.45830  0.90120  0.19750  Biso   1.000  C
  C75      1.0000 0.95830  0.59880  0.69750  Biso   1.000  C
  C76      1.0000 0.95830  0.40120  0.19750  Biso   1.000  C
  H81      1.0000 0.46670  0.13720  0.72600  Biso   1.000  H
  H82      1.0000 0.46670  0.86280  0.22600  Biso   1.000  H
  H83      1.0000 0.96670  0.63720  0.72600  Biso   1.000  H
  H84      1.0000 0.96670  0.36280  0.22600  Biso   1.000  H
  C77      1.0000 0.43700  0.06460  0.62280  Biso   1.000  C
  C78      1.0000 0.43700  0.93540  0.12280  Biso   1.000  C
  C79      1.0000 0.93700  0.56460  0.62280  Biso   1.000  C
  C80      1.0000 0.93700  0.43540  0.12280  Biso   1.000  C
  H85      1.0000 0.42570  0.07420  0.59050  Biso   1.000  H
  H86      1.0000 0.42570  0.92580  0.09050  Biso   1.000  H
  H87      1.0000 0.92570  0.57420  0.59050  Biso   1.000  H
  H88      1.0000 0.92570  0.42580  0.09050  Biso   1.000  H
  C81      1.0000 0.13010  0.23010  0.65730  Biso   1.000  C
  C82      1.0000 0.13010  0.76990  0.15730  Biso   1.000  C
  C83      1.0000 0.63010  0.73010  0.65730  Biso   1.000  C
  C84      1.0000 0.63010  0.26990  0.15730  Biso   1.000  C
  H89      1.0000 0.16210  0.17620  0.66330  Biso   1.000  H
  H90      1.0000 0.16210  0.82380  0.16330  Biso   1.000  H
  H91      1.0000 0.66210  0.67620  0.66330  Biso   1.000  H
  H92      1.0000 0.66210  0.32380  0.16330  Biso   1.000  H
  C85      1.0000 0.08000  0.38730  0.65120  Biso   1.000  C
  C86      1.0000 0.08000  0.61270  0.15120  Biso   1.000  C
  C87      1.0000 0.58000  0.88730  0.65120  Biso   1.000  C
  C88      1.0000 0.58000  0.11270  0.15120  Biso   1.000  C
  H93      1.0000 0.07150  0.46400  0.65130  Biso   1.000  H
  H94      1.0000 0.07150  0.53600  0.15130  Biso   1.000  H
  H95      1.0000 0.57150  0.96400  0.65130  Biso   1.000  H
  H96      1.0000 0.57150  0.03600  0.15130  Biso   1.000  H
  C89      1.0000 0.22400  0.41440  0.71810  Biso   1.000  C
  C90      1.0000 0.22400  0.58560  0.21810  Biso   1.000  C
  C91      1.0000 0.72400  0.91440  0.71810  Biso   1.000  C
  C92      1.0000 0.72400  0.08560  0.21810  Biso   1.000  C
  H97      1.0000 0.20860  0.39780  0.74620  Biso   1.000  H
  H98      1.0000 0.20860  0.60220  0.24620  Biso   1.000  H
  H99      1.0000 0.70860  0.89780  0.74620  Biso   1.000  H
  H100     1.0000 0.70860  0.10220  0.24620  Biso   1.000  H
  C93      1.0000 0.23270  0.43200  0.64470  Biso   1.000  C
  C94      1.0000 0.23270  0.56800  0.14470  Biso   1.000  C
  C95      1.0000 0.73270  0.93200  0.64470  Biso   1.000  C
  C96      1.0000 0.73270  0.06800  0.14470  Biso   1.000  C
  H101     1.0000 0.22390  0.42730  0.61210  Biso   1.000  H
  H102     1.0000 0.22390  0.57270  0.11210  Biso   1.000  H
  H103     1.0000 0.72390  0.92730  0.61210  Biso   1.000  H
  H104     1.0000 0.72390  0.07270  0.11210  Biso   1.000  H
  C97      1.0000 0.48150  0.56380  0.84010  Biso   1.000  C
  C98      1.0000 0.48150  0.43620  0.34010  Biso   1.000  C
  C99      1.0000 0.98150  0.06380  0.84010  Biso   1.000  C
  C100     1.0000 0.98150  0.93620  0.34010  Biso   1.000  C
  H105     1.0000 0.50190  0.50400  0.82750  Biso   1.000  H
  H106     1.0000 0.50190  0.49600  0.32750  Biso   1.000  H
  H107     1.0000 0.00190  0.00400  0.82750  Biso   1.000  H
  H108     1.0000 0.00190  0.99600  0.32750  Biso   1.000  H
  C101     1.0000 0.42750  0.71580  0.84550  Biso   1.000  C
  C102     1.0000 0.42750  0.28420  0.34550  Biso   1.000  C
  C103     1.0000 0.92750  0.21580  0.84550  Biso   1.000  C
  C104     1.0000 0.92750  0.78420  0.34550  Biso   1.000  C
  H109     1.0000 0.40340  0.78020  0.83760  Biso   1.000  H
  H110     1.0000 0.40340  0.21980  0.33760  Biso   1.000  H
  H111     1.0000 0.90340  0.28020  0.83760  Biso   1.000  H
  H112     1.0000 0.90340  0.71980  0.33760  Biso   1.000  H
  C105     1.0000 0.40520  0.58790  0.73800  Biso   1.000  C
  C106     1.0000 0.40520  0.41210  0.23800  Biso   1.000  C
  C107     1.0000 0.90520  0.08790  0.73800  Biso   1.000  C
  C108     1.0000 0.90520  0.91210  0.23800  Biso   1.000  C
  H113     1.0000 0.38250  0.52600  0.74660  Biso   1.000  H
  H114     1.0000 0.38250  0.47400  0.24660  Biso   1.000  H
  H115     1.0000 0.88250  0.02600  0.74660  Biso   1.000  H
  H116     1.0000 0.88250  0.97400  0.24660  Biso   1.000  H
  C109     1.0000 0.46060  0.73850  0.74170  Biso   1.000  C
  C110     1.0000 0.46060  0.26150  0.24170  Biso   1.000  C
  C111     1.0000 0.96060  0.23850  0.74170  Biso   1.000  C
  C112     1.0000 0.96060  0.76150  0.24170  Biso   1.000  C
  H117     1.0000 0.48430  0.80040  0.75380  Biso   1.000  H
  H118     1.0000 0.48430  0.19960  0.25380  Biso   1.000  H
  H119     1.0000 0.98430  0.30040  0.75380  Biso   1.000  H
  H120     1.0000 0.98430  0.69960  0.25380  Biso   1.000  H
  O9       1.0000 0.32170  0.51200  0.83700  Biso   1.000  O
  O10      1.0000 0.32170  0.48800  0.33700  Biso   1.000  O
  O11      1.0000 0.82170  0.01200  0.83700  Biso   1.000  O
  O12      1.0000 0.82170  0.98800  0.33700  Biso   1.000  O
  O13      1.0000 0.56130  0.97900  0.54500  Biso   1.000  O
  O14      1.0000 0.56130  0.02100  0.04500  Biso   1.000  O
  O15      1.0000 0.06130  0.47900  0.54500  Biso   1.000  O
  O16      1.0000 0.06130  0.52100  0.04500  Biso   1.000  O
  O17      1.0000 0.46350  0.33330  0.75560  Biso   1.000  O
  O18      1.0000 0.46350  0.66670  0.25560  Biso   1.000  O
  O19      1.0000 0.96350  0.83330  0.75560  Biso   1.000  O
  O20      1.0000 0.96350  0.16670  0.25560  Biso   1.000  O
  O21      1.0000 0.80820  0.31900  0.74710  Biso   1.000  O
  O22      1.0000 0.80820  0.68100  0.24710  Biso   1.000  O
  O23      1.0000 0.30820  0.81900  0.74710  Biso   1.000  O
  O24      1.0000 0.30820  0.18100  0.24710  Biso   1.000  O
  O25      1.0000 0.58310  0.28700  0.77140  Biso   1.000  O
  O26      1.0000 0.58310  0.71300  0.27140  Biso   1.000  O
  O27      1.0000 0.08310  0.78700  0.77140  Biso   1.000  O
  O28      1.0000 0.08310  0.21300  0.27140  Biso   1.000  O
  O29      1.0000 0.64690  0.81700  0.55420  Biso   1.000  O
  O30      1.0000 0.64690  0.18300  0.05420  Biso   1.000  O
  O31      1.0000 0.14690  0.31700  0.55420  Biso   1.000  O
  O32      1.0000 0.14690  0.68300  0.05420  Biso   1.000  O
  O33      1.0000 0.23130  0.65800  0.78370  Biso   1.000  O
  O34      1.0000 0.23130  0.34200  0.28370  Biso   1.000  O
  O35      1.0000 0.73130  0.15800  0.78370  Biso   1.000  O
  O36      1.0000 0.73130  0.84200  0.28370  Biso   1.000  O
  O37      1.0000 0.35710  0.30100  0.80570  Biso   1.000  O
  O38      1.0000 0.35710  0.69900  0.30570  Biso   1.000  O
  O39      1.0000 0.85710  0.80100  0.80570  Biso   1.000  O
  O40      1.0000 0.85710  0.19900  0.30570  Biso   1.000  O
