data_image0
_cell_length_a       25.4049
_cell_length_b       25.4049
_cell_length_c       10.6802
_cell_angle_alpha    90
_cell_angle_beta     90
_cell_angle_gamma    120

_symmetry_space_group_name_H-M    "P 1"
_symmetry_int_tables_number       1

loop_
  _symmetry_equiv_pos_as_xyz
  'x, y, z'

loop_
  _atom_site_label
  _atom_site_occupancy
  _atom_site_fract_x
  _atom_site_fract_y
  _atom_site_fract_z
  _atom_site_thermal_displace_type
  _atom_site_B_iso_or_equiv
  _atom_site_type_symbol
  Cu1      1.0000 0.18193  0.36423  0.82099  Biso   1.000  Cu
  Cu2      1.0000 0.63577  0.81770  0.82099  Biso   1.000  Cu
  Cu3      1.0000 0.18230  0.81807  0.82099  Biso   1.000  Cu
  Cu4      1.0000 0.84860  0.69756  0.15432  Biso   1.000  Cu
  Cu5      1.0000 0.30244  0.15103  0.15432  Biso   1.000  Cu
  Cu6      1.0000 0.84897  0.15140  0.15432  Biso   1.000  Cu
  Cu7      1.0000 0.51526  0.03090  0.48766  Biso   1.000  Cu
  Cu8      1.0000 0.96910  0.48437  0.48766  Biso   1.000  Cu
  Cu9      1.0000 0.51563  0.48474  0.48766  Biso   1.000  Cu
  Br1      1.0000 0.16778  0.35292  0.04884  Biso   1.000  Br
  Br2      1.0000 0.64708  0.81486  0.04884  Biso   1.000  Br
  Br3      1.0000 0.18514  0.83222  0.04884  Biso   1.000  Br
  Br4      1.0000 0.83445  0.68625  0.38217  Biso   1.000  Br
  Br5      1.0000 0.31375  0.14819  0.38217  Biso   1.000  Br
  Br6      1.0000 0.85181  0.16555  0.38217  Biso   1.000  Br
  Br7      1.0000 0.50111  0.01959  0.71551  Biso   1.000  Br
  Br8      1.0000 0.98041  0.48153  0.71551  Biso   1.000  Br
  Br9      1.0000 0.51847  0.49889  0.71551  Biso   1.000  Br
  Br10     1.0000 0.20286  0.38556  0.60051  Biso   1.000  Br
  Br11     1.0000 0.61444  0.81730  0.60051  Biso   1.000  Br
  Br12     1.0000 0.18270  0.79714  0.60051  Biso   1.000  Br
  Br13     1.0000 0.86953  0.71889  0.93384  Biso   1.000  Br
  Br14     1.0000 0.28111  0.15063  0.93384  Biso   1.000  Br
  Br15     1.0000 0.84937  0.13047  0.93384  Biso   1.000  Br
  Br16     1.0000 0.53619  0.05223  0.26718  Biso   1.000  Br
  Br17     1.0000 0.94777  0.48397  0.26718  Biso   1.000  Br
  Br18     1.0000 0.51603  0.46381  0.26718  Biso   1.000  Br
  N1       1.0000 0.25900  0.36330  0.84350  Biso   1.000  N
  N2       1.0000 0.63670  0.89570  0.84350  Biso   1.000  N
  N3       1.0000 0.10430  0.74100  0.84350  Biso   1.000  N
  N4       1.0000 0.92567  0.69663  0.17683  Biso   1.000  N
  N5       1.0000 0.30337  0.22903  0.17683  Biso   1.000  N
  N6       1.0000 0.77097  0.07433  0.17683  Biso   1.000  N
  N7       1.0000 0.59233  0.02997  0.51017  Biso   1.000  N
  N8       1.0000 0.97003  0.56237  0.51017  Biso   1.000  N
  N9       1.0000 0.43763  0.40767  0.51017  Biso   1.000  N
  N10      1.0000 0.13970  0.15270  0.91040  Biso   1.000  N
  N11      1.0000 0.84730  0.98700  0.91040  Biso   1.000  N
  N12      1.0000 0.01300  0.86030  0.91040  Biso   1.000  N
  N13      1.0000 0.80637  0.48603  0.24373  Biso   1.000  N
  N14      1.0000 0.51397  0.32033  0.24373  Biso   1.000  N
  N15      1.0000 0.67967  0.19363  0.24373  Biso   1.000  N
  N16      1.0000 0.47303  0.81937  0.57707  Biso   1.000  N
  N17      1.0000 0.18063  0.65367  0.57707  Biso   1.000  N
  N18      1.0000 0.34633  0.52697  0.57707  Biso   1.000  N
  H1       1.0000 0.15320  0.12710  0.92070  Biso   1.000  H
  H2       1.0000 0.87290  0.02610  0.92070  Biso   1.000  H
  H3       1.0000 0.97390  0.84680  0.92070  Biso   1.000  H
  H4       1.0000 0.81987  0.46043  0.25403  Biso   1.000  H
  H5       1.0000 0.53957  0.35943  0.25403  Biso   1.000  H
  H6       1.0000 0.64057  0.18013  0.25403  Biso   1.000  H
  H7       1.0000 0.48653  0.79377  0.58737  Biso   1.000  H
  H8       1.0000 0.20623  0.69277  0.58737  Biso   1.000  H
  H9       1.0000 0.30723  0.51347  0.58737  Biso   1.000  H
  N19      1.0000 0.09470  0.33950  0.79450  Biso   1.000  N
  N20      1.0000 0.66050  0.75520  0.79450  Biso   1.000  N
  N21      1.0000 0.24480  0.90530  0.79450  Biso   1.000  N
  N22      1.0000 0.76137  0.67283  0.12783  Biso   1.000  N
  N23      1.0000 0.32717  0.08853  0.12783  Biso   1.000  N
  N24      1.0000 0.91147  0.23863  0.12783  Biso   1.000  N
  N25      1.0000 0.42803  0.00617  0.46117  Biso   1.000  N
  N26      1.0000 0.99383  0.42187  0.46117  Biso   1.000  N
  N27      1.0000 0.57813  0.57197  0.46117  Biso   1.000  N
  N28      1.0000 0.18150  0.52920  0.90430  Biso   1.000  N
  N29      1.0000 0.47080  0.65230  0.90430  Biso   1.000  N
  N30      1.0000 0.34770  0.81850  0.90430  Biso   1.000  N
  N31      1.0000 0.84817  0.86253  0.23763  Biso   1.000  N
  N32      1.0000 0.13747  0.98563  0.23763  Biso   1.000  N
  N33      1.0000 0.01437  0.15183  0.23763  Biso   1.000  N
  N34      1.0000 0.51483  0.19587  0.57097  Biso   1.000  N
  N35      1.0000 0.80413  0.31897  0.57097  Biso   1.000  N
  N36      1.0000 0.68103  0.48517  0.57097  Biso   1.000  N
  H10      1.0000 0.17590  0.55920  0.92820  Biso   1.000  H
  H11      1.0000 0.44080  0.61670  0.92820  Biso   1.000  H
  H12      1.0000 0.38330  0.82410  0.92820  Biso   1.000  H
  H13      1.0000 0.84257  0.89253  0.26153  Biso   1.000  H
  H14      1.0000 0.10747  0.95003  0.26153  Biso   1.000  H
  H15      1.0000 0.04997  0.15743  0.26153  Biso   1.000  H
  H16      1.0000 0.50923  0.22587  0.59487  Biso   1.000  H
  H17      1.0000 0.77413  0.28337  0.59487  Biso   1.000  H
  H18      1.0000 0.71663  0.49077  0.59487  Biso   1.000  H
  O1       1.0000 0.06090  0.16380  0.85490  Biso   1.000  O
  O2       1.0000 0.83620  0.89710  0.85490  Biso   1.000  O
  O3       1.0000 0.10290  0.93910  0.85490  Biso   1.000  O
  O4       1.0000 0.72757  0.49713  0.18823  Biso   1.000  O
  O5       1.0000 0.50287  0.23043  0.18823  Biso   1.000  O
  O6       1.0000 0.76957  0.27243  0.18823  Biso   1.000  O
  O7       1.0000 0.39423  0.83047  0.52157  Biso   1.000  O
  O8       1.0000 0.16953  0.56377  0.52157  Biso   1.000  O
  O9       1.0000 0.43623  0.60577  0.52157  Biso   1.000  O
  O10      1.0000 0.24810  0.50060  0.84080  Biso   1.000  O
  O11      1.0000 0.49940  0.74750  0.84080  Biso   1.000  O
  O12      1.0000 0.25250  0.75190  0.84080  Biso   1.000  O
  O13      1.0000 0.91477  0.83393  0.17413  Biso   1.000  O
  O14      1.0000 0.16607  0.08083  0.17413  Biso   1.000  O
  O15      1.0000 0.91917  0.08523  0.17413  Biso   1.000  O
  O16      1.0000 0.58143  0.16727  0.50747  Biso   1.000  O
  O17      1.0000 0.83273  0.41417  0.50747  Biso   1.000  O
  O18      1.0000 0.58583  0.41857  0.50747  Biso   1.000  O
  C1       1.0000 0.30900  0.41560  0.87470  Biso   1.000  C
  C2       1.0000 0.58440  0.89340  0.87470  Biso   1.000  C
  C3       1.0000 0.10660  0.69100  0.87470  Biso   1.000  C
  C4       1.0000 0.97567  0.74893  0.20803  Biso   1.000  C
  C5       1.0000 0.25107  0.22673  0.20803  Biso   1.000  C
  C6       1.0000 0.77327  0.02433  0.20803  Biso   1.000  C
  C7       1.0000 0.64233  0.08227  0.54137  Biso   1.000  C
  C8       1.0000 0.91773  0.56007  0.54137  Biso   1.000  C
  C9       1.0000 0.43993  0.35767  0.54137  Biso   1.000  C
  H19      1.0000 0.30520  0.45050  0.88950  Biso   1.000  H
  H20      1.0000 0.54950  0.85470  0.88950  Biso   1.000  H
  H21      1.0000 0.14530  0.69480  0.88950  Biso   1.000  H
  H22      1.0000 0.97187  0.78383  0.22283  Biso   1.000  H
  H23      1.0000 0.21617  0.18803  0.22283  Biso   1.000  H
  H24      1.0000 0.81197  0.02813  0.22283  Biso   1.000  H
  H25      1.0000 0.63853  0.11717  0.55617  Biso   1.000  H
  H26      1.0000 0.88283  0.52137  0.55617  Biso   1.000  H
  H27      1.0000 0.47863  0.36147  0.55617  Biso   1.000  H
  C10      1.0000 0.36520  0.42080  0.88630  Biso   1.000  C
  C11      1.0000 0.57920  0.94440  0.88630  Biso   1.000  C
  C12      1.0000 0.05560  0.63480  0.88630  Biso   1.000  C
  C13      1.0000 0.03187  0.75413  0.21963  Biso   1.000  C
  C14      1.0000 0.24587  0.27773  0.21963  Biso   1.000  C
  C15      1.0000 0.72227  0.96813  0.21963  Biso   1.000  C
  C16      1.0000 0.69853  0.08747  0.55297  Biso   1.000  C
  C17      1.0000 0.91253  0.61107  0.55297  Biso   1.000  C
  C18      1.0000 0.38893  0.30147  0.55297  Biso   1.000  C
  H28      1.0000 0.40000  0.45850  0.90700  Biso   1.000  H
  H29      1.0000 0.54150  0.94150  0.90700  Biso   1.000  H
  H30      1.0000 0.05850  0.60000  0.90700  Biso   1.000  H
  H31      1.0000 0.06667  0.79183  0.24033  Biso   1.000  H
  H32      1.0000 0.20817  0.27483  0.24033  Biso   1.000  H
  H33      1.0000 0.72517  0.93333  0.24033  Biso   1.000  H
  H34      1.0000 0.73333  0.12517  0.57367  Biso   1.000  H
  H35      1.0000 0.87483  0.60817  0.57367  Biso   1.000  H
  H36      1.0000 0.39183  0.26667  0.57367  Biso   1.000  H
  C19      1.0000 0.36970  0.36950  0.86680  Biso   1.000  C
  C20      1.0000 0.63050  0.00020  0.86680  Biso   1.000  C
  C21      1.0000 0.99980  0.63030  0.86680  Biso   1.000  C
  C22      1.0000 0.03637  0.70283  0.20013  Biso   1.000  C
  C23      1.0000 0.29717  0.33353  0.20013  Biso   1.000  C
  C24      1.0000 0.66647  0.96363  0.20013  Biso   1.000  C
  C25      1.0000 0.70303  0.03617  0.53347  Biso   1.000  C
  C26      1.0000 0.96383  0.66687  0.53347  Biso   1.000  C
  C27      1.0000 0.33313  0.29697  0.53347  Biso   1.000  C
  H37      1.0000 0.40810  0.37190  0.87150  Biso   1.000  H
  H38      1.0000 0.62810  0.03620  0.87150  Biso   1.000  H
  H39      1.0000 0.96380  0.59190  0.87150  Biso   1.000  H
  H40      1.0000 0.07477  0.70523  0.20483  Biso   1.000  H
  H41      1.0000 0.29477  0.36953  0.20483  Biso   1.000  H
  H42      1.0000 0.63047  0.92523  0.20483  Biso   1.000  H
  H43      1.0000 0.74143  0.03857  0.53817  Biso   1.000  H
  H44      1.0000 0.96143  0.70287  0.53817  Biso   1.000  H
  H45      1.0000 0.29713  0.25857  0.53817  Biso   1.000  H
  C28      1.0000 0.31830  0.31460  0.84030  Biso   1.000  C
  C29      1.0000 0.68540  0.00370  0.84030  Biso   1.000  C
  C30      1.0000 0.99630  0.68170  0.84030  Biso   1.000  C
  C31      1.0000 0.98497  0.64793  0.17363  Biso   1.000  C
  C32      1.0000 0.35207  0.33703  0.17363  Biso   1.000  C
  C33      1.0000 0.66297  0.01503  0.17363  Biso   1.000  C
  C34      1.0000 0.65163  0.98127  0.50697  Biso   1.000  C
  C35      1.0000 0.01873  0.67037  0.50697  Biso   1.000  C
  C36      1.0000 0.32963  0.34837  0.50697  Biso   1.000  C
  H46      1.0000 0.32070  0.27870  0.82980  Biso   1.000  H
  H47      1.0000 0.72130  0.04200  0.82980  Biso   1.000  H
  H48      1.0000 0.95800  0.67930  0.82980  Biso   1.000  H
  H49      1.0000 0.98737  0.61203  0.16313  Biso   1.000  H
  H50      1.0000 0.38797  0.37533  0.16313  Biso   1.000  H
  H51      1.0000 0.62467  0.01263  0.16313  Biso   1.000  H
  H52      1.0000 0.65403  0.94537  0.49647  Biso   1.000  H
  H53      1.0000 0.05463  0.70867  0.49647  Biso   1.000  H
  H54      1.0000 0.29133  0.34597  0.49647  Biso   1.000  H
  C37      1.0000 0.26320  0.31280  0.82920  Biso   1.000  C
  C38      1.0000 0.68720  0.95040  0.82920  Biso   1.000  C
  C39      1.0000 0.04960  0.73680  0.82920  Biso   1.000  C
  C40      1.0000 0.92987  0.64613  0.16253  Biso   1.000  C
  C41      1.0000 0.35387  0.28373  0.16253  Biso   1.000  C
  C42      1.0000 0.71627  0.07013  0.16253  Biso   1.000  C
  C43      1.0000 0.59653  0.97947  0.49587  Biso   1.000  C
  C44      1.0000 0.02053  0.61707  0.49587  Biso   1.000  C
  C45      1.0000 0.38293  0.40347  0.49587  Biso   1.000  C
  C46      1.0000 0.20700  0.25300  0.80390  Biso   1.000  C
  C47      1.0000 0.74700  0.95400  0.80390  Biso   1.000  C
  C48      1.0000 0.04600  0.79300  0.80390  Biso   1.000  C
  C49      1.0000 0.87367  0.58633  0.13723  Biso   1.000  C
  C50      1.0000 0.41367  0.28733  0.13723  Biso   1.000  C
  C51      1.0000 0.71267  0.12633  0.13723  Biso   1.000  C
  C52      1.0000 0.54033  0.91967  0.47057  Biso   1.000  C
  C53      1.0000 0.08033  0.62067  0.47057  Biso   1.000  C
  C54      1.0000 0.37933  0.45967  0.47057  Biso   1.000  C
  H55      1.0000 0.21670  0.22880  0.74550  Biso   1.000  H
  H56      1.0000 0.77120  0.98790  0.74550  Biso   1.000  H
  H57      1.0000 0.01210  0.78330  0.74550  Biso   1.000  H
  H58      1.0000 0.88337  0.56213  0.07883  Biso   1.000  H
  H59      1.0000 0.43787  0.32123  0.07883  Biso   1.000  H
  H60      1.0000 0.67877  0.11663  0.07883  Biso   1.000  H
  H61      1.0000 0.55003  0.89547  0.41217  Biso   1.000  H
  H62      1.0000 0.10453  0.65457  0.41217  Biso   1.000  H
  H63      1.0000 0.34543  0.44997  0.41217  Biso   1.000  H
  H64      1.0000 0.17580  0.26010  0.76410  Biso   1.000  H
  H65      1.0000 0.73990  0.91570  0.76410  Biso   1.000  H
  H66      1.0000 0.08430  0.82420  0.76410  Biso   1.000  H
  H67      1.0000 0.84247  0.59343  0.09743  Biso   1.000  H
  H68      1.0000 0.40657  0.24903  0.09743  Biso   1.000  H
  H69      1.0000 0.75097  0.15753  0.09743  Biso   1.000  H
  H70      1.0000 0.50913  0.92677  0.43077  Biso   1.000  H
  H71      1.0000 0.07323  0.58237  0.43077  Biso   1.000  H
  H72      1.0000 0.41763  0.49087  0.43077  Biso   1.000  H
  C55      1.0000 0.18190  0.21780  0.92660  Biso   1.000  C
  C56      1.0000 0.78220  0.96410  0.92660  Biso   1.000  C
  C57      1.0000 0.03590  0.81810  0.92660  Biso   1.000  C
  C58      1.0000 0.84857  0.55113  0.25993  Biso   1.000  C
  C59      1.0000 0.44887  0.29743  0.25993  Biso   1.000  C
  C60      1.0000 0.70257  0.15143  0.25993  Biso   1.000  C
  C61      1.0000 0.51523  0.88447  0.59327  Biso   1.000  C
  C62      1.0000 0.11553  0.63077  0.59327  Biso   1.000  C
  C63      1.0000 0.36923  0.48477  0.59327  Biso   1.000  C
  H73      1.0000 0.21650  0.22320  0.97880  Biso   1.000  H
  H74      1.0000 0.77680  0.99330  0.97880  Biso   1.000  H
  H75      1.0000 0.00670  0.78350  0.97880  Biso   1.000  H
  H76      1.0000 0.88317  0.55653  0.31213  Biso   1.000  H
  H77      1.0000 0.44347  0.32663  0.31213  Biso   1.000  H
  H78      1.0000 0.67337  0.11683  0.31213  Biso   1.000  H
  H79      1.0000 0.54983  0.88987  0.64547  Biso   1.000  H
  H80      1.0000 0.11013  0.65997  0.64547  Biso   1.000  H
  H81      1.0000 0.34003  0.45017  0.64547  Biso   1.000  H
  H82      1.0000 0.16090  0.23580  0.97280  Biso   1.000  H
  H83      1.0000 0.76420  0.92510  0.97280  Biso   1.000  H
  H84      1.0000 0.07490  0.83910  0.97280  Biso   1.000  H
  H85      1.0000 0.82757  0.56913  0.30613  Biso   1.000  H
  H86      1.0000 0.43087  0.25843  0.30613  Biso   1.000  H
  H87      1.0000 0.74157  0.17243  0.30613  Biso   1.000  H
  H88      1.0000 0.49423  0.90247  0.63947  Biso   1.000  H
  H89      1.0000 0.09753  0.59177  0.63947  Biso   1.000  H
  H90      1.0000 0.40823  0.50577  0.63947  Biso   1.000  H
  C64      1.0000 0.08090  0.13060  0.88010  Biso   1.000  C
  C65      1.0000 0.86940  0.95030  0.88010  Biso   1.000  C
  C66      1.0000 0.04970  0.91910  0.88010  Biso   1.000  C
  C67      1.0000 0.74757  0.46393  0.21343  Biso   1.000  C
  C68      1.0000 0.53607  0.28363  0.21343  Biso   1.000  C
  C69      1.0000 0.71637  0.25243  0.21343  Biso   1.000  C
  C70      1.0000 0.41423  0.79727  0.54677  Biso   1.000  C
  C71      1.0000 0.20273  0.61697  0.54677  Biso   1.000  C
  C72      1.0000 0.38303  0.58577  0.54677  Biso   1.000  C
  C73      1.0000 0.04090  0.06220  0.87740  Biso   1.000  C
  C74      1.0000 0.93780  0.97870  0.87740  Biso   1.000  C
  C75      1.0000 0.02130  0.95910  0.87740  Biso   1.000  C
  C76      1.0000 0.70757  0.39553  0.21073  Biso   1.000  C
  C77      1.0000 0.60447  0.31203  0.21073  Biso   1.000  C
  C78      1.0000 0.68797  0.29243  0.21073  Biso   1.000  C
  C79      1.0000 0.37423  0.72887  0.54407  Biso   1.000  C
  C80      1.0000 0.27113  0.64537  0.54407  Biso   1.000  C
  C81      1.0000 0.35463  0.62577  0.54407  Biso   1.000  C
  C82      1.0000 0.97820  0.04050  0.87780  Biso   1.000  C
  C83      1.0000 0.95950  0.93770  0.87780  Biso   1.000  C
  C84      1.0000 0.06230  0.02180  0.87780  Biso   1.000  C
  C85      1.0000 0.64487  0.37383  0.21113  Biso   1.000  C
  C86      1.0000 0.62617  0.27103  0.21113  Biso   1.000  C
  C87      1.0000 0.72897  0.35513  0.21113  Biso   1.000  C
  C88      1.0000 0.31153  0.70717  0.54447  Biso   1.000  C
  C89      1.0000 0.29283  0.60437  0.54447  Biso   1.000  C
  C90      1.0000 0.39563  0.68847  0.54447  Biso   1.000  C
  H91      1.0000 0.96340  0.06830  0.87840  Biso   1.000  H
  H92      1.0000 0.93170  0.89510  0.87840  Biso   1.000  H
  H93      1.0000 0.10490  0.03660  0.87840  Biso   1.000  H
  H94      1.0000 0.63007  0.40163  0.21173  Biso   1.000  H
  H95      1.0000 0.59837  0.22843  0.21173  Biso   1.000  H
  H96      1.0000 0.77157  0.36993  0.21173  Biso   1.000  H
  H97      1.0000 0.29673  0.73497  0.54507  Biso   1.000  H
  H98      1.0000 0.26503  0.56177  0.54507  Biso   1.000  H
  H99      1.0000 0.43823  0.70327  0.54507  Biso   1.000  H
  C91      1.0000 0.05860  0.27900  0.80010  Biso   1.000  C
  C92      1.0000 0.72100  0.77960  0.80010  Biso   1.000  C
  C93      1.0000 0.22040  0.94140  0.80010  Biso   1.000  C
  C94      1.0000 0.72527  0.61233  0.13343  Biso   1.000  C
  C95      1.0000 0.38767  0.11293  0.13343  Biso   1.000  C
  C96      1.0000 0.88707  0.27473  0.13343  Biso   1.000  C
  C97      1.0000 0.39193  0.94567  0.46677  Biso   1.000  C
  C98      1.0000 0.05433  0.44627  0.46677  Biso   1.000  C
  C99      1.0000 0.55373  0.60807  0.46677  Biso   1.000  C
  H100     1.0000 0.07650  0.25470  0.81700  Biso   1.000  H
  H101     1.0000 0.74530  0.82180  0.81700  Biso   1.000  H
  H102     1.0000 0.17820  0.92350  0.81700  Biso   1.000  H
  H103     1.0000 0.74317  0.58803  0.15033  Biso   1.000  H
  H104     1.0000 0.41197  0.15513  0.15033  Biso   1.000  H
  H105     1.0000 0.84487  0.25683  0.15033  Biso   1.000  H
  H106     1.0000 0.40983  0.92137  0.48367  Biso   1.000  H
  H107     1.0000 0.07863  0.48847  0.48367  Biso   1.000  H
  H108     1.0000 0.51153  0.59017  0.48367  Biso   1.000  H
  C100     1.0000 0.99600  0.25020  0.78240  Biso   1.000  C
  C101     1.0000 0.74980  0.74580  0.78240  Biso   1.000  C
  C102     1.0000 0.25420  0.00400  0.78240  Biso   1.000  C
  C103     1.0000 0.66267  0.58353  0.11573  Biso   1.000  C
  C104     1.0000 0.41647  0.07913  0.11573  Biso   1.000  C
  C105     1.0000 0.92087  0.33733  0.11573  Biso   1.000  C
  C106     1.0000 0.32933  0.91687  0.44907  Biso   1.000  C
  C107     1.0000 0.08313  0.41247  0.44907  Biso   1.000  C
  C108     1.0000 0.58753  0.67067  0.44907  Biso   1.000  C
  H109     1.0000 0.97180  0.20720  0.78360  Biso   1.000  H
  H110     1.0000 0.79280  0.76460  0.78360  Biso   1.000  H
  H111     1.0000 0.23540  0.02820  0.78360  Biso   1.000  H
  H112     1.0000 0.63847  0.54053  0.11693  Biso   1.000  H
  H113     1.0000 0.45947  0.09793  0.11693  Biso   1.000  H
  H114     1.0000 0.90207  0.36153  0.11693  Biso   1.000  H
  H115     1.0000 0.30513  0.87387  0.45027  Biso   1.000  H
  H116     1.0000 0.12613  0.43127  0.45027  Biso   1.000  H
  H117     1.0000 0.56873  0.69487  0.45027  Biso   1.000  H
  C109     1.0000 0.97030  0.28620  0.76290  Biso   1.000  C
  C110     1.0000 0.71380  0.68410  0.76290  Biso   1.000  C
  C111     1.0000 0.31590  0.02970  0.76290  Biso   1.000  C
  C112     1.0000 0.63697  0.61953  0.09623  Biso   1.000  C
  C113     1.0000 0.38047  0.01743  0.09623  Biso   1.000  C
  C114     1.0000 0.98257  0.36303  0.09623  Biso   1.000  C
  C115     1.0000 0.30363  0.95287  0.42957  Biso   1.000  C
  C116     1.0000 0.04713  0.35077  0.42957  Biso   1.000  C
  C117     1.0000 0.64923  0.69637  0.42957  Biso   1.000  C
  H118     1.0000 0.92750  0.26830  0.75360  Biso   1.000  H
  H119     1.0000 0.73170  0.65920  0.75360  Biso   1.000  H
  H120     1.0000 0.34080  0.07250  0.75360  Biso   1.000  H
  H121     1.0000 0.59417  0.60163  0.08693  Biso   1.000  H
  H122     1.0000 0.39837  0.99253  0.08693  Biso   1.000  H
  H123     1.0000 0.00747  0.40583  0.08693  Biso   1.000  H
  H124     1.0000 0.26083  0.93497  0.42027  Biso   1.000  H
  H125     1.0000 0.06503  0.32587  0.42027  Biso   1.000  H
  H126     1.0000 0.67413  0.73917  0.42027  Biso   1.000  H
  C118     1.0000 0.00770  0.34900  0.75700  Biso   1.000  C
  C119     1.0000 0.65100  0.65870  0.75700  Biso   1.000  C
  C120     1.0000 0.34130  0.99230  0.75700  Biso   1.000  C
  C121     1.0000 0.67437  0.68233  0.09033  Biso   1.000  C
  C122     1.0000 0.31767  0.99203  0.09033  Biso   1.000  C
  C123     1.0000 0.00797  0.32563  0.09033  Biso   1.000  C
  C124     1.0000 0.34103  0.01567  0.42367  Biso   1.000  C
  C125     1.0000 0.98433  0.32537  0.42367  Biso   1.000  C
  C126     1.0000 0.67463  0.65897  0.42367  Biso   1.000  C
  H127     1.0000 0.99060  0.37410  0.74260  Biso   1.000  H
  H128     1.0000 0.62590  0.61650  0.74260  Biso   1.000  H
  H129     1.0000 0.38350  0.00940  0.74260  Biso   1.000  H
  H130     1.0000 0.65727  0.70743  0.07593  Biso   1.000  H
  H131     1.0000 0.29257  0.94983  0.07593  Biso   1.000  H
  H132     1.0000 0.05017  0.34273  0.07593  Biso   1.000  H
  H133     1.0000 0.32393  0.04077  0.40927  Biso   1.000  H
  H134     1.0000 0.95923  0.28317  0.40927  Biso   1.000  H
  H135     1.0000 0.71683  0.67607  0.40927  Biso   1.000  H
  C127     1.0000 0.07040  0.37510  0.77220  Biso   1.000  C
  C128     1.0000 0.62490  0.69530  0.77220  Biso   1.000  C
  C129     1.0000 0.30470  0.92960  0.77220  Biso   1.000  C
  C130     1.0000 0.73707  0.70843  0.10553  Biso   1.000  C
  C131     1.0000 0.29157  0.02863  0.10553  Biso   1.000  C
  C132     1.0000 0.97137  0.26293  0.10553  Biso   1.000  C
  C133     1.0000 0.40373  0.04177  0.43887  Biso   1.000  C
  C134     1.0000 0.95823  0.36197  0.43887  Biso   1.000  C
  C135     1.0000 0.63803  0.59627  0.43887  Biso   1.000  C
  C136     1.0000 0.11230  0.44220  0.76940  Biso   1.000  C
  C137     1.0000 0.55780  0.67010  0.76940  Biso   1.000  C
  C138     1.0000 0.32990  0.88770  0.76940  Biso   1.000  C
  C139     1.0000 0.77897  0.77553  0.10273  Biso   1.000  C
  C140     1.0000 0.22447  0.00343  0.10273  Biso   1.000  C
  C141     1.0000 0.99657  0.22103  0.10273  Biso   1.000  C
  C142     1.0000 0.44563  0.10887  0.43607  Biso   1.000  C
  C143     1.0000 0.89113  0.33677  0.43607  Biso   1.000  C
  C144     1.0000 0.66323  0.55437  0.43607  Biso   1.000  C
  H136     1.0000 0.09200  0.46200  0.72760  Biso   1.000  H
  H137     1.0000 0.53800  0.63000  0.72760  Biso   1.000  H
  H138     1.0000 0.37000  0.90800  0.72760  Biso   1.000  H
  H139     1.0000 0.75867  0.79533  0.06093  Biso   1.000  H
  H140     1.0000 0.20467  0.96333  0.06093  Biso   1.000  H
  H141     1.0000 0.03667  0.24133  0.06093  Biso   1.000  H
  H142     1.0000 0.42533  0.12867  0.39427  Biso   1.000  H
  H143     1.0000 0.87133  0.29667  0.39427  Biso   1.000  H
  H144     1.0000 0.70333  0.57467  0.39427  Biso   1.000  H
  H145     1.0000 0.14920  0.45160  0.72070  Biso   1.000  H
  H146     1.0000 0.54840  0.69760  0.72070  Biso   1.000  H
  H147     1.0000 0.30240  0.85080  0.72070  Biso   1.000  H
  H148     1.0000 0.81587  0.78493  0.05403  Biso   1.000  H
  H149     1.0000 0.21507  0.03093  0.05403  Biso   1.000  H
  H150     1.0000 0.96907  0.18413  0.05403  Biso   1.000  H
  H151     1.0000 0.48253  0.11827  0.38737  Biso   1.000  H
  H152     1.0000 0.88173  0.36427  0.38737  Biso   1.000  H
  H153     1.0000 0.63573  0.51747  0.38737  Biso   1.000  H
  C145     1.0000 0.13040  0.46690  0.90240  Biso   1.000  C
  C146     1.0000 0.53310  0.66350  0.90240  Biso   1.000  C
  C147     1.0000 0.33650  0.86960  0.90240  Biso   1.000  C
  C148     1.0000 0.79707  0.80023  0.23573  Biso   1.000  C
  C149     1.0000 0.19977  0.99683  0.23573  Biso   1.000  C
  C150     1.0000 0.00317  0.20293  0.23573  Biso   1.000  C
  C151     1.0000 0.46373  0.13357  0.56907  Biso   1.000  C
  C152     1.0000 0.86643  0.33017  0.56907  Biso   1.000  C
  C153     1.0000 0.66983  0.53627  0.56907  Biso   1.000  C
  H154     1.0000 0.09510  0.46570  0.94450  Biso   1.000  H
  H155     1.0000 0.53430  0.62940  0.94450  Biso   1.000  H
  H156     1.0000 0.37060  0.90490  0.94450  Biso   1.000  H
  H157     1.0000 0.76177  0.79903  0.27783  Biso   1.000  H
  H158     1.0000 0.20097  0.96273  0.27783  Biso   1.000  H
  H159     1.0000 0.03727  0.23823  0.27783  Biso   1.000  H
  H160     1.0000 0.42843  0.13237  0.61117  Biso   1.000  H
  H161     1.0000 0.86763  0.29607  0.61117  Biso   1.000  H
  H162     1.0000 0.70393  0.57157  0.61117  Biso   1.000  H
  H163     1.0000 0.14150  0.44040  0.95010  Biso   1.000  H
  H164     1.0000 0.55960  0.70110  0.95010  Biso   1.000  H
  H165     1.0000 0.29890  0.85850  0.95010  Biso   1.000  H
  H166     1.0000 0.80817  0.77373  0.28343  Biso   1.000  H
  H167     1.0000 0.22627  0.03443  0.28343  Biso   1.000  H
  H168     1.0000 0.96557  0.19183  0.28343  Biso   1.000  H
  H169     1.0000 0.47483  0.10707  0.61677  Biso   1.000  H
  H170     1.0000 0.89293  0.36777  0.61677  Biso   1.000  H
  H171     1.0000 0.63223  0.52517  0.61677  Biso   1.000  H
  C154     1.0000 0.23640  0.54050  0.86990  Biso   1.000  C
  C155     1.0000 0.45950  0.69590  0.86990  Biso   1.000  C
  C156     1.0000 0.30410  0.76360  0.86990  Biso   1.000  C
  C157     1.0000 0.90307  0.87383  0.20323  Biso   1.000  C
  C158     1.0000 0.12617  0.02923  0.20323  Biso   1.000  C
  C159     1.0000 0.97077  0.09693  0.20323  Biso   1.000  C
  C160     1.0000 0.56973  0.20717  0.53657  Biso   1.000  C
  C161     1.0000 0.79283  0.36257  0.53657  Biso   1.000  C
  C162     1.0000 0.63743  0.43027  0.53657  Biso   1.000  C
  C163     1.0000 0.28610  0.60630  0.87520  Biso   1.000  C
  C164     1.0000 0.39370  0.67980  0.87520  Biso   1.000  C
  C165     1.0000 0.32020  0.71390  0.87520  Biso   1.000  C
  C166     1.0000 0.95277  0.93963  0.20853  Biso   1.000  C
  C167     1.0000 0.06037  0.01313  0.20853  Biso   1.000  C
  C168     1.0000 0.98687  0.04723  0.20853  Biso   1.000  C
  C169     1.0000 0.61943  0.27297  0.54187  Biso   1.000  C
  C170     1.0000 0.72703  0.34647  0.54187  Biso   1.000  C
  C171     1.0000 0.65353  0.38057  0.54187  Biso   1.000  C
  C172     1.0000 0.27330  0.65380  0.87370  Biso   1.000  C
  C173     1.0000 0.34620  0.61950  0.87370  Biso   1.000  C
  C174     1.0000 0.38050  0.72670  0.87370  Biso   1.000  C
  C175     1.0000 0.93997  0.98713  0.20703  Biso   1.000  C
  C176     1.0000 0.01287  0.95283  0.20703  Biso   1.000  C
  C177     1.0000 0.04717  0.06003  0.20703  Biso   1.000  C
  C178     1.0000 0.60663  0.32047  0.54037  Biso   1.000  C
  C179     1.0000 0.67953  0.28617  0.54037  Biso   1.000  C
  C180     1.0000 0.71383  0.39337  0.54037  Biso   1.000  C
  H172     1.0000 0.23230  0.64490  0.87180  Biso   1.000  H
  H173     1.0000 0.35510  0.58740  0.87180  Biso   1.000  H
  H174     1.0000 0.41260  0.76770  0.87180  Biso   1.000  H
  H175     1.0000 0.89897  0.97823  0.20513  Biso   1.000  H
  H176     1.0000 0.02177  0.92073  0.20513  Biso   1.000  H
  H177     1.0000 0.07927  0.10103  0.20513  Biso   1.000  H
  H178     1.0000 0.56563  0.31157  0.53847  Biso   1.000  H
  H179     1.0000 0.68843  0.25407  0.53847  Biso   1.000  H
  H180     1.0000 0.74593  0.43437  0.53847  Biso   1.000  H
  O19      1.0000 0.19180  0.71450  0.16010  Biso   1.000  O
  O20      1.0000 0.28550  0.47730  0.16010  Biso   1.000  O
  O21      1.0000 0.52270  0.80820  0.16010  Biso   1.000  O
  O22      1.0000 0.85847  0.04783  0.49343  Biso   1.000  O
  O23      1.0000 0.95217  0.81063  0.49343  Biso   1.000  O
  O24      1.0000 0.18937  0.14153  0.49343  Biso   1.000  O
  O25      1.0000 0.52513  0.38117  0.82677  Biso   1.000  O
  O26      1.0000 0.61883  0.14397  0.82677  Biso   1.000  O
  O27      1.0000 0.85603  0.47487  0.82677  Biso   1.000  O
  H181     1.0000 0.19580  0.68850  0.11900  Biso   1.000  H
  H182     1.0000 0.31150  0.50730  0.11900  Biso   1.000  H
  H183     1.0000 0.49270  0.80420  0.11900  Biso   1.000  H
  H184     1.0000 0.86247  0.02183  0.45233  Biso   1.000  H
  H185     1.0000 0.97817  0.84063  0.45233  Biso   1.000  H
  H186     1.0000 0.15937  0.13753  0.45233  Biso   1.000  H
  H187     1.0000 0.52913  0.35517  0.78567  Biso   1.000  H
  H188     1.0000 0.64483  0.17397  0.78567  Biso   1.000  H
  H189     1.0000 0.82603  0.47087  0.78567  Biso   1.000  H
  C181     1.0000 0.23200  0.73540  0.25260  Biso   1.000  C
  C182     1.0000 0.26460  0.49660  0.25260  Biso   1.000  C
  C183     1.0000 0.50340  0.76800  0.25260  Biso   1.000  C
  C184     1.0000 0.89867  0.06873  0.58593  Biso   1.000  C
  C185     1.0000 0.93127  0.82993  0.58593  Biso   1.000  C
  C186     1.0000 0.17007  0.10133  0.58593  Biso   1.000  C
  C187     1.0000 0.56533  0.40207  0.91927  Biso   1.000  C
  C188     1.0000 0.59793  0.16327  0.91927  Biso   1.000  C
  C189     1.0000 0.83673  0.43467  0.91927  Biso   1.000  C
  H190     1.0000 0.22310  0.70080  0.30850  Biso   1.000  H
  H191     1.0000 0.29920  0.52230  0.30850  Biso   1.000  H
  H192     1.0000 0.47770  0.77690  0.30850  Biso   1.000  H
  H193     1.0000 0.88977  0.03413  0.64183  Biso   1.000  H
  H194     1.0000 0.96587  0.85563  0.64183  Biso   1.000  H
  H195     1.0000 0.14437  0.11023  0.64183  Biso   1.000  H
  H196     1.0000 0.55643  0.36747  0.97517  Biso   1.000  H
  H197     1.0000 0.63253  0.18897  0.97517  Biso   1.000  H
  H198     1.0000 0.81103  0.44357  0.97517  Biso   1.000  H
  H199     1.0000 0.22510  0.76450  0.30170  Biso   1.000  H
  H200     1.0000 0.23550  0.46060  0.30170  Biso   1.000  H
  H201     1.0000 0.53940  0.77490  0.30170  Biso   1.000  H
  H202     1.0000 0.89177  0.09783  0.63503  Biso   1.000  H
  H203     1.0000 0.90217  0.79393  0.63503  Biso   1.000  H
  H204     1.0000 0.20607  0.10823  0.63503  Biso   1.000  H
  H205     1.0000 0.55843  0.43117  0.96837  Biso   1.000  H
  H206     1.0000 0.56883  0.12727  0.96837  Biso   1.000  H
  H207     1.0000 0.87273  0.44157  0.96837  Biso   1.000  H
  C190     1.0000 0.29580  0.76510  0.22000  Biso   1.000  C
  C191     1.0000 0.23490  0.53070  0.22000  Biso   1.000  C
  C192     1.0000 0.46930  0.70420  0.22000  Biso   1.000  C
  C193     1.0000 0.96247  0.09843  0.55333  Biso   1.000  C
  C194     1.0000 0.90157  0.86403  0.55333  Biso   1.000  C
  C195     1.0000 0.13597  0.03753  0.55333  Biso   1.000  C
  C196     1.0000 0.62913  0.43177  0.88667  Biso   1.000  C
  C197     1.0000 0.56823  0.19737  0.88667  Biso   1.000  C
  C198     1.0000 0.80263  0.37087  0.88667  Biso   1.000  C
  H208     1.0000 0.30670  0.73440  0.19700  Biso   1.000  H
  H209     1.0000 0.26560  0.57230  0.19700  Biso   1.000  H
  H210     1.0000 0.42770  0.69330  0.19700  Biso   1.000  H
  H211     1.0000 0.97337  0.06773  0.53033  Biso   1.000  H
  H212     1.0000 0.93227  0.90563  0.53033  Biso   1.000  H
  H213     1.0000 0.09437  0.02663  0.53033  Biso   1.000  H
  H214     1.0000 0.64003  0.40107  0.86367  Biso   1.000  H
  H215     1.0000 0.59893  0.23897  0.86367  Biso   1.000  H
  H216     1.0000 0.76103  0.35997  0.86367  Biso   1.000  H
  H217     1.0000 0.32030  0.78850  0.29210  Biso   1.000  H
  H218     1.0000 0.21150  0.53180  0.29210  Biso   1.000  H
  H219     1.0000 0.46820  0.67970  0.29210  Biso   1.000  H
  H220     1.0000 0.98697  0.12183  0.62543  Biso   1.000  H
  H221     1.0000 0.87817  0.86513  0.62543  Biso   1.000  H
  H222     1.0000 0.13487  0.01303  0.62543  Biso   1.000  H
  H223     1.0000 0.65363  0.45517  0.95877  Biso   1.000  H
  H224     1.0000 0.54483  0.19847  0.95877  Biso   1.000  H
  H225     1.0000 0.80153  0.34637  0.95877  Biso   1.000  H
  H226     1.0000 0.30370  0.79260  0.14920  Biso   1.000  H
  H227     1.0000 0.20740  0.51110  0.14920  Biso   1.000  H
  H228     1.0000 0.48890  0.69630  0.14920  Biso   1.000  H
  H229     1.0000 0.97037  0.12593  0.48253  Biso   1.000  H
  H230     1.0000 0.87407  0.84443  0.48253  Biso   1.000  H
  H231     1.0000 0.15557  0.02963  0.48253  Biso   1.000  H
  H232     1.0000 0.63703  0.45927  0.81587  Biso   1.000  H
  H233     1.0000 0.54073  0.17777  0.81587  Biso   1.000  H
  H234     1.0000 0.82223  0.36297  0.81587  Biso   1.000  H
  C199     1.0000 0.10720  0.56620  0.14660  Biso   1.000  C
  C200     1.0000 0.43380  0.54100  0.14660  Biso   1.000  C
  C201     1.0000 0.45900  0.89280  0.14660  Biso   1.000  C
  C202     1.0000 0.77387  0.89953  0.47993  Biso   1.000  C
  C203     1.0000 0.10047  0.87433  0.47993  Biso   1.000  C
  C204     1.0000 0.12567  0.22613  0.47993  Biso   1.000  C
  C205     1.0000 0.44053  0.23287  0.81327  Biso   1.000  C
  C206     1.0000 0.76713  0.20767  0.81327  Biso   1.000  C
  C207     1.0000 0.79233  0.55947  0.81327  Biso   1.000  C
  H235     1.0000 0.12620  0.55060  0.20440  Biso   1.000  H
  H236     1.0000 0.44940  0.57560  0.20440  Biso   1.000  H
  H237     1.0000 0.42440  0.87380  0.20440  Biso   1.000  H
  H238     1.0000 0.79287  0.88393  0.53773  Biso   1.000  H
  H239     1.0000 0.11607  0.90893  0.53773  Biso   1.000  H
  H240     1.0000 0.09107  0.20713  0.53773  Biso   1.000  H
  H241     1.0000 0.45953  0.21727  0.87107  Biso   1.000  H
  H242     1.0000 0.78273  0.24227  0.87107  Biso   1.000  H
  H243     1.0000 0.75773  0.54047  0.87107  Biso   1.000  H
  H244     1.0000 0.07240  0.53200  0.10550  Biso   1.000  H
  H245     1.0000 0.46800  0.54040  0.10550  Biso   1.000  H
  H246     1.0000 0.45960  0.92760  0.10550  Biso   1.000  H
  H247     1.0000 0.73907  0.86533  0.43883  Biso   1.000  H
  H248     1.0000 0.13467  0.87373  0.43883  Biso   1.000  H
  H249     1.0000 0.12627  0.26093  0.43883  Biso   1.000  H
  H250     1.0000 0.40573  0.19867  0.77217  Biso   1.000  H
  H251     1.0000 0.80133  0.20707  0.77217  Biso   1.000  H
  H252     1.0000 0.79293  0.59427  0.77217  Biso   1.000  H
  H253     1.0000 0.09340  0.59030  0.19320  Biso   1.000  H
  H254     1.0000 0.40970  0.50310  0.19320  Biso   1.000  H
  H255     1.0000 0.49690  0.90660  0.19320  Biso   1.000  H
  H256     1.0000 0.76007  0.92363  0.52653  Biso   1.000  H
  H257     1.0000 0.07637  0.83643  0.52653  Biso   1.000  H
  H258     1.0000 0.16357  0.23993  0.52653  Biso   1.000  H
  H259     1.0000 0.42673  0.25697  0.85987  Biso   1.000  H
  H260     1.0000 0.74303  0.16977  0.85987  Biso   1.000  H
  H261     1.0000 0.83023  0.57327  0.85987  Biso   1.000  H
  O28      1.0000 0.15040  0.60340  0.05440  Biso   1.000  O
  O29      1.0000 0.39660  0.54700  0.05440  Biso   1.000  O
  O30      1.0000 0.45300  0.84960  0.05440  Biso   1.000  O
  O31      1.0000 0.81707  0.93673  0.38773  Biso   1.000  O
  O32      1.0000 0.06327  0.88033  0.38773  Biso   1.000  O
  O33      1.0000 0.11967  0.18293  0.38773  Biso   1.000  O
  O34      1.0000 0.48373  0.27007  0.72107  Biso   1.000  O
  O35      1.0000 0.72993  0.21367  0.72107  Biso   1.000  O
  O36      1.0000 0.78633  0.51627  0.72107  Biso   1.000  O
  H262     1.0000 0.13230  0.60910  0.99470  Biso   1.000  H
  H263     1.0000 0.39090  0.52320  0.99470  Biso   1.000  H
  H264     1.0000 0.47680  0.86770  0.99470  Biso   1.000  H
  H265     1.0000 0.79897  0.94243  0.32803  Biso   1.000  H
  H266     1.0000 0.05757  0.85653  0.32803  Biso   1.000  H
  H267     1.0000 0.14347  0.20103  0.32803  Biso   1.000  H
  H268     1.0000 0.46563  0.27577  0.66137  Biso   1.000  H
  H269     1.0000 0.72423  0.18987  0.66137  Biso   1.000  H
  H270     1.0000 0.81013  0.53437  0.66137  Biso   1.000  H
