data_image0
_cell_length_a       25.1719
_cell_length_b       25.1719
_cell_length_c       10.8188
_cell_angle_alpha    90
_cell_angle_beta     90
_cell_angle_gamma    120

_symmetry_space_group_name_H-M    "P 1"
_symmetry_int_tables_number       1

loop_
  _symmetry_equiv_pos_as_xyz
  'x, y, z'

loop_
  _atom_site_label
  _atom_site_occupancy
  _atom_site_fract_x
  _atom_site_fract_y
  _atom_site_fract_z
  _atom_site_thermal_displace_type
  _atom_site_B_iso_or_equiv
  _atom_site_type_symbol
  Cl1      1.0000 0.86790  0.71926  0.90270  Biso   1.000  Cl
  Cl2      1.0000 0.28074  0.14864  0.90270  Biso   1.000  Cl
  Cl3      1.0000 0.85136  0.13210  0.90270  Biso   1.000  Cl
  Cl4      1.0000 0.53457  0.05259  0.23603  Biso   1.000  Cl
  Cl5      1.0000 0.94741  0.48197  0.23603  Biso   1.000  Cl
  Cl6      1.0000 0.51803  0.46543  0.23603  Biso   1.000  Cl
  Cl7      1.0000 0.20123  0.38593  0.56937  Biso   1.000  Cl
  Cl8      1.0000 0.61407  0.81531  0.56937  Biso   1.000  Cl
  Cl9      1.0000 0.18469  0.79877  0.56937  Biso   1.000  Cl
  Cl10     1.0000 0.83486  0.68699  0.31522  Biso   1.000  Cl
  Cl11     1.0000 0.31301  0.14787  0.31522  Biso   1.000  Cl
  Cl12     1.0000 0.85213  0.16514  0.31522  Biso   1.000  Cl
  Cl13     1.0000 0.50153  0.02032  0.64855  Biso   1.000  Cl
  Cl14     1.0000 0.97968  0.48120  0.64855  Biso   1.000  Cl
  Cl15     1.0000 0.51880  0.49847  0.64855  Biso   1.000  Cl
  Cl16     1.0000 0.16819  0.35366  0.98189  Biso   1.000  Cl
  Cl17     1.0000 0.64634  0.81454  0.98189  Biso   1.000  Cl
  Cl18     1.0000 0.18546  0.83181  0.98189  Biso   1.000  Cl
  Cu1      1.0000 0.84870  0.69938  0.10667  Biso   1.000  Cu
  Cu2      1.0000 0.30062  0.14932  0.10667  Biso   1.000  Cu
  Cu3      1.0000 0.85068  0.15130  0.10667  Biso   1.000  Cu
  Cu4      1.0000 0.51537  0.03271  0.44000  Biso   1.000  Cu
  Cu5      1.0000 0.96729  0.48265  0.44000  Biso   1.000  Cu
  Cu6      1.0000 0.51735  0.48463  0.44000  Biso   1.000  Cu
  Cu7      1.0000 0.18203  0.36605  0.77334  Biso   1.000  Cu
  Cu8      1.0000 0.63395  0.81599  0.77334  Biso   1.000  Cu
  Cu9      1.0000 0.18401  0.81797  0.77334  Biso   1.000  Cu
  N1       1.0000 0.92700  0.69780  0.12680  Biso   1.000  N
  N2       1.0000 0.30220  0.22920  0.12680  Biso   1.000  N
  N3       1.0000 0.77080  0.07300  0.12680  Biso   1.000  N
  N4       1.0000 0.59367  0.03113  0.46013  Biso   1.000  N
  N5       1.0000 0.96887  0.56253  0.46013  Biso   1.000  N
  N6       1.0000 0.43747  0.40633  0.46013  Biso   1.000  N
  N7       1.0000 0.26033  0.36447  0.79347  Biso   1.000  N
  N8       1.0000 0.63553  0.89587  0.79347  Biso   1.000  N
  N9       1.0000 0.10413  0.73967  0.79347  Biso   1.000  N
  N10      1.0000 0.81020  0.48730  0.19730  Biso   1.000  N
  N11      1.0000 0.51270  0.32290  0.19730  Biso   1.000  N
  N12      1.0000 0.67710  0.18980  0.19730  Biso   1.000  N
  N13      1.0000 0.47687  0.82063  0.53063  Biso   1.000  N
  N14      1.0000 0.17937  0.65623  0.53063  Biso   1.000  N
  N15      1.0000 0.34377  0.52313  0.53063  Biso   1.000  N
  N16      1.0000 0.14353  0.15397  0.86397  Biso   1.000  N
  N17      1.0000 0.84603  0.98957  0.86397  Biso   1.000  N
  N18      1.0000 0.01043  0.85647  0.86397  Biso   1.000  N
  H1       1.0000 0.82320  0.46100  0.20710  Biso   1.000  H
  H2       1.0000 0.53900  0.36220  0.20710  Biso   1.000  H
  H3       1.0000 0.63780  0.17680  0.20710  Biso   1.000  H
  H4       1.0000 0.48987  0.79433  0.54043  Biso   1.000  H
  H5       1.0000 0.20567  0.69553  0.54043  Biso   1.000  H
  H6       1.0000 0.30447  0.51013  0.54043  Biso   1.000  H
  H7       1.0000 0.15653  0.12767  0.87377  Biso   1.000  H
  H8       1.0000 0.87233  0.02887  0.87377  Biso   1.000  H
  H9       1.0000 0.97113  0.84347  0.87377  Biso   1.000  H
  N19      1.0000 0.76010  0.67330  0.08530  Biso   1.000  N
  N20      1.0000 0.32670  0.08680  0.08530  Biso   1.000  N
  N21      1.0000 0.91320  0.23990  0.08530  Biso   1.000  N
  N22      1.0000 0.42677  0.00663  0.41863  Biso   1.000  N
  N23      1.0000 0.99337  0.42013  0.41863  Biso   1.000  N
  N24      1.0000 0.57987  0.57323  0.41863  Biso   1.000  N
  N25      1.0000 0.09343  0.33997  0.75197  Biso   1.000  N
  N26      1.0000 0.66003  0.75347  0.75197  Biso   1.000  N
  N27      1.0000 0.24653  0.90657  0.75197  Biso   1.000  N
  N28      1.0000 0.84510  0.86230  0.19710  Biso   1.000  N
  N29      1.0000 0.13770  0.98280  0.19710  Biso   1.000  N
  N30      1.0000 0.01720  0.15490  0.19710  Biso   1.000  N
  N31      1.0000 0.51177  0.19563  0.53043  Biso   1.000  N
  N32      1.0000 0.80437  0.31613  0.53043  Biso   1.000  N
  N33      1.0000 0.68387  0.48823  0.53043  Biso   1.000  N
  N34      1.0000 0.17843  0.52897  0.86377  Biso   1.000  N
  N35      1.0000 0.47103  0.64947  0.86377  Biso   1.000  N
  N36      1.0000 0.35053  0.82157  0.86377  Biso   1.000  N
  H10      1.0000 0.83920  0.89250  0.22030  Biso   1.000  H
  H11      1.0000 0.10750  0.94670  0.22030  Biso   1.000  H
  H12      1.0000 0.05330  0.16080  0.22030  Biso   1.000  H
  H13      1.0000 0.50587  0.22583  0.55363  Biso   1.000  H
  H14      1.0000 0.77417  0.28003  0.55363  Biso   1.000  H
  H15      1.0000 0.71997  0.49413  0.55363  Biso   1.000  H
  H16      1.0000 0.17253  0.55917  0.88697  Biso   1.000  H
  H17      1.0000 0.44083  0.61337  0.88697  Biso   1.000  H
  H18      1.0000 0.38663  0.82747  0.88697  Biso   1.000  H
  O1       1.0000 0.72980  0.49864  0.15080  Biso   1.000  O
  O2       1.0000 0.50136  0.23116  0.15080  Biso   1.000  O
  O3       1.0000 0.76884  0.27020  0.15080  Biso   1.000  O
  O4       1.0000 0.39647  0.83197  0.48413  Biso   1.000  O
  O5       1.0000 0.16803  0.56449  0.48413  Biso   1.000  O
  O6       1.0000 0.43551  0.60353  0.48413  Biso   1.000  O
  O7       1.0000 0.06313  0.16531  0.81747  Biso   1.000  O
  O8       1.0000 0.83469  0.89783  0.81747  Biso   1.000  O
  O9       1.0000 0.10217  0.93687  0.81747  Biso   1.000  O
  O10      1.0000 0.91251  0.83214  0.12950  Biso   1.000  O
  O11      1.0000 0.16786  0.08037  0.12950  Biso   1.000  O
  O12      1.0000 0.91963  0.08749  0.12950  Biso   1.000  O
  O13      1.0000 0.57918  0.16547  0.46283  Biso   1.000  O
  O14      1.0000 0.83453  0.41370  0.46283  Biso   1.000  O
  O15      1.0000 0.58630  0.42082  0.46283  Biso   1.000  O
  O16      1.0000 0.24584  0.49881  0.79617  Biso   1.000  O
  O17      1.0000 0.50119  0.74704  0.79617  Biso   1.000  O
  O18      1.0000 0.25296  0.75416  0.79617  Biso   1.000  O
  C1       1.0000 0.97630  0.75070  0.15690  Biso   1.000  C
  C2       1.0000 0.24930  0.22560  0.15690  Biso   1.000  C
  C3       1.0000 0.77440  0.02370  0.15690  Biso   1.000  C
  C4       1.0000 0.64297  0.08403  0.49023  Biso   1.000  C
  C5       1.0000 0.91597  0.55893  0.49023  Biso   1.000  C
  C6       1.0000 0.44107  0.35703  0.49023  Biso   1.000  C
  C7       1.0000 0.30963  0.41737  0.82357  Biso   1.000  C
  C8       1.0000 0.58263  0.89227  0.82357  Biso   1.000  C
  C9       1.0000 0.10773  0.69037  0.82357  Biso   1.000  C
  H19      1.0000 0.97280  0.78600  0.17220  Biso   1.000  H
  H20      1.0000 0.21400  0.18680  0.17220  Biso   1.000  H
  H21      1.0000 0.81320  0.02720  0.17220  Biso   1.000  H
  H22      1.0000 0.63947  0.11933  0.50553  Biso   1.000  H
  H23      1.0000 0.88067  0.52013  0.50553  Biso   1.000  H
  H24      1.0000 0.47987  0.36053  0.50553  Biso   1.000  H
  H25      1.0000 0.30613  0.45267  0.83887  Biso   1.000  H
  H26      1.0000 0.54733  0.85347  0.83887  Biso   1.000  H
  H27      1.0000 0.14653  0.69387  0.83887  Biso   1.000  H
  C10      1.0000 0.03440  0.75420  0.16630  Biso   1.000  C
  C11      1.0000 0.24580  0.28020  0.16630  Biso   1.000  C
  C12      1.0000 0.71980  0.96560  0.16630  Biso   1.000  C
  C13      1.0000 0.70107  0.08753  0.49963  Biso   1.000  C
  C14      1.0000 0.91247  0.61353  0.49963  Biso   1.000  C
  C15      1.0000 0.38647  0.29893  0.49963  Biso   1.000  C
  C16      1.0000 0.36773  0.42087  0.83297  Biso   1.000  C
  C17      1.0000 0.57913  0.94687  0.83297  Biso   1.000  C
  C18      1.0000 0.05313  0.63227  0.83297  Biso   1.000  C
  H28      1.0000 0.06970  0.79240  0.18550  Biso   1.000  H
  H29      1.0000 0.20760  0.27730  0.18550  Biso   1.000  H
  H30      1.0000 0.72270  0.93030  0.18550  Biso   1.000  H
  H31      1.0000 0.73637  0.12573  0.51883  Biso   1.000  H
  H32      1.0000 0.87427  0.61063  0.51883  Biso   1.000  H
  H33      1.0000 0.38937  0.26363  0.51883  Biso   1.000  H
  H34      1.0000 0.40303  0.45907  0.85217  Biso   1.000  H
  H35      1.0000 0.54093  0.94397  0.85217  Biso   1.000  H
  H36      1.0000 0.05603  0.59697  0.85217  Biso   1.000  H
  C19      1.0000 0.04000  0.70470  0.14840  Biso   1.000  C
  C20      1.0000 0.29530  0.33530  0.14840  Biso   1.000  C
  C21      1.0000 0.66470  0.96000  0.14840  Biso   1.000  C
  C22      1.0000 0.70667  0.03803  0.48173  Biso   1.000  C
  C23      1.0000 0.96197  0.66863  0.48173  Biso   1.000  C
  C24      1.0000 0.33137  0.29333  0.48173  Biso   1.000  C
  C25      1.0000 0.37333  0.37137  0.81507  Biso   1.000  C
  C26      1.0000 0.62863  0.00197  0.81507  Biso   1.000  C
  C27      1.0000 0.99803  0.62667  0.81507  Biso   1.000  C
  H37      1.0000 0.07900  0.70740  0.15380  Biso   1.000  H
  H38      1.0000 0.29260  0.37160  0.15380  Biso   1.000  H
  H39      1.0000 0.62840  0.92100  0.15380  Biso   1.000  H
  H40      1.0000 0.74567  0.04073  0.48713  Biso   1.000  H
  H41      1.0000 0.95927  0.70493  0.48713  Biso   1.000  H
  H42      1.0000 0.29507  0.25433  0.48713  Biso   1.000  H
  H43      1.0000 0.41233  0.37407  0.82047  Biso   1.000  H
  H44      1.0000 0.62593  0.03827  0.82047  Biso   1.000  H
  H45      1.0000 0.96173  0.58767  0.82047  Biso   1.000  H
  C28      1.0000 0.98850  0.65000  0.12230  Biso   1.000  C
  C29      1.0000 0.35000  0.33850  0.12230  Biso   1.000  C
  C30      1.0000 0.66150  0.01150  0.12230  Biso   1.000  C
  C31      1.0000 0.65517  0.98333  0.45563  Biso   1.000  C
  C32      1.0000 0.01667  0.67183  0.45563  Biso   1.000  C
  C33      1.0000 0.32817  0.34483  0.45563  Biso   1.000  C
  C34      1.0000 0.32183  0.31667  0.78897  Biso   1.000  C
  C35      1.0000 0.68333  0.00517  0.78897  Biso   1.000  C
  C36      1.0000 0.99483  0.67817  0.78897  Biso   1.000  C
  H46      1.0000 0.99120  0.61400  0.11120  Biso   1.000  H
  H47      1.0000 0.38600  0.37720  0.11120  Biso   1.000  H
  H48      1.0000 0.62280  0.00880  0.11120  Biso   1.000  H
  H49      1.0000 0.65787  0.94733  0.44453  Biso   1.000  H
  H50      1.0000 0.05267  0.71053  0.44453  Biso   1.000  H
  H51      1.0000 0.28947  0.34213  0.44453  Biso   1.000  H
  H52      1.0000 0.32453  0.28067  0.77787  Biso   1.000  H
  H53      1.0000 0.71933  0.04387  0.77787  Biso   1.000  H
  H54      1.0000 0.95613  0.67547  0.77787  Biso   1.000  H
  C37      1.0000 0.93120  0.64720  0.11180  Biso   1.000  C
  C38      1.0000 0.35280  0.28400  0.11180  Biso   1.000  C
  C39      1.0000 0.71600  0.06880  0.11180  Biso   1.000  C
  C40      1.0000 0.59787  0.98053  0.44513  Biso   1.000  C
  C41      1.0000 0.01947  0.61733  0.44513  Biso   1.000  C
  C42      1.0000 0.38267  0.40213  0.44513  Biso   1.000  C
  C43      1.0000 0.26453  0.31387  0.77847  Biso   1.000  C
  C44      1.0000 0.68613  0.95067  0.77847  Biso   1.000  C
  C45      1.0000 0.04933  0.73547  0.77847  Biso   1.000  C
  C46      1.0000 0.87650  0.58790  0.09010  Biso   1.000  C
  C47      1.0000 0.41210  0.28860  0.09010  Biso   1.000  C
  C48      1.0000 0.71140  0.12350  0.09010  Biso   1.000  C
  C49      1.0000 0.54317  0.92123  0.42343  Biso   1.000  C
  C50      1.0000 0.07877  0.62193  0.42343  Biso   1.000  C
  C51      1.0000 0.37807  0.45683  0.42343  Biso   1.000  C
  C52      1.0000 0.20983  0.25457  0.75677  Biso   1.000  C
  C53      1.0000 0.74543  0.95527  0.75677  Biso   1.000  C
  C54      1.0000 0.04473  0.79017  0.75677  Biso   1.000  C
  H55      1.0000 0.88600  0.56430  0.02970  Biso   1.000  H
  H56      1.0000 0.43570  0.32170  0.02970  Biso   1.000  H
  H57      1.0000 0.67830  0.11400  0.02970  Biso   1.000  H
  H58      1.0000 0.55267  0.89763  0.36303  Biso   1.000  H
  H59      1.0000 0.10237  0.65503  0.36303  Biso   1.000  H
  H60      1.0000 0.34497  0.44733  0.36303  Biso   1.000  H
  H61      1.0000 0.21933  0.23097  0.69637  Biso   1.000  H
  H62      1.0000 0.76903  0.98837  0.69637  Biso   1.000  H
  H63      1.0000 0.01163  0.78067  0.69637  Biso   1.000  H
  H64      1.0000 0.84390  0.59420  0.05450  Biso   1.000  H
  H65      1.0000 0.40580  0.24970  0.05450  Biso   1.000  H
  H66      1.0000 0.75030  0.15610  0.05450  Biso   1.000  H
  H67      1.0000 0.51057  0.92753  0.38783  Biso   1.000  H
  H68      1.0000 0.07247  0.58303  0.38783  Biso   1.000  H
  H69      1.0000 0.41697  0.48943  0.38783  Biso   1.000  H
  H70      1.0000 0.17723  0.26087  0.72117  Biso   1.000  H
  H71      1.0000 0.73913  0.91637  0.72117  Biso   1.000  H
  H72      1.0000 0.08363  0.82277  0.72117  Biso   1.000  H
  C55      1.0000 0.85350  0.55140  0.21000  Biso   1.000  C
  C56      1.0000 0.44860  0.30210  0.21000  Biso   1.000  C
  C57      1.0000 0.69790  0.14650  0.21000  Biso   1.000  C
  C58      1.0000 0.52017  0.88473  0.54333  Biso   1.000  C
  C59      1.0000 0.11527  0.63543  0.54333  Biso   1.000  C
  C60      1.0000 0.36457  0.47983  0.54333  Biso   1.000  C
  C61      1.0000 0.18683  0.21807  0.87667  Biso   1.000  C
  C62      1.0000 0.78193  0.96877  0.87667  Biso   1.000  C
  C63      1.0000 0.03123  0.81317  0.87667  Biso   1.000  C
  H73      1.0000 0.88950  0.55580  0.25630  Biso   1.000  H
  H74      1.0000 0.44420  0.33370  0.25630  Biso   1.000  H
  H75      1.0000 0.66630  0.11050  0.25630  Biso   1.000  H
  H76      1.0000 0.55617  0.88913  0.58963  Biso   1.000  H
  H77      1.0000 0.11087  0.66703  0.58963  Biso   1.000  H
  H78      1.0000 0.33297  0.44383  0.58963  Biso   1.000  H
  H79      1.0000 0.22283  0.22247  0.92297  Biso   1.000  H
  H80      1.0000 0.77753  0.00037  0.92297  Biso   1.000  H
  H81      1.0000 0.99963  0.77717  0.92297  Biso   1.000  H
  H82      1.0000 0.83460  0.57020  0.26080  Biso   1.000  H
  H83      1.0000 0.42980  0.26440  0.26080  Biso   1.000  H
  H84      1.0000 0.73560  0.16540  0.26080  Biso   1.000  H
  H85      1.0000 0.50127  0.90353  0.59413  Biso   1.000  H
  H86      1.0000 0.09647  0.59773  0.59413  Biso   1.000  H
  H87      1.0000 0.40227  0.49873  0.59413  Biso   1.000  H
  H88      1.0000 0.16793  0.23687  0.92747  Biso   1.000  H
  H89      1.0000 0.76313  0.93107  0.92747  Biso   1.000  H
  H90      1.0000 0.06893  0.83207  0.92747  Biso   1.000  H
  C64      1.0000 0.75090  0.46540  0.17140  Biso   1.000  C
  C65      1.0000 0.53460  0.28550  0.17140  Biso   1.000  C
  C66      1.0000 0.71450  0.24910  0.17140  Biso   1.000  C
  C67      1.0000 0.41757  0.79873  0.50473  Biso   1.000  C
  C68      1.0000 0.20127  0.61883  0.50473  Biso   1.000  C
  C69      1.0000 0.38117  0.58243  0.50473  Biso   1.000  C
  C70      1.0000 0.08423  0.13207  0.83807  Biso   1.000  C
  C71      1.0000 0.86793  0.95217  0.83807  Biso   1.000  C
  C72      1.0000 0.04783  0.91577  0.83807  Biso   1.000  C
  C73      1.0000 0.70880  0.39610  0.17320  Biso   1.000  C
  C74      1.0000 0.60390  0.31270  0.17320  Biso   1.000  C
  C75      1.0000 0.68730  0.29120  0.17320  Biso   1.000  C
  C76      1.0000 0.37547  0.72943  0.50653  Biso   1.000  C
  C77      1.0000 0.27057  0.64603  0.50653  Biso   1.000  C
  C78      1.0000 0.35397  0.62453  0.50653  Biso   1.000  C
  C79      1.0000 0.04213  0.06277  0.83987  Biso   1.000  C
  C80      1.0000 0.93723  0.97937  0.83987  Biso   1.000  C
  C81      1.0000 0.02063  0.95787  0.83987  Biso   1.000  C
  C82      1.0000 0.72960  0.35450  0.17200  Biso   1.000  C
  C83      1.0000 0.64550  0.37510  0.17200  Biso   1.000  C
  C84      1.0000 0.62490  0.27040  0.17200  Biso   1.000  C
  C85      1.0000 0.39627  0.68783  0.50533  Biso   1.000  C
  C86      1.0000 0.31217  0.70843  0.50533  Biso   1.000  C
  C87      1.0000 0.29157  0.60373  0.50533  Biso   1.000  C
  C88      1.0000 0.06293  0.02117  0.83867  Biso   1.000  C
  C89      1.0000 0.97883  0.04177  0.83867  Biso   1.000  C
  C90      1.0000 0.95823  0.93707  0.83867  Biso   1.000  C
  H91      1.0000 0.77240  0.36870  0.17030  Biso   1.000  H
  H92      1.0000 0.63130  0.40370  0.17030  Biso   1.000  H
  H93      1.0000 0.59630  0.22760  0.17030  Biso   1.000  H
  H94      1.0000 0.43907  0.70203  0.50363  Biso   1.000  H
  H95      1.0000 0.29797  0.73703  0.50363  Biso   1.000  H
  H96      1.0000 0.26297  0.56093  0.50363  Biso   1.000  H
  H97      1.0000 0.10573  0.03537  0.83697  Biso   1.000  H
  H98      1.0000 0.96463  0.07037  0.83697  Biso   1.000  H
  H99      1.0000 0.92963  0.89427  0.83697  Biso   1.000  H
  C91      1.0000 0.72310  0.61320  0.09340  Biso   1.000  C
  C92      1.0000 0.38680  0.10990  0.09340  Biso   1.000  C
  C93      1.0000 0.89010  0.27690  0.09340  Biso   1.000  C
  C94      1.0000 0.38977  0.94653  0.42673  Biso   1.000  C
  C95      1.0000 0.05347  0.44323  0.42673  Biso   1.000  C
  C96      1.0000 0.55677  0.61023  0.42673  Biso   1.000  C
  C97      1.0000 0.05643  0.27987  0.76007  Biso   1.000  C
  C98      1.0000 0.72013  0.77657  0.76007  Biso   1.000  C
  C99      1.0000 0.22343  0.94357  0.76007  Biso   1.000  C
  H100     1.0000 0.74110  0.58820  0.10650  Biso   1.000  H
  H101     1.0000 0.41180  0.15290  0.10650  Biso   1.000  H
  H102     1.0000 0.84710  0.25890  0.10650  Biso   1.000  H
  H103     1.0000 0.40777  0.92153  0.43983  Biso   1.000  H
  H104     1.0000 0.07847  0.48623  0.43983  Biso   1.000  H
  H105     1.0000 0.51377  0.59223  0.43983  Biso   1.000  H
  H106     1.0000 0.07443  0.25487  0.77317  Biso   1.000  H
  H107     1.0000 0.74513  0.81957  0.77317  Biso   1.000  H
  H108     1.0000 0.18043  0.92557  0.77317  Biso   1.000  H
  C100     1.0000 0.65980  0.58450  0.08400  Biso   1.000  C
  C101     1.0000 0.41550  0.07530  0.08400  Biso   1.000  C
  C102     1.0000 0.92470  0.34020  0.08400  Biso   1.000  C
  C103     1.0000 0.32647  0.91783  0.41733  Biso   1.000  C
  C104     1.0000 0.08217  0.40863  0.41733  Biso   1.000  C
  C105     1.0000 0.59137  0.67353  0.41733  Biso   1.000  C
  C106     1.0000 0.99313  0.25117  0.75067  Biso   1.000  C
  C107     1.0000 0.74883  0.74197  0.75067  Biso   1.000  C
  C108     1.0000 0.25803  0.00687  0.75067  Biso   1.000  C
  H109     1.0000 0.63520  0.54120  0.09120  Biso   1.000  H
  H110     1.0000 0.45880  0.09400  0.09120  Biso   1.000  H
  H111     1.0000 0.90600  0.36480  0.09120  Biso   1.000  H
  H112     1.0000 0.30187  0.87453  0.42453  Biso   1.000  H
  H113     1.0000 0.12547  0.42733  0.42453  Biso   1.000  H
  H114     1.0000 0.57267  0.69813  0.42453  Biso   1.000  H
  H115     1.0000 0.96853  0.20787  0.75787  Biso   1.000  H
  H116     1.0000 0.79213  0.76067  0.75787  Biso   1.000  H
  H117     1.0000 0.23933  0.03147  0.75787  Biso   1.000  H
  C109     1.0000 0.63410  0.61940  0.06430  Biso   1.000  C
  C110     1.0000 0.38060  0.01470  0.06430  Biso   1.000  C
  C111     1.0000 0.98530  0.36590  0.06430  Biso   1.000  C
  C112     1.0000 0.30077  0.95273  0.39763  Biso   1.000  C
  C113     1.0000 0.04727  0.34803  0.39763  Biso   1.000  C
  C114     1.0000 0.65197  0.69923  0.39763  Biso   1.000  C
  C115     1.0000 0.96743  0.28607  0.73097  Biso   1.000  C
  C116     1.0000 0.71393  0.68137  0.73097  Biso   1.000  C
  C117     1.0000 0.31863  0.03257  0.73097  Biso   1.000  C
  H118     1.0000 0.59090  0.60080  0.05530  Biso   1.000  H
  H119     1.0000 0.39920  0.99010  0.05530  Biso   1.000  H
  H120     1.0000 0.00990  0.40910  0.05530  Biso   1.000  H
  H121     1.0000 0.25757  0.93413  0.38863  Biso   1.000  H
  H122     1.0000 0.06587  0.32343  0.38863  Biso   1.000  H
  H123     1.0000 0.67657  0.74243  0.38863  Biso   1.000  H
  H124     1.0000 0.92423  0.26747  0.72197  Biso   1.000  H
  H125     1.0000 0.73253  0.65677  0.72197  Biso   1.000  H
  H126     1.0000 0.34323  0.07577  0.72197  Biso   1.000  H
  C118     1.0000 0.67090  0.68260  0.05720  Biso   1.000  C
  C119     1.0000 0.31740  0.98830  0.05720  Biso   1.000  C
  C120     1.0000 0.01170  0.32910  0.05720  Biso   1.000  C
  C121     1.0000 0.33757  0.01593  0.39053  Biso   1.000  C
  C122     1.0000 0.98407  0.32163  0.39053  Biso   1.000  C
  C123     1.0000 0.67837  0.66243  0.39053  Biso   1.000  C
  C124     1.0000 0.00423  0.34927  0.72387  Biso   1.000  C
  C125     1.0000 0.65073  0.65497  0.72387  Biso   1.000  C
  C126     1.0000 0.34503  0.99577  0.72387  Biso   1.000  C
  H127     1.0000 0.65310  0.70790  0.04730  Biso   1.000  H
  H128     1.0000 0.29210  0.94520  0.04730  Biso   1.000  H
  H129     1.0000 0.05480  0.34690  0.04730  Biso   1.000  H
  H130     1.0000 0.31977  0.04123  0.38063  Biso   1.000  H
  H131     1.0000 0.95877  0.27853  0.38063  Biso   1.000  H
  H132     1.0000 0.72147  0.68023  0.38063  Biso   1.000  H
  H133     1.0000 0.98643  0.37457  0.71397  Biso   1.000  H
  H134     1.0000 0.62543  0.61187  0.71397  Biso   1.000  H
  H135     1.0000 0.38813  0.01357  0.71397  Biso   1.000  H
  C127     1.0000 0.73430  0.70850  0.06490  Biso   1.000  C
  C128     1.0000 0.29150  0.02580  0.06490  Biso   1.000  C
  C129     1.0000 0.97420  0.26570  0.06490  Biso   1.000  C
  C130     1.0000 0.40097  0.04183  0.39823  Biso   1.000  C
  C131     1.0000 0.95817  0.35913  0.39823  Biso   1.000  C
  C132     1.0000 0.64087  0.59903  0.39823  Biso   1.000  C
  C133     1.0000 0.06763  0.37517  0.73157  Biso   1.000  C
  C134     1.0000 0.62483  0.69247  0.73157  Biso   1.000  C
  C135     1.0000 0.30753  0.93237  0.73157  Biso   1.000  C
  C136     1.0000 0.77520  0.77550  0.06110  Biso   1.000  C
  C137     1.0000 0.22450  0.99970  0.06110  Biso   1.000  C
  C138     1.0000 0.00030  0.22480  0.06110  Biso   1.000  C
  C139     1.0000 0.44187  0.10883  0.39443  Biso   1.000  C
  C140     1.0000 0.89117  0.33303  0.39443  Biso   1.000  C
  C141     1.0000 0.66697  0.55813  0.39443  Biso   1.000  C
  C142     1.0000 0.10853  0.44217  0.72777  Biso   1.000  C
  C143     1.0000 0.55783  0.66637  0.72777  Biso   1.000  C
  C144     1.0000 0.33363  0.89147  0.72777  Biso   1.000  C
  H136     1.0000 0.75370  0.79510  0.02270  Biso   1.000  H
  H137     1.0000 0.20490  0.95860  0.02270  Biso   1.000  H
  H138     1.0000 0.04140  0.24630  0.02270  Biso   1.000  H
  H139     1.0000 0.42037  0.12843  0.35603  Biso   1.000  H
  H140     1.0000 0.87157  0.29193  0.35603  Biso   1.000  H
  H141     1.0000 0.70807  0.57963  0.35603  Biso   1.000  H
  H142     1.0000 0.08703  0.46177  0.68937  Biso   1.000  H
  H143     1.0000 0.53823  0.62527  0.68937  Biso   1.000  H
  H144     1.0000 0.37473  0.91297  0.68937  Biso   1.000  H
  H145     1.0000 0.81190  0.78560  0.01080  Biso   1.000  H
  H146     1.0000 0.21440  0.02630  0.01080  Biso   1.000  H
  H147     1.0000 0.97370  0.18810  0.01080  Biso   1.000  H
  H148     1.0000 0.47857  0.11893  0.34413  Biso   1.000  H
  H149     1.0000 0.88107  0.35963  0.34413  Biso   1.000  H
  H150     1.0000 0.64037  0.52143  0.34413  Biso   1.000  H
  H151     1.0000 0.14523  0.45227  0.67747  Biso   1.000  H
  H152     1.0000 0.54773  0.69297  0.67747  Biso   1.000  H
  H153     1.0000 0.30703  0.85477  0.67747  Biso   1.000  H
  C145     1.0000 0.79470  0.79960  0.19420  Biso   1.000  C
  C146     1.0000 0.20040  0.99510  0.19420  Biso   1.000  C
  C147     1.0000 0.00490  0.20530  0.19420  Biso   1.000  C
  C148     1.0000 0.46137  0.13293  0.52753  Biso   1.000  C
  C149     1.0000 0.86707  0.32843  0.52753  Biso   1.000  C
  C150     1.0000 0.67157  0.53863  0.52753  Biso   1.000  C
  C151     1.0000 0.12803  0.46627  0.86087  Biso   1.000  C
  C152     1.0000 0.53373  0.66177  0.86087  Biso   1.000  C
  C153     1.0000 0.33823  0.87197  0.86087  Biso   1.000  C
  H154     1.0000 0.75910  0.79730  0.23840  Biso   1.000  H
  H155     1.0000 0.20270  0.96180  0.23840  Biso   1.000  H
  H156     1.0000 0.03820  0.24090  0.23840  Biso   1.000  H
  H157     1.0000 0.42577  0.13063  0.57173  Biso   1.000  H
  H158     1.0000 0.86937  0.29513  0.57173  Biso   1.000  H
  H159     1.0000 0.70487  0.57423  0.57173  Biso   1.000  H
  H160     1.0000 0.09243  0.46397  0.90507  Biso   1.000  H
  H161     1.0000 0.53603  0.62847  0.90507  Biso   1.000  H
  H162     1.0000 0.37153  0.90757  0.90507  Biso   1.000  H
  H163     1.0000 0.80690  0.77300  0.23830  Biso   1.000  H
  H164     1.0000 0.22700  0.03390  0.23830  Biso   1.000  H
  H165     1.0000 0.96610  0.19310  0.23830  Biso   1.000  H
  H166     1.0000 0.47357  0.10633  0.57163  Biso   1.000  H
  H167     1.0000 0.89367  0.36723  0.57163  Biso   1.000  H
  H168     1.0000 0.63277  0.52643  0.57163  Biso   1.000  H
  H169     1.0000 0.14023  0.43967  0.90497  Biso   1.000  H
  H170     1.0000 0.56033  0.70057  0.90497  Biso   1.000  H
  H171     1.0000 0.29943  0.85977  0.90497  Biso   1.000  H
  C154     1.0000 0.90200  0.87350  0.16320  Biso   1.000  C
  C155     1.0000 0.12650  0.02850  0.16320  Biso   1.000  C
  C156     1.0000 0.97150  0.09800  0.16320  Biso   1.000  C
  C157     1.0000 0.56867  0.20683  0.49653  Biso   1.000  C
  C158     1.0000 0.79317  0.36183  0.49653  Biso   1.000  C
  C159     1.0000 0.63817  0.43133  0.49653  Biso   1.000  C
  C160     1.0000 0.23533  0.54017  0.82987  Biso   1.000  C
  C161     1.0000 0.45983  0.69517  0.82987  Biso   1.000  C
  C162     1.0000 0.30483  0.76467  0.82987  Biso   1.000  C
  C163     1.0000 0.95280  0.94010  0.16650  Biso   1.000  C
  C164     1.0000 0.05990  0.01270  0.16650  Biso   1.000  C
  C165     1.0000 0.98730  0.04720  0.16650  Biso   1.000  C
  C166     1.0000 0.61947  0.27343  0.49983  Biso   1.000  C
  C167     1.0000 0.72657  0.34603  0.49983  Biso   1.000  C
  C168     1.0000 0.65397  0.38053  0.49983  Biso   1.000  C
  C169     1.0000 0.28613  0.60677  0.83317  Biso   1.000  C
  C170     1.0000 0.39323  0.67937  0.83317  Biso   1.000  C
  C171     1.0000 0.32063  0.71387  0.83317  Biso   1.000  C
  C172     1.0000 0.94030  0.98830  0.16580  Biso   1.000  C
  C173     1.0000 0.01170  0.95200  0.16580  Biso   1.000  C
  C174     1.0000 0.04800  0.05970  0.16580  Biso   1.000  C
  C175     1.0000 0.60697  0.32163  0.49913  Biso   1.000  C
  C176     1.0000 0.67837  0.28533  0.49913  Biso   1.000  C
  C177     1.0000 0.71467  0.39303  0.49913  Biso   1.000  C
  C178     1.0000 0.27363  0.65497  0.83247  Biso   1.000  C
  C179     1.0000 0.34503  0.61867  0.83247  Biso   1.000  C
  C180     1.0000 0.38133  0.72637  0.83247  Biso   1.000  C
  H172     1.0000 0.89910  0.97990  0.16490  Biso   1.000  H
  H173     1.0000 0.02010  0.91920  0.16490  Biso   1.000  H
  H174     1.0000 0.08080  0.10090  0.16490  Biso   1.000  H
  H175     1.0000 0.56577  0.31323  0.49823  Biso   1.000  H
  H176     1.0000 0.68677  0.25253  0.49823  Biso   1.000  H
  H177     1.0000 0.74747  0.43423  0.49823  Biso   1.000  H
  H178     1.0000 0.23243  0.64657  0.83157  Biso   1.000  H
  H179     1.0000 0.35343  0.58587  0.83157  Biso   1.000  H
  H180     1.0000 0.41413  0.76757  0.83157  Biso   1.000  H
  O19      1.0000 0.81500  0.93860  0.34020  Biso   1.000  O
  O20      1.0000 0.06140  0.87640  0.34020  Biso   1.000  O
  O21      1.0000 0.12360  0.18500  0.34020  Biso   1.000  O
  O22      1.0000 0.48167  0.27193  0.67353  Biso   1.000  O
  O23      1.0000 0.72807  0.20973  0.67353  Biso   1.000  O
  O24      1.0000 0.79027  0.51833  0.67353  Biso   1.000  O
  O25      1.0000 0.14833  0.60527  0.00687  Biso   1.000  O
  O26      1.0000 0.39473  0.54307  0.00687  Biso   1.000  O
  O27      1.0000 0.45693  0.85167  0.00687  Biso   1.000  O
  H181     1.0000 0.83320  0.97560  0.36220  Biso   1.000  H
  H182     1.0000 0.02440  0.85760  0.36220  Biso   1.000  H
  H183     1.0000 0.14240  0.16680  0.36220  Biso   1.000  H
  H184     1.0000 0.49987  0.30893  0.69553  Biso   1.000  H
  H185     1.0000 0.69107  0.19093  0.69553  Biso   1.000  H
  H186     1.0000 0.80907  0.50013  0.69553  Biso   1.000  H
  H187     1.0000 0.16653  0.64227  0.02887  Biso   1.000  H
  H188     1.0000 0.35773  0.52427  0.02887  Biso   1.000  H
  H189     1.0000 0.47573  0.83347  0.02887  Biso   1.000  H
  C181     1.0000 0.76970  0.90450  0.42260  Biso   1.000  C
  C182     1.0000 0.09550  0.86520  0.42260  Biso   1.000  C
  C183     1.0000 0.13480  0.23030  0.42260  Biso   1.000  C
  C184     1.0000 0.43637  0.23783  0.75593  Biso   1.000  C
  C185     1.0000 0.76217  0.19853  0.75593  Biso   1.000  C
  C186     1.0000 0.80147  0.56363  0.75593  Biso   1.000  C
  C187     1.0000 0.10303  0.57117  0.08927  Biso   1.000  C
  C188     1.0000 0.42883  0.53187  0.08927  Biso   1.000  C
  C189     1.0000 0.46813  0.89697  0.08927  Biso   1.000  C
  H190     1.0000 0.73260  0.87400  0.37780  Biso   1.000  H
  H191     1.0000 0.12600  0.85860  0.37780  Biso   1.000  H
  H192     1.0000 0.14140  0.26740  0.37780  Biso   1.000  H
  H193     1.0000 0.39927  0.20733  0.71113  Biso   1.000  H
  H194     1.0000 0.79267  0.19193  0.71113  Biso   1.000  H
  H195     1.0000 0.80807  0.60073  0.71113  Biso   1.000  H
  H196     1.0000 0.06593  0.54067  0.04447  Biso   1.000  H
  H197     1.0000 0.45933  0.52527  0.04447  Biso   1.000  H
  H198     1.0000 0.47473  0.93407  0.04447  Biso   1.000  H
  H199     1.0000 0.75900  0.93150  0.47010  Biso   1.000  H
  H200     1.0000 0.06850  0.82750  0.47010  Biso   1.000  H
  H201     1.0000 0.17250  0.24100  0.47010  Biso   1.000  H
  H202     1.0000 0.42567  0.26483  0.80343  Biso   1.000  H
  H203     1.0000 0.73517  0.16083  0.80343  Biso   1.000  H
  H204     1.0000 0.83917  0.57433  0.80343  Biso   1.000  H
  H205     1.0000 0.09233  0.59817  0.13677  Biso   1.000  H
  H206     1.0000 0.40183  0.49417  0.13677  Biso   1.000  H
  H207     1.0000 0.50583  0.90767  0.13677  Biso   1.000  H
  O28      1.0000 0.94710  0.80500  0.44320  Biso   1.000  O
  O29      1.0000 0.19500  0.14210  0.44320  Biso   1.000  O
  O30      1.0000 0.85790  0.05290  0.44320  Biso   1.000  O
  O31      1.0000 0.61377  0.13833  0.77653  Biso   1.000  O
  O32      1.0000 0.86167  0.47543  0.77653  Biso   1.000  O
  O33      1.0000 0.52457  0.38623  0.77653  Biso   1.000  O
  O34      1.0000 0.28043  0.47167  0.10987  Biso   1.000  O
  O35      1.0000 0.52833  0.80877  0.10987  Biso   1.000  O
  O36      1.0000 0.19123  0.71957  0.10987  Biso   1.000  O
  H208     1.0000 0.93500  0.80820  0.37270  Biso   1.000  H
  H209     1.0000 0.19180  0.12680  0.37270  Biso   1.000  H
  H210     1.0000 0.87320  0.06500  0.37270  Biso   1.000  H
  H211     1.0000 0.60167  0.14153  0.70603  Biso   1.000  H
  H212     1.0000 0.85847  0.46013  0.70603  Biso   1.000  H
  H213     1.0000 0.53987  0.39833  0.70603  Biso   1.000  H
  H214     1.0000 0.26833  0.47487  0.03937  Biso   1.000  H
  H215     1.0000 0.52513  0.79347  0.03937  Biso   1.000  H
  H216     1.0000 0.20653  0.73167  0.03937  Biso   1.000  H
  C190     1.0000 0.79100  0.87170  0.51060  Biso   1.000  C
  C191     1.0000 0.12830  0.91930  0.51060  Biso   1.000  C
  C192     1.0000 0.08070  0.20900  0.51060  Biso   1.000  C
  C193     1.0000 0.45767  0.20503  0.84393  Biso   1.000  C
  C194     1.0000 0.79497  0.25263  0.84393  Biso   1.000  C
  C195     1.0000 0.74737  0.54233  0.84393  Biso   1.000  C
  C196     1.0000 0.12433  0.53837  0.17727  Biso   1.000  C
  C197     1.0000 0.46163  0.58597  0.17727  Biso   1.000  C
  C198     1.0000 0.41403  0.87567  0.17727  Biso   1.000  C
  H217     1.0000 0.75800  0.84670  0.56890  Biso   1.000  H
  H218     1.0000 0.15330  0.91130  0.56890  Biso   1.000  H
  H219     1.0000 0.08870  0.24200  0.56890  Biso   1.000  H
  H220     1.0000 0.42467  0.18003  0.90223  Biso   1.000  H
  H221     1.0000 0.81997  0.24463  0.90223  Biso   1.000  H
  H222     1.0000 0.75537  0.57533  0.90223  Biso   1.000  H
  H223     1.0000 0.09133  0.51337  0.23557  Biso   1.000  H
  H224     1.0000 0.48663  0.57797  0.23557  Biso   1.000  H
  H225     1.0000 0.42203  0.90867  0.23557  Biso   1.000  H
  H226     1.0000 0.82710  0.90210  0.55640  Biso   1.000  H
  H227     1.0000 0.09790  0.92500  0.55640  Biso   1.000  H
  H228     1.0000 0.07500  0.17290  0.55640  Biso   1.000  H
  H229     1.0000 0.49377  0.23543  0.88973  Biso   1.000  H
  H230     1.0000 0.76457  0.25833  0.88973  Biso   1.000  H
  H231     1.0000 0.74167  0.50623  0.88973  Biso   1.000  H
  H232     1.0000 0.16043  0.56877  0.22307  Biso   1.000  H
  H233     1.0000 0.43123  0.59167  0.22307  Biso   1.000  H
  H234     1.0000 0.40833  0.83957  0.22307  Biso   1.000  H
  H235     1.0000 0.80170  0.84520  0.46320  Biso   1.000  H
  H236     1.0000 0.15480  0.95650  0.46320  Biso   1.000  H
  H237     1.0000 0.04350  0.19830  0.46320  Biso   1.000  H
  H238     1.0000 0.46837  0.17853  0.79653  Biso   1.000  H
  H239     1.0000 0.82147  0.28983  0.79653  Biso   1.000  H
  H240     1.0000 0.71017  0.53163  0.79653  Biso   1.000  H
  H241     1.0000 0.13503  0.51187  0.12987  Biso   1.000  H
  H242     1.0000 0.48813  0.62317  0.12987  Biso   1.000  H
  H243     1.0000 0.37683  0.86497  0.12987  Biso   1.000  H
  C199     1.0000 0.91910  0.82280  0.53300  Biso   1.000  C
  C200     1.0000 0.17720  0.09630  0.53300  Biso   1.000  C
  C201     1.0000 0.90370  0.08090  0.53300  Biso   1.000  C
  C202     1.0000 0.58577  0.15613  0.86633  Biso   1.000  C
  C203     1.0000 0.84387  0.42963  0.86633  Biso   1.000  C
  C204     1.0000 0.57037  0.41423  0.86633  Biso   1.000  C
  C205     1.0000 0.25243  0.48947  0.19967  Biso   1.000  C
  C206     1.0000 0.51053  0.76297  0.19967  Biso   1.000  C
  C207     1.0000 0.23703  0.74757  0.19967  Biso   1.000  C
  H244     1.0000 0.93280  0.81720  0.61530  Biso   1.000  H
  H245     1.0000 0.18280  0.11560  0.61530  Biso   1.000  H
  H246     1.0000 0.88440  0.06720  0.61530  Biso   1.000  H
  H247     1.0000 0.59947  0.15053  0.94863  Biso   1.000  H
  H248     1.0000 0.84947  0.44893  0.94863  Biso   1.000  H
  H249     1.0000 0.55107  0.40053  0.94863  Biso   1.000  H
  H250     1.0000 0.26613  0.48387  0.28197  Biso   1.000  H
  H251     1.0000 0.51613  0.78227  0.28197  Biso   1.000  H
  H252     1.0000 0.21773  0.73387  0.28197  Biso   1.000  H
  H253     1.0000 0.87420  0.79460  0.52820  Biso   1.000  H
  H254     1.0000 0.20540  0.07960  0.52820  Biso   1.000  H
  H255     1.0000 0.92040  0.12580  0.52820  Biso   1.000  H
  H256     1.0000 0.54087  0.12793  0.86153  Biso   1.000  H
  H257     1.0000 0.87207  0.41293  0.86153  Biso   1.000  H
  H258     1.0000 0.58707  0.45913  0.86153  Biso   1.000  H
  H259     1.0000 0.20753  0.46127  0.19487  Biso   1.000  H
  H260     1.0000 0.53873  0.74627  0.19487  Biso   1.000  H
  H261     1.0000 0.25373  0.79247  0.19487  Biso   1.000  H
  C208     1.0000 0.93130  0.88840  0.52440  Biso   1.000  C
  C209     1.0000 0.11160  0.04290  0.52440  Biso   1.000  C
  C210     1.0000 0.95710  0.06870  0.52440  Biso   1.000  C
  C211     1.0000 0.59797  0.22173  0.85773  Biso   1.000  C
  C212     1.0000 0.77827  0.37623  0.85773  Biso   1.000  C
  C213     1.0000 0.62377  0.40203  0.85773  Biso   1.000  C
  C214     1.0000 0.26463  0.55507  0.19107  Biso   1.000  C
  C215     1.0000 0.44493  0.70957  0.19107  Biso   1.000  C
  C216     1.0000 0.29043  0.73537  0.19107  Biso   1.000  C
  H262     1.0000 0.91380  0.89750  0.59690  Biso   1.000  H
  H263     1.0000 0.10250  0.01630  0.59690  Biso   1.000  H
  H264     1.0000 0.98370  0.08620  0.59690  Biso   1.000  H
  H265     1.0000 0.58047  0.23083  0.93023  Biso   1.000  H
  H266     1.0000 0.76917  0.34963  0.93023  Biso   1.000  H
  H267     1.0000 0.65037  0.41953  0.93023  Biso   1.000  H
  H268     1.0000 0.24713  0.56417  0.26357  Biso   1.000  H
  H269     1.0000 0.43583  0.68297  0.26357  Biso   1.000  H
  H270     1.0000 0.31703  0.75287  0.26357  Biso   1.000  H
  H271     1.0000 0.91220  0.89300  0.44930  Biso   1.000  H
  H272     1.0000 0.10700  0.01920  0.44930  Biso   1.000  H
  H273     1.0000 0.98080  0.08780  0.44930  Biso   1.000  H
  H274     1.0000 0.57887  0.22633  0.78263  Biso   1.000  H
  H275     1.0000 0.77367  0.35253  0.78263  Biso   1.000  H
  H276     1.0000 0.64747  0.42113  0.78263  Biso   1.000  H
  H277     1.0000 0.24553  0.55967  0.11597  Biso   1.000  H
  H278     1.0000 0.44033  0.68587  0.11597  Biso   1.000  H
  H279     1.0000 0.31413  0.75447  0.11597  Biso   1.000  H
  H280     1.0000 0.97560  0.91690  0.52150  Biso   1.000  H
  H281     1.0000 0.08310  0.05870  0.52150  Biso   1.000  H
  H282     1.0000 0.94130  0.02440  0.52150  Biso   1.000  H
  H283     1.0000 0.64227  0.25023  0.85483  Biso   1.000  H
  H284     1.0000 0.74977  0.39203  0.85483  Biso   1.000  H
  H285     1.0000 0.60797  0.35773  0.85483  Biso   1.000  H
  H286     1.0000 0.30893  0.58357  0.18817  Biso   1.000  H
  H287     1.0000 0.41643  0.72537  0.18817  Biso   1.000  H
  H288     1.0000 0.27463  0.69107  0.18817  Biso   1.000  H
