data_image0
_cell_length_a       7.5069
_cell_length_b       12.8076
_cell_length_c       22.2479
_cell_angle_alpha    93.887
_cell_angle_beta     94.965
_cell_angle_gamma    92.39

_symmetry_space_group_name_H-M    "P 1"
_symmetry_int_tables_number       1

loop_
  _symmetry_equiv_pos_as_xyz
  'x, y, z'

loop_
  _atom_site_label
  _atom_site_occupancy
  _atom_site_fract_x
  _atom_site_fract_y
  _atom_site_fract_z
  _atom_site_thermal_displace_type
  _atom_site_B_iso_or_equiv
  _atom_site_type_symbol
  Cu1      1.0000 0.40667  0.70250  0.78060  Biso   1.000  Cu
  Cu2      1.0000 0.59333  0.29750  0.21940  Biso   1.000  Cu
  Cu3      1.0000 0.94634  0.18514  0.27758  Biso   1.000  Cu
  Cu4      1.0000 0.05366  0.81486  0.72242  Biso   1.000  Cu
  O1       1.0000 0.04400  0.17610  0.19800  Biso   1.000  O
  O2       1.0000 0.95600  0.82390  0.80200  Biso   1.000  O
  H1       1.0000 0.03830  0.24000  0.19020  Biso   1.000  H
  H2       1.0000 0.96170  0.76000  0.80980  Biso   1.000  H
  H3       1.0000 0.13330  0.13750  0.20020  Biso   1.000  H
  H4       1.0000 0.86670  0.86250  0.79980  Biso   1.000  H
  O3       1.0000 0.76330  0.58480  0.18890  Biso   1.000  O
  O4       1.0000 0.23670  0.41520  0.81110  Biso   1.000  O
  O5       1.0000 0.52710  0.68300  0.70530  Biso   1.000  O
  O6       1.0000 0.47290  0.31700  0.29470  Biso   1.000  O
  H5       1.0000 0.53710  0.74390  0.69250  Biso   1.000  H
  H6       1.0000 0.46290  0.25610  0.30750  Biso   1.000  H
  H7       1.0000 0.61430  0.64410  0.70010  Biso   1.000  H
  H8       1.0000 0.38570  0.35590  0.29990  Biso   1.000  H
  O7       1.0000 0.59210  0.49830  0.09720  Biso   1.000  O
  O8       1.0000 0.40790  0.50170  0.90280  Biso   1.000  O
  H9       1.0000 0.53350  0.44320  0.08790  Biso   1.000  H
  H10      1.0000 0.46650  0.55680  0.91210  Biso   1.000  H
  O9       1.0000 0.53520  0.43680  0.20240  Biso   1.000  O
  O10      1.0000 0.46480  0.56320  0.79760  Biso   1.000  O
  O11      1.0000 0.12380  0.34370  0.13280  Biso   1.000  O
  O12      1.0000 0.87620  0.65630  0.86720  Biso   1.000  O
  H11      1.0000 0.09320  0.29440  0.10590  Biso   1.000  H
  H12      1.0000 0.90680  0.70560  0.89410  Biso   1.000  H
  H13      1.0000 0.06810  0.39330  0.11740  Biso   1.000  H
  H14      1.0000 0.93190  0.60670  0.88260  Biso   1.000  H
  O13      1.0000 0.50520  0.98730  0.26870  Biso   1.000  O
  O14      1.0000 0.49480  0.01270  0.73130  Biso   1.000  O
  H15      1.0000 0.40280  0.96130  0.26430  Biso   1.000  H
  H16      1.0000 0.59720  0.03870  0.73570  Biso   1.000  H
  O15      1.0000 0.51820  0.17310  0.37820  Biso   1.000  O
  O16      1.0000 0.48180  0.82690  0.62180  Biso   1.000  O
  H17      1.0000 0.57680  0.11840  0.37290  Biso   1.000  H
  H18      1.0000 0.42320  0.88160  0.62710  Biso   1.000  H
  H19      1.0000 0.41570  0.14270  0.36900  Biso   1.000  H
  H20      1.0000 0.58430  0.85730  0.63100  Biso   1.000  H
  O17      1.0000 0.35940  0.08450  0.18270  Biso   1.000  O
  O18      1.0000 0.64060  0.91550  0.81730  Biso   1.000  O
  O19      1.0000 0.31280  0.00260  0.52550  Biso   1.000  O
  O20      1.0000 0.68720  0.99740  0.47450  Biso   1.000  O
  H21      1.0000 0.28180  0.03170  0.55820  Biso   1.000  H
  H22      1.0000 0.71820  0.96830  0.44180  Biso   1.000  H
  H23      1.0000 0.40950  0.98410  0.54370  Biso   1.000  H
  H24      1.0000 0.59050  0.01590  0.45630  Biso   1.000  H
  O21      1.0000 0.64740  0.15570  0.24300  Biso   1.000  O
  O22      1.0000 0.35260  0.84430  0.75700  Biso   1.000  O
  O23      1.0000 0.93290  0.46090  0.05100  Biso   1.000  O
  O24      1.0000 0.06710  0.53910  0.94900  Biso   1.000  O
  H25      1.0000 0.83960  0.49170  0.03900  Biso   1.000  H
  H26      1.0000 0.16040  0.50830  0.96100  Biso   1.000  H
  H27      1.0000 0.98900  0.51630  0.06710  Biso   1.000  H
  H28      1.0000 0.01100  0.48370  0.93290  Biso   1.000  H
  O25      1.0000 0.57400  0.66460  0.94140  Biso   1.000  O
  O26      1.0000 0.42600  0.33540  0.05860  Biso   1.000  O
  O27      1.0000 0.61140  0.85370  0.92250  Biso   1.000  O
  O28      1.0000 0.38860  0.14630  0.07750  Biso   1.000  O
  H29      1.0000 0.61590  0.87070  0.88770  Biso   1.000  H
  H30      1.0000 0.38410  0.12930  0.11230  Biso   1.000  H
  O29      1.0000 0.35870  0.74150  0.86310  Biso   1.000  O
  O30      1.0000 0.64130  0.25850  0.13690  Biso   1.000  O
  O31      1.0000 0.78890  0.00860  0.62260  Biso   1.000  O
  O32      1.0000 0.21110  0.99140  0.37740  Biso   1.000  O
  H31      1.0000 0.84340  0.96600  0.60300  Biso   1.000  H
  H32      1.0000 0.15660  0.03400  0.39700  Biso   1.000  H
  O33      1.0000 0.78700  0.11970  0.71640  Biso   1.000  O
  O34      1.0000 0.21300  0.88030  0.28360  Biso   1.000  O
  O35      1.0000 0.96620  0.95380  0.71790  Biso   1.000  O
  O36      1.0000 0.03380  0.04620  0.28210  Biso   1.000  O
  O37      1.0000 0.97280  0.49460  0.75650  Biso   1.000  O
  O38      1.0000 0.02720  0.50540  0.24350  Biso   1.000  O
  H33      1.0000 0.06560  0.47230  0.77190  Biso   1.000  H
  H34      1.0000 0.93440  0.52770  0.22810  Biso   1.000  H
  O39      1.0000 0.84250  0.59580  0.67500  Biso   1.000  O
  O40      1.0000 0.15750  0.40420  0.32500  Biso   1.000  O
  O41      1.0000 0.12160  0.67010  0.73850  Biso   1.000  O
  O42      1.0000 0.87840  0.32990  0.26150  Biso   1.000  O
  O43      1.0000 0.07970  0.12270  0.44700  Biso   1.000  O
  O44      1.0000 0.92030  0.87730  0.55300  Biso   1.000  O
  O45      1.0000 0.16970  0.29990  0.41830  Biso   1.000  O
  O46      1.0000 0.83030  0.70010  0.58170  Biso   1.000  O
  H35      1.0000 0.15460  0.32990  0.38690  Biso   1.000  H
  H36      1.0000 0.84540  0.67010  0.61310  Biso   1.000  H
  O47      1.0000 0.89650  0.20610  0.36230  Biso   1.000  O
  O48      1.0000 0.10350  0.79390  0.63770  Biso   1.000  O
  N1       1.0000 0.61530  0.25230  0.63880  Biso   1.000  N
  N2       1.0000 0.38470  0.74770  0.36120  Biso   1.000  N
  H37      1.0000 0.66030  0.20630  0.66830  Biso   1.000  H
  H38      1.0000 0.33970  0.79370  0.33170  Biso   1.000  H
  N3       1.0000 0.91630  0.72510  0.12130  Biso   1.000  N
  N4       1.0000 0.08370  0.27490  0.87870  Biso   1.000  N
  H39      1.0000 0.88550  0.66570  0.14310  Biso   1.000  H
  H40      1.0000 0.11450  0.33430  0.85690  Biso   1.000  H
  P1       1.0000 0.58730  0.52817  0.16668  Biso   1.000  P
  P2       1.0000 0.41270  0.47183  0.83332  Biso   1.000  P
  P3       1.0000 0.53460  0.05980  0.21592  Biso   1.000  P
  P4       1.0000 0.46540  0.94020  0.78408  Biso   1.000  P
  P5       1.0000 0.47350  0.75742  0.92272  Biso   1.000  P
  P6       1.0000 0.52650  0.24258  0.07728  Biso   1.000  P
  P7       1.0000 0.90380  0.04503  0.68324  Biso   1.000  P
  P8       1.0000 0.09620  0.95497  0.31676  Biso   1.000  P
  P9       1.0000 0.01850  0.57281  0.70855  Biso   1.000  P
  P10      1.0000 0.98150  0.42719  0.29145  Biso   1.000  P
  P11      1.0000 0.00890  0.22128  0.42265  Biso   1.000  P
  P12      1.0000 0.99110  0.77872  0.57735  Biso   1.000  P
  C1       1.0000 0.44020  0.71340  0.13680  Biso   1.000  C
  C2       1.0000 0.55980  0.28660  0.86320  Biso   1.000  C
  C3       1.0000 0.53470  0.80330  0.16430  Biso   1.000  C
  C4       1.0000 0.46530  0.19670  0.83570  Biso   1.000  C
  H41      1.0000 0.57790  0.80380  0.20480  Biso   1.000  H
  H42      1.0000 0.42210  0.19620  0.79520  Biso   1.000  H
  C5       1.0000 0.56580  0.89080  0.13350  Biso   1.000  C
  C6       1.0000 0.43420  0.10920  0.86650  Biso   1.000  C
  C7       1.0000 0.49720  0.88960  0.07240  Biso   1.000  C
  C8       1.0000 0.50280  0.11040  0.92760  Biso   1.000  C
  H43      1.0000 0.51380  0.94840  0.05080  Biso   1.000  H
  H44      1.0000 0.48620  0.05160  0.94920  Biso   1.000  H
  C9       1.0000 0.40400  0.79950  0.04410  Biso   1.000  C
  C10      1.0000 0.59600  0.20050  0.95590  Biso   1.000  C
  C11      1.0000 0.37660  0.71270  0.07660  Biso   1.000  C
  C12      1.0000 0.62340  0.28730  0.92340  Biso   1.000  C
  H45      1.0000 0.31470  0.65330  0.05770  Biso   1.000  H
  H46      1.0000 0.68530  0.34670  0.94230  Biso   1.000  H
  C13      1.0000 0.40890  0.61670  0.17220  Biso   1.000  C
  C14      1.0000 0.59110  0.38330  0.82780  Biso   1.000  C
  H47      1.0000 0.29650  0.58070  0.15650  Biso   1.000  H
  H48      1.0000 0.70350  0.41930  0.84350  Biso   1.000  H
  H49      1.0000 0.40010  0.63870  0.21430  Biso   1.000  H
  H50      1.0000 0.59990  0.36130  0.78570  Biso   1.000  H
  C15      1.0000 0.66560  0.98830  0.16470  Biso   1.000  C
  C16      1.0000 0.33440  0.01170  0.83530  Biso   1.000  C
  H51      1.0000 0.70050  0.03390  0.13430  Biso   1.000  H
  H52      1.0000 0.29950  0.96610  0.86570  Biso   1.000  H
  H53      1.0000 0.77400  0.96780  0.18700  Biso   1.000  H
  H54      1.0000 0.22600  0.03220  0.81300  Biso   1.000  H
  C17      1.0000 0.32720  0.79630  0.97810  Biso   1.000  C
  C18      1.0000 0.67280  0.20370  0.02190  Biso   1.000  C
  H55      1.0000 0.28770  0.86560  0.97000  Biso   1.000  H
  H56      1.0000 0.71230  0.13440  0.03000  Biso   1.000  H
  H57      1.0000 0.22220  0.74880  0.97300  Biso   1.000  H
  H58      1.0000 0.77780  0.25120  0.02700  Biso   1.000  H
  C19      1.0000 0.07410  0.21280  0.63230  Biso   1.000  C
  C20      1.0000 0.92590  0.78720  0.36770  Biso   1.000  C
  C21      1.0000 0.12640  0.31200  0.65870  Biso   1.000  C
  C22      1.0000 0.87360  0.68800  0.34130  Biso   1.000  C
  H59      1.0000 0.18050  0.31810  0.69810  Biso   1.000  H
  H60      1.0000 0.81950  0.68190  0.30190  Biso   1.000  H
  C23      1.0000 0.10120  0.40180  0.62870  Biso   1.000  C
  C24      1.0000 0.89880  0.59820  0.37130  Biso   1.000  C
  C25      1.0000 0.02070  0.39120  0.56940  Biso   1.000  C
  C26      1.0000 0.97930  0.60880  0.43060  Biso   1.000  C
  H61      1.0000 0.00430  0.45080  0.54820  Biso   1.000  H
  H62      1.0000 0.99570  0.54920  0.45180  Biso   1.000  H
  C27      1.0000 0.96510  0.29480  0.54160  Biso   1.000  C
  C28      1.0000 0.03490  0.70520  0.45840  Biso   1.000  C
  C29      1.0000 0.99170  0.20620  0.57320  Biso   1.000  C
  C30      1.0000 0.00830  0.79380  0.42680  Biso   1.000  C
  H63      1.0000 0.95380  0.14080  0.55470  Biso   1.000  H
  H64      1.0000 0.04620  0.85920  0.44530  Biso   1.000  H
  C31      1.0000 0.10290  0.11460  0.66550  Biso   1.000  C
  C32      1.0000 0.89710  0.88540  0.33450  Biso   1.000  C
  H65      1.0000 0.17660  0.13370  0.70290  Biso   1.000  H
  H66      1.0000 0.82340  0.86630  0.29710  Biso   1.000  H
  H67      1.0000 0.16960  0.06730  0.64100  Biso   1.000  H
  H68      1.0000 0.83040  0.93270  0.35900  Biso   1.000  H
  C33      1.0000 0.16390  0.50920  0.65890  Biso   1.000  C
  C34      1.0000 0.83610  0.49080  0.34110  Biso   1.000  C
  H69      1.0000 0.18520  0.55550  0.62720  Biso   1.000  H
  H70      1.0000 0.81480  0.44450  0.37280  Biso   1.000  H
  H71      1.0000 0.27800  0.50190  0.68180  Biso   1.000  H
  H72      1.0000 0.72200  0.49810  0.31820  Biso   1.000  H
  C35      1.0000 0.87480  0.27980  0.47700  Biso   1.000  C
  C36      1.0000 0.12520  0.72020  0.52300  Biso   1.000  C
  H73      1.0000 0.84090  0.34770  0.46410  Biso   1.000  H
  H74      1.0000 0.15910  0.65230  0.53590  Biso   1.000  H
  H75      1.0000 0.76580  0.23650  0.47740  Biso   1.000  H
  H76      1.0000 0.23420  0.76350  0.52260  Biso   1.000  H
  C37      1.0000 0.46790  0.45200  0.50180  Biso   1.000  C
  C38      1.0000 0.53210  0.54800  0.49820  Biso   1.000  C
  H77      1.0000 0.38850  0.42420  0.46980  Biso   1.000  H
  H78      1.0000 0.61150  0.57580  0.53020  Biso   1.000  H
  C39      1.0000 0.50790  0.38390  0.55110  Biso   1.000  C
  C40      1.0000 0.49210  0.61610  0.44890  Biso   1.000  C
  C41      1.0000 0.46770  0.27690  0.54290  Biso   1.000  C
  C42      1.0000 0.53230  0.72310  0.45710  Biso   1.000  C
  H79      1.0000 0.40460  0.24870  0.50730  Biso   1.000  H
  H80      1.0000 0.59540  0.75130  0.49270  Biso   1.000  H
  C43      1.0000 0.52200  0.21160  0.58830  Biso   1.000  C
  C44      1.0000 0.47800  0.78840  0.41170  Biso   1.000  C
  H81      1.0000 0.49310  0.14000  0.58320  Biso   1.000  H
  H82      1.0000 0.50690  0.86000  0.41680  Biso   1.000  H
  C45      1.0000 0.64910  0.35480  0.64920  Biso   1.000  C
  C46      1.0000 0.35090  0.64520  0.35080  Biso   1.000  C
  H83      1.0000 0.71030  0.38100  0.68560  Biso   1.000  H
  H84      1.0000 0.28970  0.61900  0.31440  Biso   1.000  H
  C47      1.0000 0.59500  0.42220  0.60700  Biso   1.000  C
  C48      1.0000 0.40500  0.57780  0.39300  Biso   1.000  C
  H85      1.0000 0.61600  0.49400  0.61550  Biso   1.000  H
  H86      1.0000 0.38400  0.50600  0.38450  Biso   1.000  H
  C49      1.0000 0.03150  0.99040  0.02770  Biso   1.000  C
  C50      1.0000 0.96850  0.00960  0.97230  Biso   1.000  C
  H87      1.0000 0.10560  0.04250  0.04930  Biso   1.000  H
  H88      1.0000 0.89440  0.95750  0.95070  Biso   1.000  H
  C51      1.0000 0.99600  0.89540  0.05820  Biso   1.000  C
  C52      1.0000 0.00400  0.10460  0.94180  Biso   1.000  C
  C53      1.0000 0.90070  0.80660  0.03110  Biso   1.000  C
  C54      1.0000 0.09930  0.19340  0.96890  Biso   1.000  C
  H89      1.0000 0.86770  0.80320  0.98970  Biso   1.000  H
  H90      1.0000 0.13230  0.19680  0.01030  Biso   1.000  H
  C55      1.0000 0.85450  0.72530  0.06280  Biso   1.000  C
  C56      1.0000 0.14550  0.27470  0.93720  Biso   1.000  C
  H91      1.0000 0.78080  0.66990  0.04440  Biso   1.000  H
  H92      1.0000 0.21920  0.33010  0.95560  Biso   1.000  H
  C57      1.0000 0.01710  0.80460  0.15090  Biso   1.000  C
  C58      1.0000 0.98290  0.19540  0.84910  Biso   1.000  C
  H93      1.0000 0.05790  0.80090  0.19130  Biso   1.000  H
  H94      1.0000 0.94210  0.19910  0.80870  Biso   1.000  H
  C59      1.0000 0.06120  0.89450  0.12020  Biso   1.000  C
  C60      1.0000 0.93880  0.10550  0.87980  Biso   1.000  C
  H95      1.0000 0.13000  0.95080  0.13990  Biso   1.000  H
  H96      1.0000 0.87000  0.04920  0.86010  Biso   1.000  H
