data_image0
_cell_length_a       9.7878
_cell_length_b       10.201
_cell_length_c       14.443
_cell_angle_alpha    76.79
_cell_angle_beta     81.902
_cell_angle_gamma    66.993

_symmetry_space_group_name_H-M    "P 1"
_symmetry_int_tables_number       1

loop_
  _symmetry_equiv_pos_as_xyz
  'x, y, z'

loop_
  _atom_site_label
  _atom_site_occupancy
  _atom_site_fract_x
  _atom_site_fract_y
  _atom_site_fract_z
  _atom_site_thermal_displace_type
  _atom_site_B_iso_or_equiv
  _atom_site_type_symbol
  Cu1      1.0000 0.19229  0.94499  0.83356  Biso   1.000  Cu
  Cu2      1.0000 0.80771  0.05501  0.16644  Biso   1.000  Cu
  O1       1.0000 0.00040  0.14810  0.55530  Biso   1.000  O
  O2       1.0000 0.99960  0.85190  0.44470  Biso   1.000  O
  H1       1.0000 0.96330  0.12990  0.51470  Biso   1.000  H
  H2       1.0000 0.03670  0.87010  0.48530  Biso   1.000  H
  O3       1.0000 0.19150  0.02930  0.67632  Biso   1.000  O
  O4       1.0000 0.80850  0.97070  0.32368  Biso   1.000  O
  O5       1.0000 0.14630  0.87940  0.57358  Biso   1.000  O
  O6       1.0000 0.85370  0.12060  0.42642  Biso   1.000  O
  O7       1.0000 0.81850  0.44390  0.11710  Biso   1.000  O
  O8       1.0000 0.18150  0.55610  0.88290  Biso   1.000  O
  H3       1.0000 0.81430  0.51790  0.13270  Biso   1.000  H
  H4       1.0000 0.18570  0.48210  0.86730  Biso   1.000  H
  O9       1.0000 0.84970  0.32800  0.28680  Biso   1.000  O
  O10      1.0000 0.15030  0.67200  0.71320  Biso   1.000  O
  H5       1.0000 0.86330  0.24750  0.31990  Biso   1.000  H
  H6       1.0000 0.13670  0.75250  0.68010  Biso   1.000  H
  O11      1.0000 0.92680  0.17320  0.15916  Biso   1.000  O
  O12      1.0000 0.07320  0.82680  0.84084  Biso   1.000  O
  O13      1.0000 0.76220  0.69180  0.12510  Biso   1.000  O
  O14      1.0000 0.23780  0.30820  0.87490  Biso   1.000  O
  O15      1.0000 0.76570  0.75160  0.28320  Biso   1.000  O
  O16      1.0000 0.23430  0.24840  0.71680  Biso   1.000  O
  H7       1.0000 0.78000  0.81880  0.29680  Biso   1.000  H
  H8       1.0000 0.22000  0.18120  0.70320  Biso   1.000  H
  O17      1.0000 0.69200  0.95100  0.13915  Biso   1.000  O
  O18      1.0000 0.30800  0.04900  0.86085  Biso   1.000  O
  N1       1.0000 0.00100  0.11120  0.85200  Biso   1.000  N
  N2       1.0000 0.99900  0.88880  0.14800  Biso   1.000  N
  N3       1.0000 0.38380  0.77570  0.83170  Biso   1.000  N
  N4       1.0000 0.61620  0.22430  0.16830  Biso   1.000  N
  P1       1.0000 0.15318  0.02209  0.58044  Biso   1.000  P
  P2       1.0000 0.84682  0.97791  0.41956  Biso   1.000  P
  P3       1.0000 0.91607  0.31136  0.18398  Biso   1.000  P
  P4       1.0000 0.08393  0.68864  0.81602  Biso   1.000  P
  P5       1.0000 0.68883  0.80440  0.18638  Biso   1.000  P
  P6       1.0000 0.31117  0.19560  0.81362  Biso   1.000  P
  C1       1.0000 0.29410  0.06020  0.39280  Biso   1.000  C
  C2       1.0000 0.70590  0.93980  0.60720  Biso   1.000  C
  C3       1.0000 0.21200  0.18900  0.33230  Biso   1.000  C
  C4       1.0000 0.78800  0.81100  0.66770  Biso   1.000  C
  C5       1.0000 0.20910  0.18840  0.23540  Biso   1.000  C
  C6       1.0000 0.79090  0.81160  0.76460  Biso   1.000  C
  C7       1.0000 0.30320  0.06720  0.19750  Biso   1.000  C
  C8       1.0000 0.69680  0.93280  0.80250  Biso   1.000  C
  C9       1.0000 0.39300  0.94050  0.25790  Biso   1.000  C
  C10      1.0000 0.60700  0.05950  0.74210  Biso   1.000  C
  C11      1.0000 0.37920  0.93460  0.35660  Biso   1.000  C
  C12      1.0000 0.62080  0.06540  0.64340  Biso   1.000  C
  C13      1.0000 0.29530  0.06020  0.49800  Biso   1.000  C
  C14      1.0000 0.70470  0.93980  0.50200  Biso   1.000  C
  H9       1.0000 0.29160  0.15480  0.50300  Biso   1.000  H
  H10      1.0000 0.70840  0.84520  0.49700  Biso   1.000  H
  H11      1.0000 0.39060  0.99000  0.51990  Biso   1.000  H
  H12      1.0000 0.60940  0.01000  0.48010  Biso   1.000  H
  C15      1.0000 0.13100  0.32670  0.37070  Biso   1.000  C
  C16      1.0000 0.86900  0.67330  0.62930  Biso   1.000  C
  H13      1.0000 0.14360  0.30760  0.43780  Biso   1.000  H
  H14      1.0000 0.85640  0.69240  0.56220  Biso   1.000  H
  H15      1.0000 0.02710  0.36140  0.35990  Biso   1.000  H
  H16      1.0000 0.97290  0.63860  0.64010  Biso   1.000  H
  H17      1.0000 0.17070  0.39880  0.33890  Biso   1.000  H
  H18      1.0000 0.82930  0.60120  0.66110  Biso   1.000  H
  C17      1.0000 0.09910  0.31670  0.17390  Biso   1.000  C
  C18      1.0000 0.90090  0.68330  0.82610  Biso   1.000  C
  H19      1.0000 0.13650  0.31980  0.10790  Biso   1.000  H
  H20      1.0000 0.86350  0.68020  0.89210  Biso   1.000  H
  H21      1.0000 0.09230  0.40530  0.19180  Biso   1.000  H
  H22      1.0000 0.90770  0.59470  0.80820  Biso   1.000  H
  C19      1.0000 0.31140  0.06900  0.09210  Biso   1.000  C
  C20      1.0000 0.68860  0.93100  0.90790  Biso   1.000  C
  H23      1.0000 0.24370  0.16060  0.06100  Biso   1.000  H
  H24      1.0000 0.75630  0.83940  0.93900  Biso   1.000  H
  H25      1.0000 0.28490  0.99230  0.08220  Biso   1.000  H
  H26      1.0000 0.71510  0.00770  0.91780  Biso   1.000  H
  H27      1.0000 0.41080  0.05540  0.06610  Biso   1.000  H
  H28      1.0000 0.58920  0.94460  0.93390  Biso   1.000  H
  C21      1.0000 0.49930  0.81360  0.21550  Biso   1.000  C
  C22      1.0000 0.50070  0.18640  0.78450  Biso   1.000  C
  H29      1.0000 0.45880  0.81420  0.15770  Biso   1.000  H
  H30      1.0000 0.54120  0.18580  0.84230  Biso   1.000  H
  H31      1.0000 0.50240  0.72540  0.25980  Biso   1.000  H
  H32      1.0000 0.49760  0.27460  0.74020  Biso   1.000  H
  C23      1.0000 0.45360  0.79220  0.42280  Biso   1.000  C
  C24      1.0000 0.54640  0.20780  0.57720  Biso   1.000  C
  H33      1.0000 0.43410  0.80650  0.48750  Biso   1.000  H
  H34      1.0000 0.56590  0.19350  0.51250  Biso   1.000  H
  H35      1.0000 0.55890  0.75730  0.40780  Biso   1.000  H
  H36      1.0000 0.44110  0.24270  0.59220  Biso   1.000  H
  H37      1.0000 0.41490  0.72240  0.41510  Biso   1.000  H
  H38      1.0000 0.58510  0.27760  0.58490  Biso   1.000  H
  C25      1.0000 0.97480  0.19050  0.91910  Biso   1.000  C
  C26      1.0000 0.02520  0.80950  0.08090  Biso   1.000  C
  H39      1.0000 0.03950  0.15650  0.96810  Biso   1.000  H
  H40      1.0000 0.96050  0.84350  0.03190  Biso   1.000  H
  C27      1.0000 0.85620  0.32040  0.91900  Biso   1.000  C
  C28      1.0000 0.14380  0.67960  0.08100  Biso   1.000  C
  H41      1.0000 0.84110  0.37120  0.96790  Biso   1.000  H
  H42      1.0000 0.15890  0.62880  0.03210  Biso   1.000  H
  C29      1.0000 0.75980  0.37490  0.84600  Biso   1.000  C
  C30      1.0000 0.24020  0.62510  0.15400  Biso   1.000  C
  C31      1.0000 0.63330  0.51760  0.83990  Biso   1.000  C
  C32      1.0000 0.36670  0.48240  0.16010  Biso   1.000  C
  C33      1.0000 0.58500  0.58910  0.91710  Biso   1.000  C
  C34      1.0000 0.41500  0.41090  0.08290  Biso   1.000  C
  H43      1.0000 0.63560  0.55150  0.97290  Biso   1.000  H
  H44      1.0000 0.36440  0.44850  0.02710  Biso   1.000  H
  C35      1.0000 0.46200  0.71550  0.90960  Biso   1.000  C
  C36      1.0000 0.53800  0.28450  0.09040  Biso   1.000  C
  H45      1.0000 0.43140  0.76190  0.96150  Biso   1.000  H
  H46      1.0000 0.56860  0.23810  0.03850  Biso   1.000  H
  C37      1.0000 0.43570  0.71140  0.75600  Biso   1.000  C
  C38      1.0000 0.56430  0.28860  0.24400  Biso   1.000  C
  H47      1.0000 0.38730  0.75500  0.69960  Biso   1.000  H
  H48      1.0000 0.61270  0.24500  0.30040  Biso   1.000  H
  C39      1.0000 0.55670  0.58450  0.75800  Biso   1.000  C
  C40      1.0000 0.44330  0.41550  0.24200  Biso   1.000  C
  H49      1.0000 0.58750  0.54310  0.70390  Biso   1.000  H
  H50      1.0000 0.41250  0.45690  0.29610  Biso   1.000  H
  C41      1.0000 0.78590  0.29020  0.77810  Biso   1.000  C
  C42      1.0000 0.21410  0.70980  0.22190  Biso   1.000  C
  H51      1.0000 0.72340  0.32190  0.72810  Biso   1.000  H
  H52      1.0000 0.27660  0.67810  0.27190  Biso   1.000  H
  C43      1.0000 0.90370  0.15950  0.78450  Biso   1.000  C
  C44      1.0000 0.09630  0.84050  0.21550  Biso   1.000  C
  H53      1.0000 0.91600  0.10230  0.73980  Biso   1.000  H
  H54      1.0000 0.08400  0.89770  0.26020  Biso   1.000  H
