data_image0
_cell_length_a       11.471
_cell_length_b       11.833
_cell_length_c       12.272
_cell_angle_alpha    80.712
_cell_angle_beta     68.015
_cell_angle_gamma    77.768

_symmetry_space_group_name_H-M    "P 1"
_symmetry_int_tables_number       1

loop_
  _symmetry_equiv_pos_as_xyz
  'x, y, z'

loop_
  _atom_site_label
  _atom_site_occupancy
  _atom_site_fract_x
  _atom_site_fract_y
  _atom_site_fract_z
  _atom_site_thermal_displace_type
  _atom_site_B_iso_or_equiv
  _atom_site_type_symbol
  Cu1      1.0000 0.93406  0.42375  0.42351  Biso   1.000  Cu
  Cu2      1.0000 0.06594  0.57625  0.57649  Biso   1.000  Cu
  Cu3      1.0000 0.78070  0.85070  0.94170  Biso   1.000  Cu
  Cu4      1.0000 0.21930  0.14930  0.05830  Biso   1.000  Cu
  Cu5      1.0000 0.67694  0.86891  0.98038  Biso   1.000  Cu
  Cu6      1.0000 0.32306  0.13109  0.01962  Biso   1.000  Cu
  C1       1.0000 0.36660  0.02040  0.53550  Biso   1.000  C
  C2       1.0000 0.63340  0.97960  0.46450  Biso   1.000  C
  C3       1.0000 0.42760  0.08140  0.58180  Biso   1.000  C
  C4       1.0000 0.57240  0.91860  0.41820  Biso   1.000  C
  C5       1.0000 0.55910  0.06210  0.54780  Biso   1.000  C
  C6       1.0000 0.44090  0.93790  0.45220  Biso   1.000  C
  C7       1.0000 0.22210  0.04450  0.56810  Biso   1.000  C
  C8       1.0000 0.77790  0.95550  0.43190  Biso   1.000  C
  H1       1.0000 0.19420  0.97790  0.55450  Biso   1.000  H
  H2       1.0000 0.80580  0.02210  0.44550  Biso   1.000  H
  H3       1.0000 0.18160  0.05650  0.65120  Biso   1.000  H
  H4       1.0000 0.81840  0.94350  0.34880  Biso   1.000  H
  C9       1.0000 0.06890  0.21360  0.52050  Biso   1.000  C
  C10      1.0000 0.93110  0.78640  0.47950  Biso   1.000  C
  H5       1.0000 0.99770  0.20300  0.58740  Biso   1.000  H
  H6       1.0000 0.00230  0.79700  0.41260  Biso   1.000  H
  C11      1.0000 0.19340  0.27580  0.35820  Biso   1.000  C
  C12      1.0000 0.80660  0.72420  0.64180  Biso   1.000  C
  H7       1.0000 0.22360  0.32130  0.28760  Biso   1.000  H
  H8       1.0000 0.77640  0.67870  0.71240  Biso   1.000  H
  C13      1.0000 0.34670  0.16400  0.67500  Biso   1.000  C
  C14      1.0000 0.65330  0.83600  0.32500  Biso   1.000  C
  H9       1.0000 0.26920  0.13360  0.72290  Biso   1.000  H
  H10      1.0000 0.73080  0.86640  0.27710  Biso   1.000  H
  H11      1.0000 0.39300  0.16680  0.72610  Biso   1.000  H
  H12      1.0000 0.60700  0.83320  0.27390  Biso   1.000  H
  C15      1.0000 0.19620  0.34400  0.64500  Biso   1.000  C
  C16      1.0000 0.80380  0.65600  0.35500  Biso   1.000  C
  H13      1.0000 0.12020  0.31860  0.69270  Biso   1.000  H
  H14      1.0000 0.87980  0.68140  0.30730  Biso   1.000  H
  C17      1.0000 0.33320  0.44420  0.53160  Biso   1.000  C
  C18      1.0000 0.66680  0.55580  0.46840  Biso   1.000  C
  H15      1.0000 0.36840  0.50670  0.48370  Biso   1.000  H
  H16      1.0000 0.63160  0.49330  0.51630  Biso   1.000  H
  C19      1.0000 0.62600  0.13340  0.59170  Biso   1.000  C
  C20      1.0000 0.37400  0.86660  0.40830  Biso   1.000  C
  H17      1.0000 0.68920  0.16730  0.52410  Biso   1.000  H
  H18      1.0000 0.31080  0.83270  0.47590  Biso   1.000  H
  H19      1.0000 0.56380  0.19670  0.63170  Biso   1.000  H
  H20      1.0000 0.43620  0.80330  0.36830  Biso   1.000  H
  C21      1.0000 0.63850  0.01210  0.77680  Biso   1.000  C
  C22      1.0000 0.36150  0.98790  0.22320  Biso   1.000  C
  H21      1.0000 0.55230  0.00780  0.81370  Biso   1.000  H
  H22      1.0000 0.44770  0.99220  0.18630  Biso   1.000  H
  C23      1.0000 0.83190  0.99020  0.74000  Biso   1.000  C
  C24      1.0000 0.16810  0.00980  0.26000  Biso   1.000  C
  H23      1.0000 0.91110  0.96570  0.74790  Biso   1.000  H
  H24      1.0000 0.08890  0.03430  0.25210  Biso   1.000  H
  C25      1.0000 0.79350  0.23860  0.24800  Biso   1.000  C
  C26      1.0000 0.20650  0.76140  0.75200  Biso   1.000  C
  C27      1.0000 0.83090  0.16030  0.16240  Biso   1.000  C
  C28      1.0000 0.16910  0.83970  0.83760  Biso   1.000  C
  H25      1.0000 0.91630  0.13620  0.11880  Biso   1.000  H
  H26      1.0000 0.08370  0.86380  0.88120  Biso   1.000  H
  C29      1.0000 0.73210  0.11970  0.14550  Biso   1.000  C
  C30      1.0000 0.26790  0.88030  0.85450  Biso   1.000  C
  C31      1.0000 0.60400  0.15750  0.21260  Biso   1.000  C
  C32      1.0000 0.39600  0.84250  0.78740  Biso   1.000  C
  H27      1.0000 0.54040  0.12860  0.20150  Biso   1.000  H
  H28      1.0000 0.45960  0.87140  0.79850  Biso   1.000  H
  C33      1.0000 0.57100  0.23600  0.29370  Biso   1.000  C
  C34      1.0000 0.42900  0.76400  0.70630  Biso   1.000  C
  H29      1.0000 0.48580  0.26310  0.33510  Biso   1.000  H
  H30      1.0000 0.51420  0.73690  0.66490  Biso   1.000  H
  C35      1.0000 0.66370  0.27310  0.31240  Biso   1.000  C
  C36      1.0000 0.33630  0.72690  0.68760  Biso   1.000  C
  H31      1.0000 0.64140  0.32370  0.37030  Biso   1.000  H
  H32      1.0000 0.35860  0.67630  0.62970  Biso   1.000  H
  C37      1.0000 0.88180  0.28250  0.28280  Biso   1.000  C
  C38      1.0000 0.11820  0.71750  0.71720  Biso   1.000  C
  C39      1.0000 0.76240  0.03420  0.05770  Biso   1.000  C
  C40      1.0000 0.23760  0.96580  0.94230  Biso   1.000  C
  C41      1.0000 0.24490  0.59230  0.19320  Biso   1.000  C
  C42      1.0000 0.75510  0.40770  0.80680  Biso   1.000  C
  C43      1.0000 0.34390  0.65200  0.17580  Biso   1.000  C
  C44      1.0000 0.65610  0.34800  0.82420  Biso   1.000  C
  H33      1.0000 0.34980  0.68120  0.23920  Biso   1.000  H
  H34      1.0000 0.65020  0.31880  0.76080  Biso   1.000  H
  C45      1.0000 0.43370  0.66770  0.06360  Biso   1.000  C
  C46      1.0000 0.56630  0.33230  0.93640  Biso   1.000  C
  C47      1.0000 0.42320  0.62420  0.96940  Biso   1.000  C
  C48      1.0000 0.57680  0.37580  0.03060  Biso   1.000  C
  H35      1.0000 0.48240  0.63580  0.89400  Biso   1.000  H
  H36      1.0000 0.51760  0.36420  0.10600  Biso   1.000  H
  C49      1.0000 0.32530  0.56350  0.98680  Biso   1.000  C
  C50      1.0000 0.67470  0.43650  0.01320  Biso   1.000  C
  H37      1.0000 0.32000  0.53270  0.92410  Biso   1.000  H
  H38      1.0000 0.68000  0.46730  0.07590  Biso   1.000  H
  C51      1.0000 0.23720  0.55000  0.09740  Biso   1.000  C
  C52      1.0000 0.76280  0.45000  0.90260  Biso   1.000  C
  H39      1.0000 0.17020  0.51140  0.10890  Biso   1.000  H
  H40      1.0000 0.82980  0.48860  0.89110  Biso   1.000  H
  C53      1.0000 0.15070  0.57230  0.31370  Biso   1.000  C
  C54      1.0000 0.84930  0.42770  0.68630  Biso   1.000  C
  C55      1.0000 0.53640  0.73250  0.04000  Biso   1.000  C
  C56      1.0000 0.46360  0.26750  0.96000  Biso   1.000  C
  N1       1.0000 0.07150  0.29580  0.43500  Biso   1.000  N
  N2       1.0000 0.92850  0.70420  0.56500  Biso   1.000  N
  N3       1.0000 0.18330  0.14720  0.49780  Biso   1.000  N
  N4       1.0000 0.81670  0.85280  0.50220  Biso   1.000  N
  N5       1.0000 0.26380  0.18720  0.39270  Biso   1.000  N
  N6       1.0000 0.73620  0.81280  0.60730  Biso   1.000  N
  N7       1.0000 0.20570  0.44670  0.58560  Biso   1.000  N
  N8       1.0000 0.79430  0.55330  0.41440  Biso   1.000  N
  N9       1.0000 0.31230  0.28210  0.62600  Biso   1.000  N
  N10      1.0000 0.68770  0.71790  0.37400  Biso   1.000  N
  N11      1.0000 0.40150  0.34680  0.55290  Biso   1.000  N
  N12      1.0000 0.59850  0.65320  0.44710  Biso   1.000  N
  N13      1.0000 0.72550  0.96450  0.82120  Biso   1.000  N
  N14      1.0000 0.27450  0.03550  0.17880  Biso   1.000  N
  N15      1.0000 0.68870  0.06730  0.67210  Biso   1.000  N
  N16      1.0000 0.31130  0.93270  0.32790  Biso   1.000  N
  N17      1.0000 0.81630  0.05480  0.64450  Biso   1.000  N
  N18      1.0000 0.18370  0.94520  0.35550  Biso   1.000  N
  O1       1.0000 0.84280  0.31460  0.38510  Biso   1.000  O
  O2       1.0000 0.15720  0.68540  0.61490  Biso   1.000  O
  O3       1.0000 0.03540  0.24190  0.19570  Biso   1.000  O
  O4       1.0000 0.96460  0.75810  0.80430  Biso   1.000  O
  O5       1.0000 0.97460  0.29700  0.21140  Biso   1.000  O
  O6       1.0000 0.02540  0.70300  0.78860  Biso   1.000  O
  O7       1.0000 0.92000  0.37400  0.27400  Biso   1.000  O
  O8       1.0000 0.08000  0.62600  0.72600  Biso   1.000  O
  O9       1.0000 0.86690  0.02030  0.97770  Biso   1.000  O
  O10      1.0000 0.13310  0.97970  0.02230  Biso   1.000  O
  O11      1.0000 0.67400  0.97850  0.07230  Biso   1.000  O
  O12      1.0000 0.32600  0.02150  0.92770  Biso   1.000  O
  O13      1.0000 0.06040  0.52480  0.32100  Biso   1.000  O
  O14      1.0000 0.93960  0.47520  0.67900  Biso   1.000  O
  O15      1.0000 0.16830  0.60230  0.39860  Biso   1.000  O
  O16      1.0000 0.83170  0.39770  0.60140  Biso   1.000  O
  O17      1.0000 0.54470  0.77490  0.11910  Biso   1.000  O
  O18      1.0000 0.45530  0.22510  0.88090  Biso   1.000  O
  O19      1.0000 0.60940  0.75640  0.93770  Biso   1.000  O
  O20      1.0000 0.39060  0.24360  0.06230  Biso   1.000  O
  O21      1.0000 0.84610  0.76070  0.98960  Biso   1.000  O
  O22      1.0000 0.15390  0.23930  0.01040  Biso   1.000  O
  O23      1.0000 0.02550  0.17130  0.83670  Biso   1.000  O
  O24      1.0000 0.97450  0.82870  0.16330  Biso   1.000  O
  O25      1.0000 0.91550  0.53450  0.09860  Biso   1.000  O
  O26      1.0000 0.08450  0.46550  0.90140  Biso   1.000  O
  O27      1.0000 0.16460  0.25440  0.95840  Biso   1.000  O
  O28      1.0000 0.83540  0.74560  0.04160  Biso   1.000  O
