data_image0
_cell_length_a       21.7696
_cell_length_b       21.7696
_cell_length_c       8.7212
_cell_angle_alpha    90
_cell_angle_beta     90
_cell_angle_gamma    120

_symmetry_space_group_name_H-M    "P 1"
_symmetry_int_tables_number       1

loop_
  _symmetry_equiv_pos_as_xyz
  'x, y, z'

loop_
  _atom_site_label
  _atom_site_occupancy
  _atom_site_fract_x
  _atom_site_fract_y
  _atom_site_fract_z
  _atom_site_thermal_displace_type
  _atom_site_B_iso_or_equiv
  _atom_site_type_symbol
  Cu1      1.0000 0.46932  0.41708  0.39890  Biso   1.000  Cu
  Cu2      1.0000 0.58292  0.05224  0.39890  Biso   1.000  Cu
  Cu3      1.0000 0.94776  0.53068  0.39890  Biso   1.000  Cu
  Cu4      1.0000 0.41708  0.46932  0.10110  Biso   1.000  Cu
  Cu5      1.0000 0.53068  0.94776  0.10110  Biso   1.000  Cu
  Cu6      1.0000 0.05224  0.58292  0.10110  Biso   1.000  Cu
  Cu7      1.0000 0.53068  0.58292  0.60110  Biso   1.000  Cu
  Cu8      1.0000 0.41708  0.94776  0.60110  Biso   1.000  Cu
  Cu9      1.0000 0.05224  0.46932  0.60110  Biso   1.000  Cu
  Cu10     1.0000 0.58292  0.53068  0.89890  Biso   1.000  Cu
  Cu11     1.0000 0.46932  0.05224  0.89890  Biso   1.000  Cu
  Cu12     1.0000 0.94776  0.41708  0.89890  Biso   1.000  Cu
  O1       1.0000 0.44483  0.35264  0.22560  Biso   1.000  O
  O2       1.0000 0.64736  0.09219  0.22560  Biso   1.000  O
  O3       1.0000 0.90781  0.55517  0.22560  Biso   1.000  O
  O4       1.0000 0.35264  0.44483  0.27440  Biso   1.000  O
  O5       1.0000 0.55517  0.90781  0.27440  Biso   1.000  O
  O6       1.0000 0.09219  0.64736  0.27440  Biso   1.000  O
  O7       1.0000 0.55517  0.64736  0.77440  Biso   1.000  O
  O8       1.0000 0.35264  0.90781  0.77440  Biso   1.000  O
  O9       1.0000 0.09219  0.44483  0.77440  Biso   1.000  O
  O10      1.0000 0.64736  0.55517  0.72560  Biso   1.000  O
  O11      1.0000 0.44483  0.09219  0.72560  Biso   1.000  O
  O12      1.0000 0.90781  0.35264  0.72560  Biso   1.000  O
  O13      1.0000 0.44523  0.13332  0.04580  Biso   1.000  O
  O14      1.0000 0.86668  0.31191  0.04580  Biso   1.000  O
  O15      1.0000 0.68809  0.55477  0.04580  Biso   1.000  O
  O16      1.0000 0.13332  0.44523  0.45420  Biso   1.000  O
  O17      1.0000 0.55477  0.68809  0.45420  Biso   1.000  O
  O18      1.0000 0.31191  0.86668  0.45420  Biso   1.000  O
  O19      1.0000 0.55477  0.86668  0.95420  Biso   1.000  O
  O20      1.0000 0.13332  0.68809  0.95420  Biso   1.000  O
  O21      1.0000 0.31191  0.44523  0.95420  Biso   1.000  O
  O22      1.0000 0.86668  0.55477  0.54580  Biso   1.000  O
  O23      1.0000 0.44523  0.31191  0.54580  Biso   1.000  O
  O24      1.0000 0.68809  0.13332  0.54580  Biso   1.000  O
  O25      1.0000 0.54066  0.10786  0.33940  Biso   1.000  O
  O26      1.0000 0.89214  0.43280  0.33940  Biso   1.000  O
  O27      1.0000 0.56720  0.45934  0.33940  Biso   1.000  O
  O28      1.0000 0.10786  0.54066  0.16060  Biso   1.000  O
  O29      1.0000 0.45934  0.56720  0.16060  Biso   1.000  O
  O30      1.0000 0.43280  0.89214  0.16060  Biso   1.000  O
  O31      1.0000 0.45934  0.89214  0.66060  Biso   1.000  O
  O32      1.0000 0.10786  0.56720  0.66060  Biso   1.000  O
  O33      1.0000 0.43280  0.54066  0.66060  Biso   1.000  O
  O34      1.0000 0.89214  0.45934  0.83940  Biso   1.000  O
  O35      1.0000 0.54066  0.43280  0.83940  Biso   1.000  O
  O36      1.0000 0.56720  0.10786  0.83940  Biso   1.000  O
  O37      1.0000 0.38602  0.37304  0.04240  Biso   1.000  O
  O38      1.0000 0.62696  0.01298  0.04240  Biso   1.000  O
  O39      1.0000 0.98702  0.61398  0.04240  Biso   1.000  O
  O40      1.0000 0.37304  0.38602  0.45760  Biso   1.000  O
  O41      1.0000 0.61398  0.98702  0.45760  Biso   1.000  O
  O42      1.0000 0.01298  0.62696  0.45760  Biso   1.000  O
  O43      1.0000 0.61398  0.62696  0.95760  Biso   1.000  O
  O44      1.0000 0.37304  0.98702  0.95760  Biso   1.000  O
  O45      1.0000 0.01298  0.38602  0.95760  Biso   1.000  O
  O46      1.0000 0.62696  0.61398  0.54240  Biso   1.000  O
  O47      1.0000 0.38602  0.01298  0.54240  Biso   1.000  O
  O48      1.0000 0.98702  0.37304  0.54240  Biso   1.000  O
  O49      1.0000 0.50307  0.05336  0.11280  Biso   1.000  O
  O50      1.0000 0.94664  0.44971  0.11280  Biso   1.000  O
  O51      1.0000 0.55029  0.49693  0.11280  Biso   1.000  O
  O52      1.0000 0.05336  0.50307  0.38720  Biso   1.000  O
  O53      1.0000 0.49693  0.55029  0.38720  Biso   1.000  O
  O54      1.0000 0.44971  0.94664  0.38720  Biso   1.000  O
  O55      1.0000 0.49693  0.94664  0.88720  Biso   1.000  O
  O56      1.0000 0.05336  0.55029  0.88720  Biso   1.000  O
  O57      1.0000 0.44971  0.50307  0.88720  Biso   1.000  O
  O58      1.0000 0.94664  0.49693  0.61280  Biso   1.000  O
  O59      1.0000 0.50307  0.44971  0.61280  Biso   1.000  O
  O60      1.0000 0.55029  0.05336  0.61280  Biso   1.000  O
  C1       1.0000 0.34860  0.13290  0.92650  Biso   1.000  C
  C2       1.0000 0.86710  0.21570  0.92650  Biso   1.000  C
  C3       1.0000 0.78430  0.65140  0.92650  Biso   1.000  C
  C4       1.0000 0.13290  0.34860  0.57350  Biso   1.000  C
  C5       1.0000 0.65140  0.78430  0.57350  Biso   1.000  C
  C6       1.0000 0.21570  0.86710  0.57350  Biso   1.000  C
  C7       1.0000 0.65140  0.86710  0.07350  Biso   1.000  C
  C8       1.0000 0.13290  0.78430  0.07350  Biso   1.000  C
  C9       1.0000 0.21570  0.34860  0.07350  Biso   1.000  C
  C10      1.0000 0.86710  0.65140  0.42650  Biso   1.000  C
  C11      1.0000 0.34860  0.21570  0.42650  Biso   1.000  C
  C12      1.0000 0.78430  0.13290  0.42650  Biso   1.000  C
  H1       1.0000 0.33530  0.08770  0.89070  Biso   1.000  H
  H2       1.0000 0.91230  0.24760  0.89070  Biso   1.000  H
  H3       1.0000 0.75240  0.66470  0.89070  Biso   1.000  H
  H4       1.0000 0.08770  0.33530  0.60930  Biso   1.000  H
  H5       1.0000 0.66470  0.75240  0.60930  Biso   1.000  H
  H6       1.0000 0.24760  0.91230  0.60930  Biso   1.000  H
  H7       1.0000 0.66470  0.91230  0.10930  Biso   1.000  H
  H8       1.0000 0.08770  0.75240  0.10930  Biso   1.000  H
  H9       1.0000 0.24760  0.33530  0.10930  Biso   1.000  H
  H10      1.0000 0.91230  0.66470  0.39070  Biso   1.000  H
  H11      1.0000 0.33530  0.24760  0.39070  Biso   1.000  H
  H12      1.0000 0.75240  0.08770  0.39070  Biso   1.000  H
  C13      1.0000 0.40780  0.33630  0.10660  Biso   1.000  C
  C14      1.0000 0.66370  0.07150  0.10660  Biso   1.000  C
  C15      1.0000 0.92850  0.59220  0.10660  Biso   1.000  C
  C16      1.0000 0.33630  0.40780  0.39340  Biso   1.000  C
  C17      1.0000 0.59220  0.92850  0.39340  Biso   1.000  C
  C18      1.0000 0.07150  0.66370  0.39340  Biso   1.000  C
  C19      1.0000 0.59220  0.66370  0.89340  Biso   1.000  C
  C20      1.0000 0.33630  0.92850  0.89340  Biso   1.000  C
  C21      1.0000 0.07150  0.40780  0.89340  Biso   1.000  C
  C22      1.0000 0.66370  0.59220  0.60660  Biso   1.000  C
  C23      1.0000 0.40780  0.07150  0.60660  Biso   1.000  C
  C24      1.0000 0.92850  0.33630  0.60660  Biso   1.000  C
  C25      1.0000 0.48730  0.15230  0.17820  Biso   1.000  C
  C26      1.0000 0.84770  0.33500  0.17820  Biso   1.000  C
  C27      1.0000 0.66500  0.51270  0.17820  Biso   1.000  C
  C28      1.0000 0.15230  0.48730  0.32180  Biso   1.000  C
  C29      1.0000 0.51270  0.66500  0.32180  Biso   1.000  C
  C30      1.0000 0.33500  0.84770  0.32180  Biso   1.000  C
  C31      1.0000 0.51270  0.84770  0.82180  Biso   1.000  C
  C32      1.0000 0.15230  0.66500  0.82180  Biso   1.000  C
  C33      1.0000 0.33500  0.48730  0.82180  Biso   1.000  C
  C34      1.0000 0.84770  0.51270  0.67820  Biso   1.000  C
  C35      1.0000 0.48730  0.33500  0.67820  Biso   1.000  C
  C36      1.0000 0.66500  0.15230  0.67820  Biso   1.000  C
  H13      1.0000 0.46010  0.15370  0.26500  Biso   1.000  H
  H14      1.0000 0.84630  0.30640  0.26500  Biso   1.000  H
  H15      1.0000 0.69360  0.53990  0.26500  Biso   1.000  H
  H16      1.0000 0.15370  0.46010  0.23500  Biso   1.000  H
  H17      1.0000 0.53990  0.69360  0.23500  Biso   1.000  H
  H18      1.0000 0.30640  0.84630  0.23500  Biso   1.000  H
  H19      1.0000 0.53990  0.84630  0.73500  Biso   1.000  H
  H20      1.0000 0.15370  0.69360  0.73500  Biso   1.000  H
  H21      1.0000 0.30640  0.46010  0.73500  Biso   1.000  H
  H22      1.0000 0.84630  0.53990  0.76500  Biso   1.000  H
  H23      1.0000 0.46010  0.30640  0.76500  Biso   1.000  H
  H24      1.0000 0.69360  0.15370  0.76500  Biso   1.000  H
  H25      1.0000 0.52820  0.19930  0.16520  Biso   1.000  H
  H26      1.0000 0.80070  0.32890  0.16520  Biso   1.000  H
  H27      1.0000 0.67110  0.47180  0.16520  Biso   1.000  H
  H28      1.0000 0.19930  0.52820  0.33480  Biso   1.000  H
  H29      1.0000 0.47180  0.67110  0.33480  Biso   1.000  H
  H30      1.0000 0.32890  0.80070  0.33480  Biso   1.000  H
  H31      1.0000 0.47180  0.80070  0.83480  Biso   1.000  H
  H32      1.0000 0.19930  0.67110  0.83480  Biso   1.000  H
  H33      1.0000 0.32890  0.52820  0.83480  Biso   1.000  H
  H34      1.0000 0.80070  0.47180  0.66520  Biso   1.000  H
  H35      1.0000 0.52820  0.32890  0.66520  Biso   1.000  H
  H36      1.0000 0.67110  0.19930  0.66520  Biso   1.000  H
  C37      1.0000 0.32980  0.23210  0.94120  Biso   1.000  C
  C38      1.0000 0.76790  0.09770  0.94120  Biso   1.000  C
  C39      1.0000 0.90230  0.67020  0.94120  Biso   1.000  C
  C40      1.0000 0.23210  0.32980  0.55880  Biso   1.000  C
  C41      1.0000 0.67020  0.90230  0.55880  Biso   1.000  C
  C42      1.0000 0.09770  0.76790  0.55880  Biso   1.000  C
  C43      1.0000 0.67020  0.76790  0.05880  Biso   1.000  C
  C44      1.0000 0.23210  0.90230  0.05880  Biso   1.000  C
  C45      1.0000 0.09770  0.32980  0.05880  Biso   1.000  C
  C46      1.0000 0.76790  0.67020  0.44120  Biso   1.000  C
  C47      1.0000 0.32980  0.09770  0.44120  Biso   1.000  C
  C48      1.0000 0.90230  0.23210  0.44120  Biso   1.000  C
  H37      1.0000 0.30500  0.25470  0.91250  Biso   1.000  H
  H38      1.0000 0.74530  0.05030  0.91250  Biso   1.000  H
  H39      1.0000 0.94970  0.69500  0.91250  Biso   1.000  H
  H40      1.0000 0.25470  0.30500  0.58750  Biso   1.000  H
  H41      1.0000 0.69500  0.94970  0.58750  Biso   1.000  H
  H42      1.0000 0.05030  0.74530  0.58750  Biso   1.000  H
  H43      1.0000 0.69500  0.74530  0.08750  Biso   1.000  H
  H44      1.0000 0.25470  0.94970  0.08750  Biso   1.000  H
  H45      1.0000 0.05030  0.30500  0.08750  Biso   1.000  H
  H46      1.0000 0.74530  0.69500  0.41250  Biso   1.000  H
  H47      1.0000 0.30500  0.05030  0.41250  Biso   1.000  H
  H48      1.0000 0.94970  0.25470  0.41250  Biso   1.000  H
  C49      1.0000 0.40760  0.16800  0.01810  Biso   1.000  C
  C50      1.0000 0.83200  0.23960  0.01810  Biso   1.000  C
  C51      1.0000 0.76040  0.59240  0.01810  Biso   1.000  C
  C52      1.0000 0.16800  0.40760  0.48190  Biso   1.000  C
  C53      1.0000 0.59240  0.76040  0.48190  Biso   1.000  C
  C54      1.0000 0.23960  0.83200  0.48190  Biso   1.000  C
  C55      1.0000 0.59240  0.83200  0.98190  Biso   1.000  C
  C56      1.0000 0.16800  0.76040  0.98190  Biso   1.000  C
  C57      1.0000 0.23960  0.40760  0.98190  Biso   1.000  C
  C58      1.0000 0.83200  0.59240  0.51810  Biso   1.000  C
  C59      1.0000 0.40760  0.23960  0.51810  Biso   1.000  C
  C60      1.0000 0.76040  0.16800  0.51810  Biso   1.000  C
  C61      1.0000 0.24270  0.12550  0.78760  Biso   1.000  C
  C62      1.0000 0.87450  0.11720  0.78760  Biso   1.000  C
  C63      1.0000 0.88280  0.75730  0.78760  Biso   1.000  C
  C64      1.0000 0.12550  0.24270  0.71240  Biso   1.000  C
  C65      1.0000 0.75730  0.88280  0.71240  Biso   1.000  C
  C66      1.0000 0.11720  0.87450  0.71240  Biso   1.000  C
  C67      1.0000 0.75730  0.87450  0.21240  Biso   1.000  C
  C68      1.0000 0.12550  0.88280  0.21240  Biso   1.000  C
  C69      1.0000 0.11720  0.24270  0.21240  Biso   1.000  C
  C70      1.0000 0.87450  0.75730  0.28760  Biso   1.000  C
  C71      1.0000 0.24270  0.11720  0.28760  Biso   1.000  C
  C72      1.0000 0.88280  0.12550  0.28760  Biso   1.000  C
  H49      1.0000 0.22700  0.07570  0.78760  Biso   1.000  H
  H50      1.0000 0.92430  0.15130  0.78760  Biso   1.000  H
  H51      1.0000 0.84870  0.77300  0.78760  Biso   1.000  H
  H52      1.0000 0.07570  0.22700  0.71240  Biso   1.000  H
  H53      1.0000 0.77300  0.84870  0.71240  Biso   1.000  H
  H54      1.0000 0.15130  0.92430  0.71240  Biso   1.000  H
  H55      1.0000 0.77300  0.92430  0.21240  Biso   1.000  H
  H56      1.0000 0.07570  0.84870  0.21240  Biso   1.000  H
  H57      1.0000 0.15130  0.22700  0.21240  Biso   1.000  H
  H58      1.0000 0.92430  0.77300  0.28760  Biso   1.000  H
  H59      1.0000 0.22700  0.15130  0.28760  Biso   1.000  H
  H60      1.0000 0.84870  0.07570  0.28760  Biso   1.000  H
  H61      1.0000 0.25360  0.14330  0.68470  Biso   1.000  H
  H62      1.0000 0.85670  0.11030  0.68470  Biso   1.000  H
  H63      1.0000 0.88970  0.74640  0.68470  Biso   1.000  H
  H64      1.0000 0.14330  0.25360  0.81530  Biso   1.000  H
  H65      1.0000 0.74640  0.88970  0.81530  Biso   1.000  H
  H66      1.0000 0.11030  0.85670  0.81530  Biso   1.000  H
  H67      1.0000 0.74640  0.85670  0.31530  Biso   1.000  H
  H68      1.0000 0.14330  0.88970  0.31530  Biso   1.000  H
  H69      1.0000 0.11030  0.25360  0.31530  Biso   1.000  H
  H70      1.0000 0.85670  0.74640  0.18470  Biso   1.000  H
  H71      1.0000 0.25360  0.11030  0.18470  Biso   1.000  H
  H72      1.0000 0.88970  0.14330  0.18470  Biso   1.000  H
  H73      1.0000 0.20580  0.13280  0.82800  Biso   1.000  H
  H74      1.0000 0.86720  0.07300  0.82800  Biso   1.000  H
  H75      1.0000 0.92700  0.79420  0.82800  Biso   1.000  H
  H76      1.0000 0.13280  0.20580  0.67200  Biso   1.000  H
  H77      1.0000 0.79420  0.92700  0.67200  Biso   1.000  H
  H78      1.0000 0.07300  0.86720  0.67200  Biso   1.000  H
  H79      1.0000 0.79420  0.86720  0.17200  Biso   1.000  H
  H80      1.0000 0.13280  0.92700  0.17200  Biso   1.000  H
  H81      1.0000 0.07300  0.20580  0.17200  Biso   1.000  H
  H82      1.0000 0.86720  0.79420  0.32800  Biso   1.000  H
  H83      1.0000 0.20580  0.07300  0.32800  Biso   1.000  H
  H84      1.0000 0.92700  0.13280  0.32800  Biso   1.000  H
  C73      1.0000 0.42750  0.23380  0.07680  Biso   1.000  C
  C74      1.0000 0.76620  0.19370  0.07680  Biso   1.000  C
  C75      1.0000 0.80630  0.57250  0.07680  Biso   1.000  C
  C76      1.0000 0.23380  0.42750  0.42320  Biso   1.000  C
  C77      1.0000 0.57250  0.80630  0.42320  Biso   1.000  C
  C78      1.0000 0.19370  0.76620  0.42320  Biso   1.000  C
  C79      1.0000 0.57250  0.76620  0.92320  Biso   1.000  C
  C80      1.0000 0.23380  0.80630  0.92320  Biso   1.000  C
  C81      1.0000 0.19370  0.42750  0.92320  Biso   1.000  C
  C82      1.0000 0.76620  0.57250  0.57680  Biso   1.000  C
  C83      1.0000 0.42750  0.19370  0.57680  Biso   1.000  C
  C84      1.0000 0.80630  0.23380  0.57680  Biso   1.000  C
  H85      1.0000 0.46660  0.25660  0.14120  Biso   1.000  H
  H86      1.0000 0.74340  0.21000  0.14120  Biso   1.000  H
  H87      1.0000 0.79000  0.53340  0.14120  Biso   1.000  H
  H88      1.0000 0.25660  0.46660  0.35880  Biso   1.000  H
  H89      1.0000 0.53340  0.79000  0.35880  Biso   1.000  H
  H90      1.0000 0.21000  0.74340  0.35880  Biso   1.000  H
  H91      1.0000 0.53340  0.74340  0.85880  Biso   1.000  H
  H92      1.0000 0.25660  0.79000  0.85880  Biso   1.000  H
  H93      1.0000 0.21000  0.46660  0.85880  Biso   1.000  H
  H94      1.0000 0.74340  0.53340  0.64120  Biso   1.000  H
  H95      1.0000 0.46660  0.21000  0.64120  Biso   1.000  H
  H96      1.0000 0.79000  0.25660  0.64120  Biso   1.000  H
  C85      1.0000 0.38800  0.26630  0.03820  Biso   1.000  C
  C86      1.0000 0.73370  0.12170  0.03820  Biso   1.000  C
  C87      1.0000 0.87830  0.61200  0.03820  Biso   1.000  C
  C88      1.0000 0.26630  0.38800  0.46180  Biso   1.000  C
  C89      1.0000 0.61200  0.87830  0.46180  Biso   1.000  C
  C90      1.0000 0.12170  0.73370  0.46180  Biso   1.000  C
  C91      1.0000 0.61200  0.73370  0.96180  Biso   1.000  C
  C92      1.0000 0.26630  0.87830  0.96180  Biso   1.000  C
  C93      1.0000 0.12170  0.38800  0.96180  Biso   1.000  C
  C94      1.0000 0.73370  0.61200  0.53820  Biso   1.000  C
  C95      1.0000 0.38800  0.12170  0.53820  Biso   1.000  C
  C96      1.0000 0.87830  0.26630  0.53820  Biso   1.000  C
  C97      1.0000 0.30850  0.16430  0.88660  Biso   1.000  C
  C98      1.0000 0.83570  0.14420  0.88660  Biso   1.000  C
  C99      1.0000 0.85580  0.69150  0.88660  Biso   1.000  C
  C100     1.0000 0.16430  0.30850  0.61340  Biso   1.000  C
  C101     1.0000 0.69150  0.85580  0.61340  Biso   1.000  C
  C102     1.0000 0.14420  0.83570  0.61340  Biso   1.000  C
  C103     1.0000 0.69150  0.83570  0.11340  Biso   1.000  C
  C104     1.0000 0.16430  0.85580  0.11340  Biso   1.000  C
  C105     1.0000 0.14420  0.30850  0.11340  Biso   1.000  C
  C106     1.0000 0.83570  0.69150  0.38660  Biso   1.000  C
  C107     1.0000 0.30850  0.14420  0.38660  Biso   1.000  C
  C108     1.0000 0.85580  0.16430  0.38660  Biso   1.000  C
  C109     1.0000 0.51190  0.09970  0.20940  Biso   1.000  C
  C110     1.0000 0.90030  0.41220  0.20940  Biso   1.000  C
  C111     1.0000 0.58780  0.48810  0.20940  Biso   1.000  C
  C112     1.0000 0.09970  0.51190  0.29060  Biso   1.000  C
  C113     1.0000 0.48810  0.58780  0.29060  Biso   1.000  C
  C114     1.0000 0.41220  0.90030  0.29060  Biso   1.000  C
  C115     1.0000 0.48810  0.90030  0.79060  Biso   1.000  C
  C116     1.0000 0.09970  0.58780  0.79060  Biso   1.000  C
  C117     1.0000 0.41220  0.51190  0.79060  Biso   1.000  C
  C118     1.0000 0.90030  0.48810  0.70940  Biso   1.000  C
  C119     1.0000 0.51190  0.41220  0.70940  Biso   1.000  C
  C120     1.0000 0.58780  0.09970  0.70940  Biso   1.000  C
