data_image0
_cell_length_a       22.116
_cell_length_b       11.5791
_cell_length_c       16.8051
_cell_angle_alpha    90
_cell_angle_beta     130.986
_cell_angle_gamma    90

_symmetry_space_group_name_H-M    "P 1"
_symmetry_int_tables_number       1

loop_
  _symmetry_equiv_pos_as_xyz
  'x, y, z'

loop_
  _atom_site_label
  _atom_site_occupancy
  _atom_site_fract_x
  _atom_site_fract_y
  _atom_site_fract_z
  _atom_site_thermal_displace_type
  _atom_site_B_iso_or_equiv
  _atom_site_type_symbol
  Cu1      1.0000 0.96166  0.43730  0.91291  Biso   1.000  Cu
  Cu2      1.0000 0.03834  0.43730  0.58709  Biso   1.000  Cu
  Cu3      1.0000 0.46166  0.93730  0.91291  Biso   1.000  Cu
  Cu4      1.0000 0.53834  0.93730  0.58709  Biso   1.000  Cu
  Cu5      1.0000 0.03834  0.56270  0.08709  Biso   1.000  Cu
  Cu6      1.0000 0.96166  0.56270  0.41291  Biso   1.000  Cu
  Cu7      1.0000 0.53834  0.06270  0.08709  Biso   1.000  Cu
  Cu8      1.0000 0.46166  0.06270  0.41291  Biso   1.000  Cu
  O1       1.0000 0.88810  0.41130  0.93960  Biso   1.000  O
  O2       1.0000 0.11190  0.41130  0.56040  Biso   1.000  O
  O3       1.0000 0.38810  0.91130  0.93960  Biso   1.000  O
  O4       1.0000 0.61190  0.91130  0.56040  Biso   1.000  O
  O5       1.0000 0.11190  0.58870  0.06040  Biso   1.000  O
  O6       1.0000 0.88810  0.58870  0.43960  Biso   1.000  O
  O7       1.0000 0.61190  0.08870  0.06040  Biso   1.000  O
  O8       1.0000 0.38810  0.08870  0.43960  Biso   1.000  O
  O9       1.0000 0.94990  0.52180  0.08350  Biso   1.000  O
  O10      1.0000 0.05010  0.52180  0.41650  Biso   1.000  O
  O11      1.0000 0.44990  0.02180  0.08350  Biso   1.000  O
  O12      1.0000 0.55010  0.02180  0.41650  Biso   1.000  O
  O13      1.0000 0.05010  0.47820  0.91650  Biso   1.000  O
  O14      1.0000 0.94990  0.47820  0.58350  Biso   1.000  O
  O15      1.0000 0.55010  0.97820  0.91650  Biso   1.000  O
  O16      1.0000 0.44990  0.97820  0.58350  Biso   1.000  O
  N1       1.0000 0.88270  0.35800  0.76090  Biso   1.000  N
  N2       1.0000 0.11730  0.35800  0.73910  Biso   1.000  N
  N3       1.0000 0.38270  0.85800  0.76090  Biso   1.000  N
  N4       1.0000 0.61730  0.85800  0.73910  Biso   1.000  N
  N5       1.0000 0.11730  0.64200  0.23910  Biso   1.000  N
  N6       1.0000 0.88270  0.64200  0.26090  Biso   1.000  N
  N7       1.0000 0.61730  0.14200  0.23910  Biso   1.000  N
  N8       1.0000 0.38270  0.14200  0.26090  Biso   1.000  N
  O17      1.0000 0.58810  0.09020  0.64840  Biso   1.000  O
  O18      1.0000 0.41190  0.09020  0.85160  Biso   1.000  O
  O19      1.0000 0.08810  0.59020  0.64840  Biso   1.000  O
  O20      1.0000 0.91190  0.59020  0.85160  Biso   1.000  O
  O21      1.0000 0.41190  0.90980  0.35160  Biso   1.000  O
  O22      1.0000 0.58810  0.90980  0.14840  Biso   1.000  O
  O23      1.0000 0.91190  0.40980  0.35160  Biso   1.000  O
  O24      1.0000 0.08810  0.40980  0.14840  Biso   1.000  O
  O25      1.0000 0.52520  0.19590  0.50180  Biso   1.000  O
  O26      1.0000 0.47480  0.19590  0.99820  Biso   1.000  O
  O27      1.0000 0.02520  0.69590  0.50180  Biso   1.000  O
  O28      1.0000 0.97480  0.69590  0.99820  Biso   1.000  O
  O29      1.0000 0.47480  0.80410  0.49820  Biso   1.000  O
  O30      1.0000 0.52520  0.80410  0.00180  Biso   1.000  O
  O31      1.0000 0.97480  0.30410  0.49820  Biso   1.000  O
  O32      1.0000 0.02520  0.30410  0.00180  Biso   1.000  O
  O33      1.0000 0.77310  0.34990  0.94540  Biso   1.000  O
  O34      1.0000 0.22690  0.34990  0.55460  Biso   1.000  O
  O35      1.0000 0.27310  0.84990  0.94540  Biso   1.000  O
  O36      1.0000 0.72690  0.84990  0.55460  Biso   1.000  O
  O37      1.0000 0.22690  0.65010  0.05460  Biso   1.000  O
  O38      1.0000 0.77310  0.65010  0.44540  Biso   1.000  O
  O39      1.0000 0.72690  0.15010  0.05460  Biso   1.000  O
  O40      1.0000 0.27310  0.15010  0.44540  Biso   1.000  O
  C1       1.0000 0.61990  0.28810  0.66710  Biso   1.000  C
  C2       1.0000 0.38010  0.28810  0.83290  Biso   1.000  C
  C3       1.0000 0.11990  0.78810  0.66710  Biso   1.000  C
  C4       1.0000 0.88010  0.78810  0.83290  Biso   1.000  C
  C5       1.0000 0.38010  0.71190  0.33290  Biso   1.000  C
  C6       1.0000 0.61990  0.71190  0.16710  Biso   1.000  C
  C7       1.0000 0.88010  0.21190  0.33290  Biso   1.000  C
  C8       1.0000 0.11990  0.21190  0.16710  Biso   1.000  C
  C9       1.0000 0.60610  0.39630  0.62170  Biso   1.000  C
  C10      1.0000 0.39390  0.39630  0.87830  Biso   1.000  C
  C11      1.0000 0.10610  0.89630  0.62170  Biso   1.000  C
  C12      1.0000 0.89390  0.89630  0.87830  Biso   1.000  C
  C13      1.0000 0.39390  0.60370  0.37830  Biso   1.000  C
  C14      1.0000 0.60610  0.60370  0.12170  Biso   1.000  C
  C15      1.0000 0.89390  0.10370  0.37830  Biso   1.000  C
  C16      1.0000 0.10610  0.10370  0.12170  Biso   1.000  C
  H1       1.0000 0.56710  0.40410  0.54890  Biso   1.000  H
  H2       1.0000 0.43290  0.40410  0.95110  Biso   1.000  H
  H3       1.0000 0.06710  0.90410  0.54890  Biso   1.000  H
  H4       1.0000 0.93290  0.90410  0.95110  Biso   1.000  H
  H5       1.0000 0.43290  0.59590  0.45110  Biso   1.000  H
  H6       1.0000 0.56710  0.59590  0.04890  Biso   1.000  H
  H7       1.0000 0.93290  0.09590  0.45110  Biso   1.000  H
  H8       1.0000 0.06710  0.09590  0.04890  Biso   1.000  H
  C17      1.0000 0.67620  0.27590  0.77550  Biso   1.000  C
  C18      1.0000 0.32380  0.27590  0.72450  Biso   1.000  C
  C19      1.0000 0.17620  0.77590  0.77550  Biso   1.000  C
  C20      1.0000 0.82380  0.77590  0.72450  Biso   1.000  C
  C21      1.0000 0.32380  0.72410  0.22450  Biso   1.000  C
  C22      1.0000 0.67620  0.72410  0.27550  Biso   1.000  C
  C23      1.0000 0.82380  0.22410  0.22450  Biso   1.000  C
  C24      1.0000 0.17620  0.22410  0.27550  Biso   1.000  C
  H9       1.0000 0.68540  0.20390  0.80620  Biso   1.000  H
  H10      1.0000 0.31460  0.20390  0.69380  Biso   1.000  H
  H11      1.0000 0.18540  0.70390  0.80620  Biso   1.000  H
  H12      1.0000 0.81460  0.70390  0.69380  Biso   1.000  H
  H13      1.0000 0.31460  0.79610  0.19380  Biso   1.000  H
  H14      1.0000 0.68540  0.79610  0.30620  Biso   1.000  H
  H15      1.0000 0.81460  0.29610  0.19380  Biso   1.000  H
  H16      1.0000 0.18540  0.29610  0.30620  Biso   1.000  H
  C25      1.0000 0.70550  0.47930  0.79270  Biso   1.000  C
  C26      1.0000 0.29450  0.47930  0.70730  Biso   1.000  C
  C27      1.0000 0.20550  0.97930  0.79270  Biso   1.000  C
  C28      1.0000 0.79450  0.97930  0.70730  Biso   1.000  C
  C29      1.0000 0.29450  0.52070  0.20730  Biso   1.000  C
  C30      1.0000 0.70550  0.52070  0.29270  Biso   1.000  C
  C31      1.0000 0.79450  0.02070  0.20730  Biso   1.000  C
  C32      1.0000 0.20550  0.02070  0.29270  Biso   1.000  C
  H17      1.0000 0.73420  0.54310  0.83520  Biso   1.000  H
  H18      1.0000 0.26580  0.54310  0.66480  Biso   1.000  H
  H19      1.0000 0.23420  0.04310  0.83520  Biso   1.000  H
  H20      1.0000 0.76580  0.04310  0.66480  Biso   1.000  H
  H21      1.0000 0.26580  0.45690  0.16480  Biso   1.000  H
  H22      1.0000 0.73420  0.45690  0.33520  Biso   1.000  H
  H23      1.0000 0.76580  0.95690  0.16480  Biso   1.000  H
  H24      1.0000 0.23420  0.95690  0.33520  Biso   1.000  H
  C33      1.0000 0.57410  0.18360  0.60080  Biso   1.000  C
  C34      1.0000 0.42590  0.18360  0.89920  Biso   1.000  C
  C35      1.0000 0.07410  0.68360  0.60080  Biso   1.000  C
  C36      1.0000 0.92590  0.68360  0.89920  Biso   1.000  C
  C37      1.0000 0.42590  0.81640  0.39920  Biso   1.000  C
  C38      1.0000 0.57410  0.81640  0.10080  Biso   1.000  C
  C39      1.0000 0.92590  0.31640  0.39920  Biso   1.000  C
  C40      1.0000 0.07410  0.31640  0.10080  Biso   1.000  C
  C41      1.0000 0.63670  0.60750  0.63430  Biso   1.000  C
  C42      1.0000 0.36330  0.60750  0.86570  Biso   1.000  C
  C43      1.0000 0.13670  0.10750  0.63430  Biso   1.000  C
  C44      1.0000 0.86330  0.10750  0.86570  Biso   1.000  C
  C45      1.0000 0.36330  0.39250  0.36570  Biso   1.000  C
  C46      1.0000 0.63670  0.39250  0.13430  Biso   1.000  C
  C47      1.0000 0.86330  0.89250  0.36570  Biso   1.000  C
  C48      1.0000 0.13670  0.89250  0.13430  Biso   1.000  C
  H25      1.0000 0.59010  0.64350  0.61650  Biso   1.000  H
  H26      1.0000 0.40990  0.64350  0.88350  Biso   1.000  H
  H27      1.0000 0.09010  0.14350  0.61650  Biso   1.000  H
  H28      1.0000 0.90990  0.14350  0.88350  Biso   1.000  H
  H29      1.0000 0.40990  0.35650  0.38350  Biso   1.000  H
  H30      1.0000 0.59010  0.35650  0.11650  Biso   1.000  H
  H31      1.0000 0.90990  0.85650  0.38350  Biso   1.000  H
  H32      1.0000 0.09010  0.85650  0.11650  Biso   1.000  H
  H33      1.0000 0.68280  0.65510  0.68370  Biso   1.000  H
  H34      1.0000 0.31720  0.65510  0.81630  Biso   1.000  H
  H35      1.0000 0.18280  0.15510  0.68370  Biso   1.000  H
  H36      1.0000 0.81720  0.15510  0.81630  Biso   1.000  H
  H37      1.0000 0.31720  0.34490  0.31630  Biso   1.000  H
  H38      1.0000 0.68280  0.34490  0.18370  Biso   1.000  H
  H39      1.0000 0.81720  0.84490  0.31630  Biso   1.000  H
  H40      1.0000 0.18280  0.84490  0.18370  Biso   1.000  H
  H41      1.0000 0.62940  0.59800  0.57170  Biso   1.000  H
  H42      1.0000 0.37060  0.59800  0.92830  Biso   1.000  H
  H43      1.0000 0.12940  0.09800  0.57170  Biso   1.000  H
  H44      1.0000 0.87060  0.09800  0.92830  Biso   1.000  H
  H45      1.0000 0.37060  0.40200  0.42830  Biso   1.000  H
  H46      1.0000 0.62940  0.40200  0.07170  Biso   1.000  H
  H47      1.0000 0.87060  0.90200  0.42830  Biso   1.000  H
  H48      1.0000 0.12940  0.90200  0.07170  Biso   1.000  H
  C49      1.0000 0.89430  0.45740  0.01190  Biso   1.000  C
  C50      1.0000 0.10570  0.45740  0.48810  Biso   1.000  C
  C51      1.0000 0.39430  0.95740  0.01190  Biso   1.000  C
  C52      1.0000 0.60570  0.95740  0.48810  Biso   1.000  C
  C53      1.0000 0.10570  0.54260  0.98810  Biso   1.000  C
  C54      1.0000 0.89430  0.54260  0.51190  Biso   1.000  C
  C55      1.0000 0.60570  0.04260  0.98810  Biso   1.000  C
  C56      1.0000 0.39430  0.04260  0.51190  Biso   1.000  C
  C57      1.0000 0.64890  0.49250  0.68250  Biso   1.000  C
  C58      1.0000 0.35110  0.49250  0.81750  Biso   1.000  C
  C59      1.0000 0.14890  0.99250  0.68250  Biso   1.000  C
  C60      1.0000 0.85110  0.99250  0.81750  Biso   1.000  C
  C61      1.0000 0.35110  0.50750  0.31750  Biso   1.000  C
  C62      1.0000 0.64890  0.50750  0.18250  Biso   1.000  C
  C63      1.0000 0.85110  0.00750  0.31750  Biso   1.000  C
  C64      1.0000 0.14890  0.00750  0.18250  Biso   1.000  C
  C65      1.0000 0.77750  0.27150  0.55460  Biso   1.000  C
  C66      1.0000 0.22250  0.27150  0.94540  Biso   1.000  C
  C67      1.0000 0.27750  0.77150  0.55460  Biso   1.000  C
  C68      1.0000 0.72250  0.77150  0.94540  Biso   1.000  C
  C69      1.0000 0.22250  0.72850  0.44540  Biso   1.000  C
  C70      1.0000 0.77750  0.72850  0.05460  Biso   1.000  C
  C71      1.0000 0.72250  0.22850  0.44540  Biso   1.000  C
  C72      1.0000 0.27750  0.22850  0.05460  Biso   1.000  C
  C73      1.0000 0.80610  0.39300  0.68980  Biso   1.000  C
  C74      1.0000 0.19390  0.39300  0.81020  Biso   1.000  C
  C75      1.0000 0.30610  0.89300  0.68980  Biso   1.000  C
  C76      1.0000 0.69390  0.89300  0.81020  Biso   1.000  C
  C77      1.0000 0.19390  0.60700  0.31020  Biso   1.000  C
  C78      1.0000 0.80610  0.60700  0.18980  Biso   1.000  C
  C79      1.0000 0.69390  0.10700  0.31020  Biso   1.000  C
  C80      1.0000 0.30610  0.10700  0.18980  Biso   1.000  C
  H49      1.0000 0.78880  0.45000  0.71010  Biso   1.000  H
  H50      1.0000 0.21120  0.45000  0.78990  Biso   1.000  H
  H51      1.0000 0.28880  0.95000  0.71010  Biso   1.000  H
  H52      1.0000 0.71120  0.95000  0.78990  Biso   1.000  H
  H53      1.0000 0.21120  0.55000  0.28990  Biso   1.000  H
  H54      1.0000 0.78880  0.55000  0.21010  Biso   1.000  H
  H55      1.0000 0.71120  0.05000  0.28990  Biso   1.000  H
  H56      1.0000 0.28880  0.05000  0.21010  Biso   1.000  H
  C81      1.0000 0.82810  0.43740  0.01540  Biso   1.000  C
  C82      1.0000 0.17190  0.43740  0.48460  Biso   1.000  C
  C83      1.0000 0.32810  0.93740  0.01540  Biso   1.000  C
  C84      1.0000 0.67190  0.93740  0.48460  Biso   1.000  C
  C85      1.0000 0.17190  0.56260  0.98460  Biso   1.000  C
  C86      1.0000 0.82810  0.56260  0.51540  Biso   1.000  C
  C87      1.0000 0.67190  0.06260  0.98460  Biso   1.000  C
  C88      1.0000 0.32810  0.06260  0.51540  Biso   1.000  C
  H57      1.0000 0.79900  0.50900  0.99810  Biso   1.000  H
  H58      1.0000 0.20100  0.50900  0.50190  Biso   1.000  H
  H59      1.0000 0.29900  0.00900  0.99810  Biso   1.000  H
  H60      1.0000 0.70100  0.00900  0.50190  Biso   1.000  H
  H61      1.0000 0.20100  0.49100  0.00190  Biso   1.000  H
  H62      1.0000 0.79900  0.49100  0.49810  Biso   1.000  H
  H63      1.0000 0.70100  0.99100  0.00190  Biso   1.000  H
  H64      1.0000 0.29900  0.99100  0.49810  Biso   1.000  H
  H65      1.0000 0.85220  0.41640  0.08670  Biso   1.000  H
  H66      1.0000 0.14780  0.41640  0.41330  Biso   1.000  H
  H67      1.0000 0.35220  0.91640  0.08670  Biso   1.000  H
  H68      1.0000 0.64780  0.91640  0.41330  Biso   1.000  H
  H69      1.0000 0.14780  0.58360  0.91330  Biso   1.000  H
  H70      1.0000 0.85220  0.58360  0.58670  Biso   1.000  H
  H71      1.0000 0.64780  0.08360  0.91330  Biso   1.000  H
  H72      1.0000 0.35220  0.08360  0.58670  Biso   1.000  H
  C89      1.0000 0.75270  0.35100  0.59010  Biso   1.000  C
  C90      1.0000 0.24730  0.35100  0.90990  Biso   1.000  C
  C91      1.0000 0.25270  0.85100  0.59010  Biso   1.000  C
  C92      1.0000 0.74730  0.85100  0.90990  Biso   1.000  C
  C93      1.0000 0.24730  0.64900  0.40990  Biso   1.000  C
  C94      1.0000 0.75270  0.64900  0.09010  Biso   1.000  C
  C95      1.0000 0.74730  0.14900  0.40990  Biso   1.000  C
  C96      1.0000 0.25270  0.14900  0.09010  Biso   1.000  C
  H73      1.0000 0.69960  0.37560  0.54570  Biso   1.000  H
  H74      1.0000 0.30040  0.37560  0.95430  Biso   1.000  H
  H75      1.0000 0.19960  0.87560  0.54570  Biso   1.000  H
  H76      1.0000 0.80040  0.87560  0.95430  Biso   1.000  H
  H77      1.0000 0.30040  0.62440  0.45430  Biso   1.000  H
  H78      1.0000 0.69960  0.62440  0.04570  Biso   1.000  H
  H79      1.0000 0.80040  0.12440  0.45430  Biso   1.000  H
  H80      1.0000 0.19960  0.12440  0.04570  Biso   1.000  H
  C97      1.0000 0.85400  0.22510  0.62780  Biso   1.000  C
  C98      1.0000 0.14600  0.22510  0.87220  Biso   1.000  C
  C99      1.0000 0.35400  0.72510  0.62780  Biso   1.000  C
  C100     1.0000 0.64600  0.72510  0.87220  Biso   1.000  C
  C101     1.0000 0.14600  0.77490  0.37220  Biso   1.000  C
  C102     1.0000 0.85400  0.77490  0.12780  Biso   1.000  C
  C103     1.0000 0.64600  0.27490  0.37220  Biso   1.000  C
  C104     1.0000 0.35400  0.27490  0.12780  Biso   1.000  C
  H81      1.0000 0.87110  0.16470  0.61030  Biso   1.000  H
  H82      1.0000 0.12890  0.16470  0.88970  Biso   1.000  H
  H83      1.0000 0.37110  0.66470  0.61030  Biso   1.000  H
  H84      1.0000 0.62890  0.66470  0.88970  Biso   1.000  H
  H85      1.0000 0.12890  0.83530  0.38970  Biso   1.000  H
  H86      1.0000 0.87110  0.83530  0.11030  Biso   1.000  H
  H87      1.0000 0.62890  0.33530  0.38970  Biso   1.000  H
  H88      1.0000 0.37110  0.33530  0.11030  Biso   1.000  H
  C105     1.0000 0.90360  0.27260  0.72760  Biso   1.000  C
  C106     1.0000 0.09640  0.27260  0.77240  Biso   1.000  C
  C107     1.0000 0.40360  0.77260  0.72760  Biso   1.000  C
  C108     1.0000 0.59640  0.77260  0.77240  Biso   1.000  C
  C109     1.0000 0.09640  0.72740  0.27240  Biso   1.000  C
  C110     1.0000 0.90360  0.72740  0.22760  Biso   1.000  C
  C111     1.0000 0.59640  0.22740  0.27240  Biso   1.000  C
  C112     1.0000 0.40360  0.22740  0.22760  Biso   1.000  C
  H89      1.0000 0.95540  0.24370  0.77600  Biso   1.000  H
  H90      1.0000 0.04460  0.24370  0.72400  Biso   1.000  H
  H91      1.0000 0.45540  0.74370  0.77600  Biso   1.000  H
  H92      1.0000 0.54460  0.74370  0.72400  Biso   1.000  H
  H93      1.0000 0.04460  0.75630  0.22400  Biso   1.000  H
  H94      1.0000 0.95540  0.75630  0.27600  Biso   1.000  H
  H95      1.0000 0.54460  0.25630  0.22400  Biso   1.000  H
  H96      1.0000 0.45540  0.25630  0.27600  Biso   1.000  H
  C113     1.0000 0.71910  0.37180  0.83850  Biso   1.000  C
  C114     1.0000 0.28090  0.37180  0.66150  Biso   1.000  C
  C115     1.0000 0.21910  0.87180  0.83850  Biso   1.000  C
  C116     1.0000 0.78090  0.87180  0.66150  Biso   1.000  C
  C117     1.0000 0.28090  0.62820  0.16150  Biso   1.000  C
  C118     1.0000 0.71910  0.62820  0.33850  Biso   1.000  C
  C119     1.0000 0.78090  0.12820  0.16150  Biso   1.000  C
  C120     1.0000 0.21910  0.12820  0.33850  Biso   1.000  C
  N9       1.0000 0.50000  0.63020  0.25000  Biso   1.000  N
  N10      1.0000 0.00000  0.13020  0.25000  Biso   1.000  N
  N11      1.0000 0.50000  0.36980  0.75000  Biso   1.000  N
  N12      1.0000 1.00000  0.86980  0.75000  Biso   1.000  N
  O41      1.0000 0.50000  0.44950  0.25000  Biso   1.000  O
  O42      1.0000 0.00000  0.94950  0.25000  Biso   1.000  O
  O43      1.0000 0.50000  0.55050  0.75000  Biso   1.000  O
  O44      1.0000 1.00000  0.05050  0.75000  Biso   1.000  O
  C121     1.0000 0.50000  0.75340  0.25000  Biso   1.000  C
  C122     1.0000 0.00000  0.25340  0.25000  Biso   1.000  C
  C123     1.0000 0.50000  0.24660  0.75000  Biso   1.000  C
  C124     1.0000 1.00000  0.74660  0.75000  Biso   1.000  C
  C125     1.0000 0.46880  0.53810  0.18890  Biso   1.000  C
  C126     1.0000 0.53120  0.53810  0.31110  Biso   1.000  C
  C127     1.0000 0.96880  0.03810  0.18890  Biso   1.000  C
  C128     1.0000 0.03120  0.03810  0.31110  Biso   1.000  C
  C129     1.0000 0.53120  0.46190  0.81110  Biso   1.000  C
  C130     1.0000 0.46880  0.46190  0.68890  Biso   1.000  C
  C131     1.0000 0.03120  0.96190  0.81110  Biso   1.000  C
  C132     1.0000 0.96880  0.96190  0.68890  Biso   1.000  C
  C133     1.0000 0.55950  0.62500  0.35730  Biso   1.000  C
  C134     1.0000 0.44050  0.62500  0.14270  Biso   1.000  C
  C135     1.0000 0.05950  0.12500  0.35730  Biso   1.000  C
  C136     1.0000 0.94050  0.12500  0.14270  Biso   1.000  C
  C137     1.0000 0.44050  0.37500  0.64270  Biso   1.000  C
  C138     1.0000 0.55950  0.37500  0.85730  Biso   1.000  C
  C139     1.0000 0.94050  0.87500  0.64270  Biso   1.000  C
  C140     1.0000 0.05950  0.87500  0.85730  Biso   1.000  C
  C141     1.0000 0.19740  0.64400  0.29600  Biso   1.000  C
  C142     1.0000 0.80260  0.64400  0.20400  Biso   1.000  C
  C143     1.0000 0.69740  0.14400  0.29600  Biso   1.000  C
  C144     1.0000 0.30260  0.14400  0.20400  Biso   1.000  C
  C145     1.0000 0.80260  0.35600  0.70400  Biso   1.000  C
  C146     1.0000 0.19740  0.35600  0.79600  Biso   1.000  C
  C147     1.0000 0.30260  0.85600  0.70400  Biso   1.000  C
  C148     1.0000 0.69740  0.85600  0.79600  Biso   1.000  C
  C149     1.0000 0.24880  0.68400  0.39700  Biso   1.000  C
  C150     1.0000 0.75120  0.68400  0.10300  Biso   1.000  C
  C151     1.0000 0.74880  0.18400  0.39700  Biso   1.000  C
  C152     1.0000 0.25120  0.18400  0.10300  Biso   1.000  C
  C153     1.0000 0.75120  0.31600  0.60300  Biso   1.000  C
  C154     1.0000 0.24880  0.31600  0.89700  Biso   1.000  C
  C155     1.0000 0.25120  0.81600  0.60300  Biso   1.000  C
  C156     1.0000 0.74880  0.81600  0.89700  Biso   1.000  C
  C157     1.0000 0.08930  0.67400  0.28430  Biso   1.000  C
  C158     1.0000 0.91070  0.67400  0.21570  Biso   1.000  C
  C159     1.0000 0.58930  0.17400  0.28430  Biso   1.000  C
  C160     1.0000 0.41070  0.17400  0.21570  Biso   1.000  C
  C161     1.0000 0.91070  0.32600  0.71570  Biso   1.000  C
  C162     1.0000 0.08930  0.32600  0.78430  Biso   1.000  C
  C163     1.0000 0.41070  0.82600  0.71570  Biso   1.000  C
  C164     1.0000 0.58930  0.82600  0.78430  Biso   1.000  C
  C165     1.0000 0.13800  0.71800  0.38560  Biso   1.000  C
  C166     1.0000 0.86200  0.71800  0.11440  Biso   1.000  C
  C167     1.0000 0.63800  0.21800  0.38560  Biso   1.000  C
  C168     1.0000 0.36200  0.21800  0.11440  Biso   1.000  C
  C169     1.0000 0.86200  0.28200  0.61440  Biso   1.000  C
  C170     1.0000 0.13800  0.28200  0.88560  Biso   1.000  C
  C171     1.0000 0.36200  0.78200  0.61440  Biso   1.000  C
  C172     1.0000 0.63800  0.78200  0.88560  Biso   1.000  C
  H97      1.0000 0.21780  0.61890  0.26490  Biso   1.000  H
  H98      1.0000 0.78220  0.61890  0.23510  Biso   1.000  H
  H99      1.0000 0.71780  0.11890  0.26490  Biso   1.000  H
  H100     1.0000 0.28220  0.11890  0.23510  Biso   1.000  H
  H101     1.0000 0.78220  0.38110  0.73510  Biso   1.000  H
  H102     1.0000 0.21780  0.38110  0.76490  Biso   1.000  H
  H103     1.0000 0.28220  0.88110  0.73510  Biso   1.000  H
  H104     1.0000 0.71780  0.88110  0.76490  Biso   1.000  H
  H105     1.0000 0.30360  0.68010  0.43470  Biso   1.000  H
  H106     1.0000 0.69640  0.68010  0.06530  Biso   1.000  H
  H107     1.0000 0.80360  0.18010  0.43470  Biso   1.000  H
  H108     1.0000 0.19640  0.18010  0.06530  Biso   1.000  H
  H109     1.0000 0.69640  0.31990  0.56530  Biso   1.000  H
  H110     1.0000 0.30360  0.31990  0.93470  Biso   1.000  H
  H111     1.0000 0.19640  0.81990  0.56530  Biso   1.000  H
  H112     1.0000 0.80360  0.81990  0.93470  Biso   1.000  H
  H113     1.0000 0.03470  0.66660  0.24690  Biso   1.000  H
  H114     1.0000 0.96530  0.66660  0.25310  Biso   1.000  H
  H115     1.0000 0.53470  0.16660  0.24690  Biso   1.000  H
  H116     1.0000 0.46530  0.16660  0.25310  Biso   1.000  H
  H117     1.0000 0.96530  0.33340  0.75310  Biso   1.000  H
  H118     1.0000 0.03470  0.33340  0.74690  Biso   1.000  H
  H119     1.0000 0.46530  0.83340  0.75310  Biso   1.000  H
  H120     1.0000 0.53470  0.83340  0.74690  Biso   1.000  H
  H121     1.0000 0.11590  0.74020  0.41500  Biso   1.000  H
  H122     1.0000 0.88410  0.74020  0.08500  Biso   1.000  H
  H123     1.0000 0.61590  0.24020  0.41500  Biso   1.000  H
  H124     1.0000 0.38410  0.24020  0.08500  Biso   1.000  H
  H125     1.0000 0.88410  0.25980  0.58500  Biso   1.000  H
  H126     1.0000 0.11590  0.25980  0.91500  Biso   1.000  H
  H127     1.0000 0.38410  0.75980  0.58500  Biso   1.000  H
  H128     1.0000 0.61590  0.75980  0.91500  Biso   1.000  H
