data_image0
_cell_length_a       29.8354
_cell_length_b       11.8641
_cell_length_c       11.1225
_cell_angle_alpha    90
_cell_angle_beta     90
_cell_angle_gamma    90

_symmetry_space_group_name_H-M    "P 1"
_symmetry_int_tables_number       1

loop_
  _symmetry_equiv_pos_as_xyz
  'x, y, z'

loop_
  _atom_site_label
  _atom_site_occupancy
  _atom_site_fract_x
  _atom_site_fract_y
  _atom_site_fract_z
  _atom_site_thermal_displace_type
  _atom_site_B_iso_or_equiv
  _atom_site_type_symbol
  Cu1      1.0000 0.45928  0.63394  0.88857  Biso   1.000  Cu
  Cu2      1.0000 0.54072  0.36606  0.88857  Biso   1.000  Cu
  Cu3      1.0000 0.95928  0.86606  0.11143  Biso   1.000  Cu
  Cu4      1.0000 0.04072  0.13394  0.11143  Biso   1.000  Cu
  Cu5      1.0000 0.33508  0.85252  0.83211  Biso   1.000  Cu
  Cu6      1.0000 0.66492  0.14748  0.83211  Biso   1.000  Cu
  Cu7      1.0000 0.83508  0.64748  0.16789  Biso   1.000  Cu
  Cu8      1.0000 0.16492  0.35252  0.16789  Biso   1.000  Cu
  N1       1.0000 0.33590  0.86100  0.01570  Biso   1.000  N
  N2       1.0000 0.66410  0.13900  0.01570  Biso   1.000  N
  N3       1.0000 0.83590  0.63900  0.98430  Biso   1.000  N
  N4       1.0000 0.16410  0.36100  0.98430  Biso   1.000  N
  C1       1.0000 0.46240  0.62730  0.32220  Biso   1.000  C
  C2       1.0000 0.53760  0.37270  0.32220  Biso   1.000  C
  C3       1.0000 0.96240  0.87270  0.67780  Biso   1.000  C
  C4       1.0000 0.03760  0.12730  0.67780  Biso   1.000  C
  N5       1.0000 0.45890  0.63370  0.07000  Biso   1.000  N
  N6       1.0000 0.54110  0.36630  0.07000  Biso   1.000  N
  N7       1.0000 0.95890  0.86630  0.93000  Biso   1.000  N
  N8       1.0000 0.04110  0.13370  0.93000  Biso   1.000  N
  N9       1.0000 0.46160  0.63170  0.70610  Biso   1.000  N
  N10      1.0000 0.53840  0.36830  0.70610  Biso   1.000  N
  N11      1.0000 0.96160  0.86830  0.29390  Biso   1.000  N
  N12      1.0000 0.03840  0.13170  0.29390  Biso   1.000  N
  C5       1.0000 0.46310  0.62730  0.45750  Biso   1.000  C
  C6       1.0000 0.53690  0.37270  0.45750  Biso   1.000  C
  C7       1.0000 0.96310  0.87270  0.54250  Biso   1.000  C
  C8       1.0000 0.03690  0.12730  0.54250  Biso   1.000  C
  C9       1.0000 0.33990  0.87650  0.39810  Biso   1.000  C
  C10      1.0000 0.66010  0.12350  0.39810  Biso   1.000  C
  C11      1.0000 0.83990  0.62350  0.60190  Biso   1.000  C
  C12      1.0000 0.16010  0.37650  0.60190  Biso   1.000  C
  N13      1.0000 0.33800  0.86630  0.65010  Biso   1.000  N
  N14      1.0000 0.66200  0.13370  0.65010  Biso   1.000  N
  N15      1.0000 0.83800  0.63370  0.34990  Biso   1.000  N
  N16      1.0000 0.16200  0.36630  0.34990  Biso   1.000  N
  O1       1.0000 0.38706  0.01250  0.83620  Biso   1.000  O
  O2       1.0000 0.61294  0.98750  0.83620  Biso   1.000  O
  O3       1.0000 0.88706  0.48750  0.16380  Biso   1.000  O
  O4       1.0000 0.11294  0.51250  0.16380  Biso   1.000  O
  O5       1.0000 0.41500  0.51370  0.88370  Biso   1.000  O
  O6       1.0000 0.58500  0.48630  0.88370  Biso   1.000  O
  O7       1.0000 0.91500  0.98630  0.11630  Biso   1.000  O
  O8       1.0000 0.08500  0.01370  0.11630  Biso   1.000  O
  O9       1.0000 0.46927  0.80680  0.88640  Biso   1.000  O
  O10      1.0000 0.53073  0.19320  0.88640  Biso   1.000  O
  O11      1.0000 0.96927  0.69320  0.11360  Biso   1.000  O
  O12      1.0000 0.03073  0.30680  0.11360  Biso   1.000  O
  O13      1.0000 0.46909  0.38560  0.90050  Biso   1.000  O
  O14      1.0000 0.53091  0.61440  0.90050  Biso   1.000  O
  O15      1.0000 0.96909  0.11440  0.09950  Biso   1.000  O
  O16      1.0000 0.03091  0.88560  0.09950  Biso   1.000  O
  Cl1      1.0000 0.20400  0.06440  0.49930  Biso   1.000  Cl
  Cl2      1.0000 0.79600  0.93560  0.49930  Biso   1.000  Cl
  Cl3      1.0000 0.70400  0.43560  0.50070  Biso   1.000  Cl
  Cl4      1.0000 0.29600  0.56440  0.50070  Biso   1.000  Cl
  C13      1.0000 0.37810  0.12780  0.83650  Biso   1.000  C
  C14      1.0000 0.62190  0.87220  0.83650  Biso   1.000  C
  C15      1.0000 0.87810  0.37220  0.16350  Biso   1.000  C
  C16      1.0000 0.12190  0.62780  0.16350  Biso   1.000  C
  O17      1.0000 0.27440  0.91180  0.83520  Biso   1.000  O
  O18      1.0000 0.72560  0.08820  0.83520  Biso   1.000  O
  O19      1.0000 0.77440  0.58820  0.16480  Biso   1.000  O
  O20      1.0000 0.22560  0.41180  0.16480  Biso   1.000  O
  C17      1.0000 0.35100  0.34950  0.83850  Biso   1.000  C
  C18      1.0000 0.64900  0.65050  0.83850  Biso   1.000  C
  C19      1.0000 0.85100  0.15050  0.16150  Biso   1.000  C
  C20      1.0000 0.14900  0.84950  0.16150  Biso   1.000  C
  H1       1.0000 0.34210  0.42460  0.84080  Biso   1.000  H
  H2       1.0000 0.65790  0.57540  0.84080  Biso   1.000  H
  H3       1.0000 0.84210  0.07540  0.15920  Biso   1.000  H
  H4       1.0000 0.15790  0.92460  0.15920  Biso   1.000  H
  C21      1.0000 0.33870  0.87470  0.26590  Biso   1.000  C
  C22      1.0000 0.66130  0.12530  0.26590  Biso   1.000  C
  C23      1.0000 0.83870  0.62530  0.73410  Biso   1.000  C
  C24      1.0000 0.16130  0.37470  0.73410  Biso   1.000  C
  C25      1.0000 0.42640  0.59290  0.64410  Biso   1.000  C
  C26      1.0000 0.57360  0.40710  0.64410  Biso   1.000  C
  C27      1.0000 0.92640  0.90710  0.35590  Biso   1.000  C
  C28      1.0000 0.07360  0.09290  0.35590  Biso   1.000  C
  H5       1.0000 0.40140  0.56710  0.68560  Biso   1.000  H
  H6       1.0000 0.59860  0.43290  0.68560  Biso   1.000  H
  H7       1.0000 0.90140  0.93290  0.31440  Biso   1.000  H
  H8       1.0000 0.09860  0.06710  0.31440  Biso   1.000  H
  C29      1.0000 0.48230  0.70800  0.13210  Biso   1.000  C
  C30      1.0000 0.51770  0.29200  0.13210  Biso   1.000  C
  C31      1.0000 0.98230  0.79200  0.86790  Biso   1.000  C
  C32      1.0000 0.01770  0.20800  0.86790  Biso   1.000  C
  H9       1.0000 0.49760  0.76360  0.08970  Biso   1.000  H
  H10      1.0000 0.50240  0.23640  0.08970  Biso   1.000  H
  H11      1.0000 0.99760  0.73640  0.91030  Biso   1.000  H
  H12      1.0000 0.00240  0.26360  0.91030  Biso   1.000  H
  O21      1.0000 0.39734  0.79480  0.84150  Biso   1.000  O
  O22      1.0000 0.60266  0.20520  0.84150  Biso   1.000  O
  O23      1.0000 0.89734  0.70520  0.15850  Biso   1.000  O
  O24      1.0000 0.10266  0.29480  0.15850  Biso   1.000  O
  C33      1.0000 0.40970  0.21030  0.85470  Biso   1.000  C
  C34      1.0000 0.59030  0.78970  0.85470  Biso   1.000  C
  C35      1.0000 0.90970  0.28970  0.14530  Biso   1.000  C
  C36      1.0000 0.09030  0.71030  0.14530  Biso   1.000  C
  H13      1.0000 0.43960  0.19170  0.86680  Biso   1.000  H
  H14      1.0000 0.56040  0.80830  0.86680  Biso   1.000  H
  H15      1.0000 0.93960  0.30830  0.13320  Biso   1.000  H
  H16      1.0000 0.06040  0.69170  0.13320  Biso   1.000  H
  C37      1.0000 0.43560  0.55330  0.13490  Biso   1.000  C
  C38      1.0000 0.56440  0.44670  0.13490  Biso   1.000  C
  C39      1.0000 0.93560  0.94670  0.86510  Biso   1.000  C
  C40      1.0000 0.06440  0.05330  0.86510  Biso   1.000  C
  H17      1.0000 0.41790  0.50120  0.09450  Biso   1.000  H
  H18      1.0000 0.58210  0.49880  0.09450  Biso   1.000  H
  H19      1.0000 0.91790  0.99880  0.90550  Biso   1.000  H
  H20      1.0000 0.08210  0.00120  0.90550  Biso   1.000  H
  C41      1.0000 0.33300  0.15480  0.81740  Biso   1.000  C
  C42      1.0000 0.66700  0.84520  0.81740  Biso   1.000  C
  C43      1.0000 0.83300  0.34520  0.18260  Biso   1.000  C
  C44      1.0000 0.16700  0.65480  0.18260  Biso   1.000  C
  H21      1.0000 0.31220  0.09790  0.80370  Biso   1.000  H
  H22      1.0000 0.68780  0.90210  0.80370  Biso   1.000  H
  H23      1.0000 0.81220  0.40210  0.19630  Biso   1.000  H
  H24      1.0000 0.18780  0.59790  0.19630  Biso   1.000  H
  C45      1.0000 0.43840  0.54920  0.25790  Biso   1.000  C
  C46      1.0000 0.56160  0.45080  0.25790  Biso   1.000  C
  C47      1.0000 0.93840  0.95080  0.74210  Biso   1.000  C
  C48      1.0000 0.06160  0.04920  0.74210  Biso   1.000  C
  H25      1.0000 0.42350  0.49190  0.29880  Biso   1.000  H
  H26      1.0000 0.57650  0.50810  0.29880  Biso   1.000  H
  H27      1.0000 0.92350  0.00810  0.70120  Biso   1.000  H
  H28      1.0000 0.07650  0.99190  0.70120  Biso   1.000  H
  C49      1.0000 0.42630  0.59030  0.51910  Biso   1.000  C
  C50      1.0000 0.57370  0.40970  0.51910  Biso   1.000  C
  C51      1.0000 0.92630  0.90970  0.48090  Biso   1.000  C
  C52      1.0000 0.07370  0.09030  0.48090  Biso   1.000  C
  H29      1.0000 0.40140  0.56350  0.47780  Biso   1.000  H
  H30      1.0000 0.59860  0.43650  0.47780  Biso   1.000  H
  H31      1.0000 0.90140  0.93650  0.52220  Biso   1.000  H
  H32      1.0000 0.09860  0.06350  0.52220  Biso   1.000  H
  C53      1.0000 0.32490  0.96360  0.19850  Biso   1.000  C
  C54      1.0000 0.67510  0.03640  0.19850  Biso   1.000  C
  C55      1.0000 0.82490  0.53640  0.80150  Biso   1.000  C
  C56      1.0000 0.17510  0.46360  0.80150  Biso   1.000  C
  H33      1.0000 0.31670  0.03070  0.23580  Biso   1.000  H
  H34      1.0000 0.68330  0.96930  0.23580  Biso   1.000  H
  H35      1.0000 0.81670  0.46930  0.76420  Biso   1.000  H
  H36      1.0000 0.18330  0.53070  0.76420  Biso   1.000  H
  C57      1.0000 0.39590  0.32240  0.85470  Biso   1.000  C
  C58      1.0000 0.60410  0.67760  0.85470  Biso   1.000  C
  C59      1.0000 0.89590  0.17760  0.14530  Biso   1.000  C
  C60      1.0000 0.10410  0.82240  0.14530  Biso   1.000  C
  C61      1.0000 0.32310  0.95490  0.07260  Biso   1.000  C
  C62      1.0000 0.67690  0.04510  0.07260  Biso   1.000  C
  C63      1.0000 0.82310  0.54510  0.92740  Biso   1.000  C
  C64      1.0000 0.17690  0.45490  0.92740  Biso   1.000  C
  H37      1.0000 0.31280  0.01590  0.02790  Biso   1.000  H
  H38      1.0000 0.68720  0.98410  0.02790  Biso   1.000  H
  H39      1.0000 0.81280  0.48410  0.97210  Biso   1.000  H
  H40      1.0000 0.18720  0.51590  0.97210  Biso   1.000  H
  C65      1.0000 0.42990  0.41200  0.88180  Biso   1.000  C
  C66      1.0000 0.57010  0.58800  0.88180  Biso   1.000  C
  C67      1.0000 0.92990  0.08800  0.11820  Biso   1.000  C
  C68      1.0000 0.07010  0.91200  0.11820  Biso   1.000  C
  C69      1.0000 0.43260  0.84970  0.86310  Biso   1.000  C
  C70      1.0000 0.56740  0.15030  0.86310  Biso   1.000  C
  C71      1.0000 0.93260  0.65030  0.13690  Biso   1.000  C
  C72      1.0000 0.06740  0.34970  0.13690  Biso   1.000  C
  C73      1.0000 0.31930  0.26620  0.81890  Biso   1.000  C
  C74      1.0000 0.68070  0.73380  0.81890  Biso   1.000  C
  C75      1.0000 0.81930  0.23380  0.18110  Biso   1.000  C
  C76      1.0000 0.18070  0.76620  0.18110  Biso   1.000  C
  O25      1.0000 0.31320  0.66260  0.83430  Biso   1.000  O
  O26      1.0000 0.68680  0.33740  0.83430  Biso   1.000  O
  O27      1.0000 0.81320  0.83740  0.16570  Biso   1.000  O
  O28      1.0000 0.18680  0.16260  0.16570  Biso   1.000  O
  H41      1.0000 0.28710  0.65140  0.87450  Biso   1.000  H
  H42      1.0000 0.71290  0.34860  0.87450  Biso   1.000  H
  H43      1.0000 0.78710  0.84860  0.12550  Biso   1.000  H
  H44      1.0000 0.21290  0.15140  0.12550  Biso   1.000  H
  H45      1.0000 0.30890  0.63560  0.75890  Biso   1.000  H
  H46      1.0000 0.69110  0.36440  0.75890  Biso   1.000  H
  H47      1.0000 0.80890  0.86440  0.24110  Biso   1.000  H
  H48      1.0000 0.19110  0.13560  0.24110  Biso   1.000  H
  C77      1.0000 0.49810  0.67080  0.52290  Biso   1.000  C
  C78      1.0000 0.50190  0.32920  0.52290  Biso   1.000  C
  C79      1.0000 0.99810  0.82920  0.47710  Biso   1.000  C
  C80      1.0000 0.00190  0.17080  0.47710  Biso   1.000  C
  H49      1.0000 0.52270  0.70200  0.48380  Biso   1.000  H
  H50      1.0000 0.47730  0.29800  0.48380  Biso   1.000  H
  H51      1.0000 0.02270  0.79800  0.51620  Biso   1.000  H
  H52      1.0000 0.97730  0.20200  0.51620  Biso   1.000  H
  C81      1.0000 0.34930  0.77530  0.08070  Biso   1.000  C
  C82      1.0000 0.65070  0.22470  0.08070  Biso   1.000  C
  C83      1.0000 0.84930  0.72470  0.91930  Biso   1.000  C
  C84      1.0000 0.15070  0.27530  0.91930  Biso   1.000  C
  H53      1.0000 0.35710  0.70880  0.04170  Biso   1.000  H
  H54      1.0000 0.64290  0.29120  0.04170  Biso   1.000  H
  H55      1.0000 0.85710  0.79120  0.95830  Biso   1.000  H
  H56      1.0000 0.14290  0.20880  0.95830  Biso   1.000  H
  C85      1.0000 0.49670  0.66820  0.64520  Biso   1.000  C
  C86      1.0000 0.50330  0.33180  0.64520  Biso   1.000  C
  C87      1.0000 0.99670  0.83180  0.35480  Biso   1.000  C
  C88      1.0000 0.00330  0.16820  0.35480  Biso   1.000  C
  H57      1.0000 0.52160  0.69340  0.68770  Biso   1.000  H
  H58      1.0000 0.47840  0.30660  0.68770  Biso   1.000  H
  H59      1.0000 0.02160  0.80660  0.31230  Biso   1.000  H
  H60      1.0000 0.97840  0.19340  0.31230  Biso   1.000  H
  C89      1.0000 0.35250  0.77940  0.20350  Biso   1.000  C
  C90      1.0000 0.64750  0.22060  0.20350  Biso   1.000  C
  C91      1.0000 0.85250  0.72060  0.79650  Biso   1.000  C
  C92      1.0000 0.14750  0.27940  0.79650  Biso   1.000  C
  H61      1.0000 0.36400  0.71800  0.24540  Biso   1.000  H
  H62      1.0000 0.63600  0.28200  0.24540  Biso   1.000  H
  H63      1.0000 0.86400  0.78200  0.75460  Biso   1.000  H
  H64      1.0000 0.13600  0.21800  0.75460  Biso   1.000  H
  C93      1.0000 0.37240  0.86080  0.58660  Biso   1.000  C
  C94      1.0000 0.62760  0.13920  0.58660  Biso   1.000  C
  C95      1.0000 0.87240  0.63920  0.41340  Biso   1.000  C
  C96      1.0000 0.12760  0.36080  0.41340  Biso   1.000  C
  H65      1.0000 0.39960  0.85620  0.62700  Biso   1.000  H
  H66      1.0000 0.60040  0.14380  0.62700  Biso   1.000  H
  H67      1.0000 0.89960  0.64380  0.37300  Biso   1.000  H
  H68      1.0000 0.10040  0.35620  0.37300  Biso   1.000  H
  O29      1.0000 0.16120  0.83600  0.88570  Biso   1.000  O
  O30      1.0000 0.83880  0.16400  0.88570  Biso   1.000  O
  O31      1.0000 0.66120  0.66400  0.11430  Biso   1.000  O
  O32      1.0000 0.33880  0.33600  0.11430  Biso   1.000  O
  C97      1.0000 0.27050  0.29500  0.79760  Biso   1.000  C
  C98      1.0000 0.72950  0.70500  0.79760  Biso   1.000  C
  C99      1.0000 0.77050  0.20500  0.20240  Biso   1.000  C
  C100     1.0000 0.22950  0.79500  0.20240  Biso   1.000  C
  H69      1.0000 0.25560  0.30470  0.87350  Biso   1.000  H
  H70      1.0000 0.74440  0.69530  0.87350  Biso   1.000  H
  H71      1.0000 0.75560  0.19530  0.12650  Biso   1.000  H
  H72      1.0000 0.24440  0.80470  0.12650  Biso   1.000  H
  H73      1.0000 0.25640  0.23500  0.75380  Biso   1.000  H
  H74      1.0000 0.74360  0.76500  0.75380  Biso   1.000  H
  H75      1.0000 0.75640  0.26500  0.24620  Biso   1.000  H
  H76      1.0000 0.24360  0.73500  0.24620  Biso   1.000  H
  H77      1.0000 0.26850  0.36350  0.75210  Biso   1.000  H
  H78      1.0000 0.73150  0.63650  0.75210  Biso   1.000  H
  H79      1.0000 0.76850  0.13650  0.24790  Biso   1.000  H
  H80      1.0000 0.23150  0.86350  0.24790  Biso   1.000  H
  Cl5      1.0000 0.50000  0.00000  0.53050  Biso   1.000  Cl
  Cl6      1.0000 0.00000  0.50000  0.46950  Biso   1.000  Cl
  C101     1.0000 0.05570  0.54500  0.80880  Biso   1.000  C
  C102     1.0000 0.94430  0.45500  0.80880  Biso   1.000  C
  C103     1.0000 0.55570  0.95500  0.19120  Biso   1.000  C
  C104     1.0000 0.44430  0.04500  0.19120  Biso   1.000  C
  H81      1.0000 0.07240  0.49410  0.85880  Biso   1.000  H
  H82      1.0000 0.92760  0.50590  0.85880  Biso   1.000  H
  H83      1.0000 0.57240  0.00590  0.14120  Biso   1.000  H
  H84      1.0000 0.42760  0.99410  0.14120  Biso   1.000  H
  H85      1.0000 0.04190  0.50360  0.74450  Biso   1.000  H
  H86      1.0000 0.95810  0.49640  0.74450  Biso   1.000  H
  H87      1.0000 0.54190  0.99640  0.25550  Biso   1.000  H
  H88      1.0000 0.45810  0.00360  0.25550  Biso   1.000  H
  H89      1.0000 0.03300  0.58130  0.85600  Biso   1.000  H
  H90      1.0000 0.96700  0.41870  0.85600  Biso   1.000  H
  H91      1.0000 0.53300  0.91870  0.14400  Biso   1.000  H
  H92      1.0000 0.46700  0.08130  0.14400  Biso   1.000  H
  O33      1.0000 0.23720  0.75550  0.87760  Biso   1.000  O
  O34      1.0000 0.76280  0.24450  0.87760  Biso   1.000  O
  O35      1.0000 0.73720  0.74450  0.12240  Biso   1.000  O
  O36      1.0000 0.26280  0.25550  0.12240  Biso   1.000  O
  C105     1.0000 0.30460  0.91470  0.58660  Biso   1.000  C
  C106     1.0000 0.69540  0.08530  0.58660  Biso   1.000  C
  C107     1.0000 0.80460  0.58530  0.41340  Biso   1.000  C
  C108     1.0000 0.19540  0.41470  0.41340  Biso   1.000  C
  H93      1.0000 0.28050  0.94460  0.62920  Biso   1.000  H
  H94      1.0000 0.71950  0.05540  0.62920  Biso   1.000  H
  H95      1.0000 0.78050  0.55540  0.37080  Biso   1.000  H
  H96      1.0000 0.21950  0.44460  0.37080  Biso   1.000  H
  C109     1.0000 0.23950  0.85830  0.86120  Biso   1.000  C
  C110     1.0000 0.76050  0.14170  0.86120  Biso   1.000  C
  C111     1.0000 0.73950  0.64170  0.13880  Biso   1.000  C
  C112     1.0000 0.26050  0.35830  0.13880  Biso   1.000  C
  C113     1.0000 0.43140  0.97730  0.86120  Biso   1.000  C
  C114     1.0000 0.56860  0.02270  0.86120  Biso   1.000  C
  C115     1.0000 0.93140  0.52270  0.13880  Biso   1.000  C
  C116     1.0000 0.06860  0.47730  0.13880  Biso   1.000  C
  H97      1.0000 0.44090  0.00680  0.93850  Biso   1.000  H
  H98      1.0000 0.55910  0.99320  0.93850  Biso   1.000  H
  H99      1.0000 0.94090  0.49320  0.06150  Biso   1.000  H
  H100     1.0000 0.05910  0.50680  0.06150  Biso   1.000  H
  H101     1.0000 0.45160  0.00570  0.80010  Biso   1.000  H
  H102     1.0000 0.54840  0.99430  0.80010  Biso   1.000  H
  H103     1.0000 0.95160  0.49430  0.19990  Biso   1.000  H
  H104     1.0000 0.04840  0.50570  0.19990  Biso   1.000  H
  C117     1.0000 0.37420  0.86070  0.46380  Biso   1.000  C
  C118     1.0000 0.62580  0.13930  0.46380  Biso   1.000  C
  C119     1.0000 0.87420  0.63930  0.53620  Biso   1.000  C
  C120     1.0000 0.12580  0.36070  0.53620  Biso   1.000  C
  H105     1.0000 0.40170  0.84870  0.42670  Biso   1.000  H
  H106     1.0000 0.59830  0.15130  0.42670  Biso   1.000  H
  H107     1.0000 0.90170  0.65130  0.57330  Biso   1.000  H
  H108     1.0000 0.09830  0.34870  0.57330  Biso   1.000  H
  C121     1.0000 0.30350  0.92300  0.45970  Biso   1.000  C
  C122     1.0000 0.69650  0.07700  0.45970  Biso   1.000  C
  C123     1.0000 0.80350  0.57700  0.54030  Biso   1.000  C
  C124     1.0000 0.19650  0.42300  0.54030  Biso   1.000  C
  H109     1.0000 0.27990  0.95740  0.41950  Biso   1.000  H
  H110     1.0000 0.72010  0.04260  0.41950  Biso   1.000  H
  H111     1.0000 0.77990  0.54260  0.58050  Biso   1.000  H
  H112     1.0000 0.22010  0.45740  0.58050  Biso   1.000  H
  C125     1.0000 0.19760  0.93350  0.87410  Biso   1.000  C
  C126     1.0000 0.80240  0.06650  0.87410  Biso   1.000  C
  C127     1.0000 0.69760  0.56650  0.12590  Biso   1.000  C
  C128     1.0000 0.30240  0.43350  0.12590  Biso   1.000  C
  H113     1.0000 0.20200  0.97960  0.94520  Biso   1.000  H
  H114     1.0000 0.79800  0.02040  0.94520  Biso   1.000  H
  H115     1.0000 0.70200  0.52040  0.05480  Biso   1.000  H
  H116     1.0000 0.29800  0.47960  0.05480  Biso   1.000  H
  H117     1.0000 0.19730  0.98430  0.80580  Biso   1.000  H
  H118     1.0000 0.80270  0.01570  0.80580  Biso   1.000  H
  H119     1.0000 0.69730  0.51570  0.19420  Biso   1.000  H
  H120     1.0000 0.30270  0.48430  0.19420  Biso   1.000  H
  C129     1.0000 0.12810  0.72640  0.59260  Biso   1.000  C
  C130     1.0000 0.87190  0.27360  0.59260  Biso   1.000  C
  C131     1.0000 0.62810  0.77360  0.40740  Biso   1.000  C
  C132     1.0000 0.37190  0.22640  0.40740  Biso   1.000  C
  C133     1.0000 0.15010  0.79540  0.67470  Biso   1.000  C
  C134     1.0000 0.84990  0.20460  0.67470  Biso   1.000  C
  C135     1.0000 0.65010  0.70460  0.32530  Biso   1.000  C
  C136     1.0000 0.34990  0.29540  0.32530  Biso   1.000  C
  H121     1.0000 0.17070  0.84840  0.64790  Biso   1.000  H
  H122     1.0000 0.82930  0.15160  0.64790  Biso   1.000  H
  H123     1.0000 0.67070  0.65160  0.35210  Biso   1.000  H
  H124     1.0000 0.32930  0.34840  0.35210  Biso   1.000  H
  C137     1.0000 0.14110  0.78510  0.79690  Biso   1.000  C
  C138     1.0000 0.85890  0.21490  0.79690  Biso   1.000  C
  C139     1.0000 0.64110  0.71490  0.20310  Biso   1.000  C
  C140     1.0000 0.35890  0.28510  0.20310  Biso   1.000  C
  C141     1.0000 0.11020  0.70580  0.83690  Biso   1.000  C
  C142     1.0000 0.88980  0.29420  0.83690  Biso   1.000  C
  C143     1.0000 0.61020  0.79420  0.16310  Biso   1.000  C
  C144     1.0000 0.38980  0.20580  0.16310  Biso   1.000  C
  H125     1.0000 0.10420  0.69890  0.91860  Biso   1.000  H
  H126     1.0000 0.89580  0.30110  0.91860  Biso   1.000  H
  H127     1.0000 0.60420  0.80110  0.08140  Biso   1.000  H
  H128     1.0000 0.39580  0.19890  0.08140  Biso   1.000  H
  C145     1.0000 0.08830  0.63680  0.75480  Biso   1.000  C
  C146     1.0000 0.91170  0.36320  0.75480  Biso   1.000  C
  C147     1.0000 0.58830  0.86320  0.24520  Biso   1.000  C
  C148     1.0000 0.41170  0.13680  0.24520  Biso   1.000  C
  C149     1.0000 0.09730  0.64710  0.63260  Biso   1.000  C
  C150     1.0000 0.90270  0.35290  0.63260  Biso   1.000  C
  C151     1.0000 0.59730  0.85290  0.36740  Biso   1.000  C
  C152     1.0000 0.40270  0.14710  0.36740  Biso   1.000  C
  H129     1.0000 0.08260  0.60090  0.57770  Biso   1.000  H
  H130     1.0000 0.91740  0.39910  0.57770  Biso   1.000  H
  H131     1.0000 0.58260  0.89910  0.42230  Biso   1.000  H
  H132     1.0000 0.41740  0.10090  0.42230  Biso   1.000  H
  C153     1.0000 0.13910  0.72800  0.47760  Biso   1.000  C
  C154     1.0000 0.86090  0.27200  0.47760  Biso   1.000  C
  C155     1.0000 0.63910  0.77200  0.52240  Biso   1.000  C
  C156     1.0000 0.36090  0.22800  0.52240  Biso   1.000  C
  H133     1.0000 0.16550  0.77340  0.46710  Biso   1.000  H
  H134     1.0000 0.83450  0.22660  0.46710  Biso   1.000  H
  H135     1.0000 0.66550  0.72660  0.53290  Biso   1.000  H
  H136     1.0000 0.33450  0.27340  0.53290  Biso   1.000  H
  H137     1.0000 0.11500  0.75970  0.43110  Biso   1.000  H
  H138     1.0000 0.88500  0.24030  0.43110  Biso   1.000  H
  H139     1.0000 0.61500  0.74030  0.56890  Biso   1.000  H
  H140     1.0000 0.38500  0.25970  0.56890  Biso   1.000  H
  H141     1.0000 0.14500  0.65280  0.45110  Biso   1.000  H
  H142     1.0000 0.85500  0.34720  0.45110  Biso   1.000  H
  H143     1.0000 0.64500  0.84720  0.54890  Biso   1.000  H
  H144     1.0000 0.35500  0.15280  0.54890  Biso   1.000  H
  O37      1.0000 0.18020  0.06710  0.39400  Biso   1.000  O
  O38      1.0000 0.81980  0.93290  0.39400  Biso   1.000  O
  O39      1.0000 0.68020  0.43290  0.60600  Biso   1.000  O
  O40      1.0000 0.31980  0.56710  0.60600  Biso   1.000  O
  O41      1.0000 0.18410  0.09110  0.60410  Biso   1.000  O
  O42      1.0000 0.81590  0.90890  0.60410  Biso   1.000  O
  O43      1.0000 0.68410  0.40890  0.39590  Biso   1.000  O
  O44      1.0000 0.31590  0.59110  0.39590  Biso   1.000  O
  O45      1.0000 0.24200  0.12520  0.47850  Biso   1.000  O
  O46      1.0000 0.75800  0.87480  0.47850  Biso   1.000  O
  O47      1.0000 0.74200  0.37480  0.52150  Biso   1.000  O
  O48      1.0000 0.25800  0.62520  0.52150  Biso   1.000  O
  O49      1.0000 0.21370  0.95390  0.50000  Biso   1.000  O
  O50      1.0000 0.78630  0.04610  0.50000  Biso   1.000  O
  O51      1.0000 0.71370  0.54610  0.50000  Biso   1.000  O
  O52      1.0000 0.28630  0.45390  0.50000  Biso   1.000  O
  O53      1.0000 0.52230  0.07920  0.45930  Biso   1.000  O
  O54      1.0000 0.47770  0.92080  0.45930  Biso   1.000  O
  O55      1.0000 0.02230  0.42080  0.54070  Biso   1.000  O
  O56      1.0000 0.97770  0.57920  0.54070  Biso   1.000  O
  O57      1.0000 0.46650  0.06270  0.59090  Biso   1.000  O
  O58      1.0000 0.53350  0.93730  0.59090  Biso   1.000  O
  O59      1.0000 0.96650  0.43730  0.40910  Biso   1.000  O
  O60      1.0000 0.03350  0.56270  0.40910  Biso   1.000  O
  C157     1.0000 0.48560  0.70830  0.25530  Biso   1.000  C
  C158     1.0000 0.51440  0.29170  0.25530  Biso   1.000  C
  C159     1.0000 0.98560  0.79170  0.74470  Biso   1.000  C
  C160     1.0000 0.01440  0.20830  0.74470  Biso   1.000  C
  H145     1.0000 0.50010  0.76150  0.30020  Biso   1.000  H
  H146     1.0000 0.49990  0.23850  0.30020  Biso   1.000  H
  H147     1.0000 0.00010  0.73850  0.69980  Biso   1.000  H
  H148     1.0000 0.99990  0.26150  0.69980  Biso   1.000  H
  C161     1.0000 0.14600  0.79600  0.47700  Biso   1.000  C
  C162     1.0000 0.85400  0.20400  0.47700  Biso   1.000  C
  C163     1.0000 0.64600  0.70400  0.52300  Biso   1.000  C
  C164     1.0000 0.35400  0.29600  0.52300  Biso   1.000  C
  C165     1.0000 0.13470  0.78600  0.58500  Biso   1.000  C
  C166     1.0000 0.86530  0.21400  0.58500  Biso   1.000  C
  C167     1.0000 0.63470  0.71400  0.41500  Biso   1.000  C
  C168     1.0000 0.36530  0.28600  0.41500  Biso   1.000  C
  C169     1.0000 0.14970  0.86400  0.67000  Biso   1.000  C
  C170     1.0000 0.85030  0.13600  0.67000  Biso   1.000  C
  C171     1.0000 0.64970  0.63600  0.33000  Biso   1.000  C
  C172     1.0000 0.35030  0.36400  0.33000  Biso   1.000  C
  C173     1.0000 0.13750  0.85200  0.79000  Biso   1.000  C
  C174     1.0000 0.86250  0.14800  0.79000  Biso   1.000  C
  C175     1.0000 0.63750  0.64800  0.21000  Biso   1.000  C
  C176     1.0000 0.36250  0.35200  0.21000  Biso   1.000  C
  C177     1.0000 0.11020  0.76300  0.82500  Biso   1.000  C
  C178     1.0000 0.88980  0.23700  0.82500  Biso   1.000  C
  C179     1.0000 0.61020  0.73700  0.17500  Biso   1.000  C
  C180     1.0000 0.38980  0.26300  0.17500  Biso   1.000  C
  C181     1.0000 0.09530  0.68500  0.74100  Biso   1.000  C
  C182     1.0000 0.90470  0.31500  0.74100  Biso   1.000  C
  C183     1.0000 0.59530  0.81500  0.25900  Biso   1.000  C
  C184     1.0000 0.40470  0.18500  0.25900  Biso   1.000  C
  C185     1.0000 0.10750  0.69700  0.62100  Biso   1.000  C
  C186     1.0000 0.89250  0.30300  0.62100  Biso   1.000  C
  C187     1.0000 0.60750  0.80300  0.37900  Biso   1.000  C
  C188     1.0000 0.39250  0.19700  0.37900  Biso   1.000  C
  C189     1.0000 0.06600  0.59100  0.79800  Biso   1.000  C
  C190     1.0000 0.93400  0.40900  0.79800  Biso   1.000  C
  C191     1.0000 0.56600  0.90900  0.20200  Biso   1.000  C
  C192     1.0000 0.43400  0.09100  0.20200  Biso   1.000  C
  H149     1.0000 0.11950  0.81600  0.43330  Biso   1.000  H
  H150     1.0000 0.88050  0.18400  0.43330  Biso   1.000  H
  H151     1.0000 0.61950  0.68400  0.56670  Biso   1.000  H
  H152     1.0000 0.38050  0.31600  0.56670  Biso   1.000  H
  H153     1.0000 0.15850  0.72800  0.44410  Biso   1.000  H
  H154     1.0000 0.84150  0.27200  0.44410  Biso   1.000  H
  H155     1.0000 0.65850  0.77200  0.55590  Biso   1.000  H
  H156     1.0000 0.34150  0.22800  0.55590  Biso   1.000  H
  H157     1.0000 0.16770  0.85580  0.47020  Biso   1.000  H
  H158     1.0000 0.83230  0.14420  0.47020  Biso   1.000  H
  H159     1.0000 0.66770  0.64420  0.52980  Biso   1.000  H
  H160     1.0000 0.33230  0.35580  0.52980  Biso   1.000  H
  H161     1.0000 0.16790  0.92330  0.64620  Biso   1.000  H
  H162     1.0000 0.83210  0.07670  0.64620  Biso   1.000  H
  H163     1.0000 0.66790  0.57670  0.35380  Biso   1.000  H
  H164     1.0000 0.33210  0.42330  0.35380  Biso   1.000  H
  H165     1.0000 0.10210  0.75550  0.90560  Biso   1.000  H
  H166     1.0000 0.89790  0.24450  0.90560  Biso   1.000  H
  H167     1.0000 0.60210  0.74450  0.09440  Biso   1.000  H
  H168     1.0000 0.39790  0.25550  0.09440  Biso   1.000  H
  H169     1.0000 0.09750  0.64490  0.56430  Biso   1.000  H
  H170     1.0000 0.90250  0.35510  0.56430  Biso   1.000  H
  H171     1.0000 0.59750  0.85510  0.43570  Biso   1.000  H
  H172     1.0000 0.40250  0.14490  0.43570  Biso   1.000  H
  H173     1.0000 0.07580  0.57740  0.87870  Biso   1.000  H
  H174     1.0000 0.92420  0.42260  0.87870  Biso   1.000  H
  H175     1.0000 0.57580  0.92260  0.12130  Biso   1.000  H
  H176     1.0000 0.42420  0.07740  0.12130  Biso   1.000  H
  H177     1.0000 0.06890  0.52330  0.75140  Biso   1.000  H
  H178     1.0000 0.93110  0.47670  0.75140  Biso   1.000  H
  H179     1.0000 0.56890  0.97670  0.24860  Biso   1.000  H
  H180     1.0000 0.43110  0.02330  0.24860  Biso   1.000  H
  H181     1.0000 0.03520  0.61450  0.79840  Biso   1.000  H
  H182     1.0000 0.96480  0.38550  0.79840  Biso   1.000  H
  H183     1.0000 0.53520  0.88550  0.20160  Biso   1.000  H
  H184     1.0000 0.46480  0.11450  0.20160  Biso   1.000  H
  O61      1.0000 0.15670  0.88800  0.88200  Biso   1.000  O
  O62      1.0000 0.84330  0.11200  0.88200  Biso   1.000  O
  O63      1.0000 0.65670  0.61200  0.11800  Biso   1.000  O
  O64      1.0000 0.34330  0.38800  0.11800  Biso   1.000  O
