data_image0
_cell_length_a       10.879
_cell_length_b       5.707
_cell_length_c       22.336
_cell_angle_alpha    90
_cell_angle_beta     90
_cell_angle_gamma    90

_symmetry_space_group_name_H-M    "P 1"
_symmetry_int_tables_number       1

loop_
  _symmetry_equiv_pos_as_xyz
  'x, y, z'

loop_
  _atom_site_label
  _atom_site_occupancy
  _atom_site_fract_x
  _atom_site_fract_y
  _atom_site_fract_z
  _atom_site_thermal_displace_type
  _atom_site_B_iso_or_equiv
  _atom_site_type_symbol
  Cu1      1.0000 0.25000  0.50000  0.40909  Biso   1.000  Cu
  Cu2      1.0000 0.75000  0.50000  0.09091  Biso   1.000  Cu
  Cu3      1.0000 0.75000  0.50000  0.59091  Biso   1.000  Cu
  Cu4      1.0000 0.25000  0.50000  0.90909  Biso   1.000  Cu
  C1       1.0000 0.23980  0.69710  0.28860  Biso   1.000  C
  C2       1.0000 0.26020  0.30290  0.28860  Biso   1.000  C
  C3       1.0000 0.76020  0.69710  0.21140  Biso   1.000  C
  C4       1.0000 0.73980  0.30290  0.21140  Biso   1.000  C
  C5       1.0000 0.76020  0.30290  0.71140  Biso   1.000  C
  C6       1.0000 0.73980  0.69710  0.71140  Biso   1.000  C
  C7       1.0000 0.23980  0.30290  0.78860  Biso   1.000  C
  C8       1.0000 0.26020  0.69710  0.78860  Biso   1.000  C
  H1       1.0000 0.23260  0.83510  0.31050  Biso   1.000  H
  H2       1.0000 0.26740  0.16490  0.31050  Biso   1.000  H
  H3       1.0000 0.76740  0.83510  0.18950  Biso   1.000  H
  H4       1.0000 0.73260  0.16490  0.18950  Biso   1.000  H
  H5       1.0000 0.76740  0.16490  0.68950  Biso   1.000  H
  H6       1.0000 0.73260  0.83510  0.68950  Biso   1.000  H
  H7       1.0000 0.23260  0.16490  0.81050  Biso   1.000  H
  H8       1.0000 0.26740  0.83510  0.81050  Biso   1.000  H
  C9       1.0000 0.23950  0.70600  0.22680  Biso   1.000  C
  C10      1.0000 0.26050  0.29400  0.22680  Biso   1.000  C
  C11      1.0000 0.76050  0.70600  0.27320  Biso   1.000  C
  C12      1.0000 0.73950  0.29400  0.27320  Biso   1.000  C
  C13      1.0000 0.76050  0.29400  0.77320  Biso   1.000  C
  C14      1.0000 0.73950  0.70600  0.77320  Biso   1.000  C
  C15      1.0000 0.23950  0.29400  0.72680  Biso   1.000  C
  C16      1.0000 0.26050  0.70600  0.72680  Biso   1.000  C
  H9       1.0000 0.23210  0.85050  0.20790  Biso   1.000  H
  H10      1.0000 0.26790  0.14950  0.20790  Biso   1.000  H
  H11      1.0000 0.76790  0.85050  0.29210  Biso   1.000  H
  H12      1.0000 0.73210  0.14950  0.29210  Biso   1.000  H
  H13      1.0000 0.76790  0.14950  0.79210  Biso   1.000  H
  H14      1.0000 0.73210  0.85050  0.79210  Biso   1.000  H
  H15      1.0000 0.23210  0.14950  0.70790  Biso   1.000  H
  H16      1.0000 0.26790  0.85050  0.70790  Biso   1.000  H
  C17      1.0000 0.25000  0.50000  0.19130  Biso   1.000  C
  C18      1.0000 0.75000  0.50000  0.30870  Biso   1.000  C
  C19      1.0000 0.75000  0.50000  0.80870  Biso   1.000  C
  C20      1.0000 0.25000  0.50000  0.69130  Biso   1.000  C
  C21      1.0000 0.19720  0.32720  0.03153  Biso   1.000  C
  C22      1.0000 0.30280  0.67280  0.03153  Biso   1.000  C
  C23      1.0000 0.80280  0.32720  0.46847  Biso   1.000  C
  C24      1.0000 0.69720  0.67280  0.46847  Biso   1.000  C
  C25      1.0000 0.80280  0.67280  0.96847  Biso   1.000  C
  C26      1.0000 0.69720  0.32720  0.96847  Biso   1.000  C
  C27      1.0000 0.19720  0.67280  0.53153  Biso   1.000  C
  C28      1.0000 0.30280  0.32720  0.53153  Biso   1.000  C
  H17      1.0000 0.16000  0.20550  0.01060  Biso   1.000  H
  H18      1.0000 0.34000  0.79450  0.01060  Biso   1.000  H
  H19      1.0000 0.84000  0.20550  0.48940  Biso   1.000  H
  H20      1.0000 0.66000  0.79450  0.48940  Biso   1.000  H
  H21      1.0000 0.84000  0.79450  0.98940  Biso   1.000  H
  H22      1.0000 0.66000  0.20550  0.98940  Biso   1.000  H
  H23      1.0000 0.16000  0.79450  0.51060  Biso   1.000  H
  H24      1.0000 0.34000  0.20550  0.51060  Biso   1.000  H
  C29      1.0000 0.19530  0.32060  0.09273  Biso   1.000  C
  C30      1.0000 0.30470  0.67940  0.09273  Biso   1.000  C
  C31      1.0000 0.80470  0.32060  0.40727  Biso   1.000  C
  C32      1.0000 0.69530  0.67940  0.40727  Biso   1.000  C
  C33      1.0000 0.80470  0.67940  0.90727  Biso   1.000  C
  C34      1.0000 0.69530  0.32060  0.90727  Biso   1.000  C
  C35      1.0000 0.19530  0.67940  0.59273  Biso   1.000  C
  C36      1.0000 0.30470  0.32060  0.59273  Biso   1.000  C
  H25      1.0000 0.15750  0.19660  0.11250  Biso   1.000  H
  H26      1.0000 0.34250  0.80340  0.11250  Biso   1.000  H
  H27      1.0000 0.84250  0.19660  0.38750  Biso   1.000  H
  H28      1.0000 0.65750  0.80340  0.38750  Biso   1.000  H
  H29      1.0000 0.84250  0.80340  0.88750  Biso   1.000  H
  H30      1.0000 0.65750  0.19660  0.88750  Biso   1.000  H
  H31      1.0000 0.15750  0.80340  0.61250  Biso   1.000  H
  H32      1.0000 0.34250  0.19660  0.61250  Biso   1.000  H
  C37      1.0000 0.25000  0.50000  0.12520  Biso   1.000  C
  C38      1.0000 0.75000  0.50000  0.37480  Biso   1.000  C
  C39      1.0000 0.75000  0.50000  0.87480  Biso   1.000  C
  C40      1.0000 0.25000  0.50000  0.62520  Biso   1.000  C
  C41      1.0000 0.09420  0.05120  0.40533  Biso   1.000  C
  C42      1.0000 0.40580  0.94880  0.40533  Biso   1.000  C
  C43      1.0000 0.90580  0.05120  0.09467  Biso   1.000  C
  C44      1.0000 0.59420  0.94880  0.09467  Biso   1.000  C
  C45      1.0000 0.90580  0.94880  0.59467  Biso   1.000  C
  C46      1.0000 0.59420  0.05120  0.59467  Biso   1.000  C
  C47      1.0000 0.09420  0.94880  0.90533  Biso   1.000  C
  C48      1.0000 0.40580  0.05120  0.90533  Biso   1.000  C
  N1       1.0000 0.25000  0.50000  0.31640  Biso   1.000  N
  N2       1.0000 0.75000  0.50000  0.18360  Biso   1.000  N
  N3       1.0000 0.75000  0.50000  0.68360  Biso   1.000  N
  N4       1.0000 0.25000  0.50000  0.81640  Biso   1.000  N
  N5       1.0000 0.25000  0.50000  0.00040  Biso   1.000  N
  N6       1.0000 0.75000  0.50000  0.49960  Biso   1.000  N
  N7       1.0000 0.75000  0.50000  0.99960  Biso   1.000  N
  N8       1.0000 0.25000  0.50000  0.50040  Biso   1.000  N
  N9       1.0000 0.14580  0.22500  0.40911  Biso   1.000  N
  N10      1.0000 0.35420  0.77500  0.40911  Biso   1.000  N
  N11      1.0000 0.85420  0.22500  0.09089  Biso   1.000  N
  N12      1.0000 0.64580  0.77500  0.09089  Biso   1.000  N
  N13      1.0000 0.85420  0.77500  0.59089  Biso   1.000  N
  N14      1.0000 0.64580  0.22500  0.59089  Biso   1.000  N
  N15      1.0000 0.14580  0.77500  0.90911  Biso   1.000  N
  N16      1.0000 0.35420  0.22500  0.90911  Biso   1.000  N
  S1       1.0000 0.02021  0.80358  0.40090  Biso   1.000  S
  S2       1.0000 0.47979  0.19642  0.40090  Biso   1.000  S
  S3       1.0000 0.97979  0.80358  0.09910  Biso   1.000  S
  S4       1.0000 0.52021  0.19642  0.09910  Biso   1.000  S
  S5       1.0000 0.97979  0.19642  0.59910  Biso   1.000  S
  S6       1.0000 0.52021  0.80358  0.59910  Biso   1.000  S
  S7       1.0000 0.02021  0.19642  0.90090  Biso   1.000  S
  S8       1.0000 0.47979  0.80358  0.90090  Biso   1.000  S
  C49      1.0000 0.15120  0.43700  0.28270  Biso   1.000  C
  C50      1.0000 0.34880  0.56300  0.28270  Biso   1.000  C
  C51      1.0000 0.84880  0.43700  0.21730  Biso   1.000  C
  C52      1.0000 0.65120  0.56300  0.21730  Biso   1.000  C
  C53      1.0000 0.84880  0.56300  0.71730  Biso   1.000  C
  C54      1.0000 0.65120  0.43700  0.71730  Biso   1.000  C
  C55      1.0000 0.15120  0.56300  0.78270  Biso   1.000  C
  C56      1.0000 0.34880  0.43700  0.78270  Biso   1.000  C
  H33      1.0000 0.08050  0.39210  0.30300  Biso   1.000  H
  H34      1.0000 0.41950  0.60790  0.30300  Biso   1.000  H
  H35      1.0000 0.91950  0.39210  0.19700  Biso   1.000  H
  H36      1.0000 0.58050  0.60790  0.19700  Biso   1.000  H
  H37      1.0000 0.91950  0.60790  0.69700  Biso   1.000  H
  H38      1.0000 0.58050  0.39210  0.69700  Biso   1.000  H
  H39      1.0000 0.08050  0.60790  0.80300  Biso   1.000  H
  H40      1.0000 0.41950  0.39210  0.80300  Biso   1.000  H
  C57      1.0000 0.14670  0.43380  0.22070  Biso   1.000  C
  C58      1.0000 0.35330  0.56620  0.22070  Biso   1.000  C
  C59      1.0000 0.85330  0.43380  0.27930  Biso   1.000  C
  C60      1.0000 0.64670  0.56620  0.27930  Biso   1.000  C
  C61      1.0000 0.85330  0.56620  0.77930  Biso   1.000  C
  C62      1.0000 0.64670  0.43380  0.77930  Biso   1.000  C
  C63      1.0000 0.14670  0.56620  0.72070  Biso   1.000  C
  C64      1.0000 0.35330  0.43380  0.72070  Biso   1.000  C
  H41      1.0000 0.07620  0.38830  0.20020  Biso   1.000  H
  H42      1.0000 0.42380  0.61170  0.20020  Biso   1.000  H
  H43      1.0000 0.92380  0.38830  0.29980  Biso   1.000  H
  H44      1.0000 0.57620  0.61170  0.29980  Biso   1.000  H
  H45      1.0000 0.92380  0.61170  0.79980  Biso   1.000  H
  H46      1.0000 0.57620  0.38830  0.79980  Biso   1.000  H
  H47      1.0000 0.07620  0.61170  0.70020  Biso   1.000  H
  H48      1.0000 0.42380  0.38830  0.70020  Biso   1.000  H
