data_image0
_cell_length_a       7.97
_cell_length_b       13.722
_cell_length_c       20.223
_cell_angle_alpha    90
_cell_angle_beta     91.35
_cell_angle_gamma    90

_symmetry_space_group_name_H-M    "P 1"
_symmetry_int_tables_number       1

loop_
  _symmetry_equiv_pos_as_xyz
  'x, y, z'

loop_
  _atom_site_label
  _atom_site_occupancy
  _atom_site_fract_x
  _atom_site_fract_y
  _atom_site_fract_z
  _atom_site_thermal_displace_type
  _atom_site_B_iso_or_equiv
  _atom_site_type_symbol
  Cu1      1.0000 0.17018  0.77464  0.99518  Biso   1.000  Cu
  Cu2      1.0000 0.67018  0.22536  0.49518  Biso   1.000  Cu
  Cu3      1.0000 0.07832  0.76750  0.84376  Biso   1.000  Cu
  Cu4      1.0000 0.57832  0.23250  0.34376  Biso   1.000  Cu
  Cu5      1.0000 0.48084  0.86749  0.06540  Biso   1.000  Cu
  Cu6      1.0000 0.98084  0.13251  0.56540  Biso   1.000  Cu
  Cu7      1.0000 0.76868  0.67714  0.77096  Biso   1.000  Cu
  Cu8      1.0000 0.26868  0.32286  0.27096  Biso   1.000  Cu
  O1       1.0000 0.87240  0.79790  0.79060  Biso   1.000  O
  O2       1.0000 0.37240  0.20210  0.29060  Biso   1.000  O
  O3       1.0000 0.94340  0.62340  0.82310  Biso   1.000  O
  O4       1.0000 0.44340  0.37660  0.32310  Biso   1.000  O
  O5       1.0000 0.30230  0.91740  0.01200  Biso   1.000  O
  O6       1.0000 0.80230  0.08260  0.51200  Biso   1.000  O
  O7       1.0000 0.37100  0.74180  0.04940  Biso   1.000  O
  O8       1.0000 0.87100  0.25820  0.54940  Biso   1.000  O
  C1       1.0000 0.83540  0.88600  0.76520  Biso   1.000  C
  C2       1.0000 0.33540  0.11400  0.26520  Biso   1.000  C
  N1       1.0000 0.66110  0.80960  0.12090  Biso   1.000  N
  N2       1.0000 0.16110  0.19040  0.62090  Biso   1.000  N
  H1       1.0000 0.73950  0.78550  0.09330  Biso   1.000  H
  H2       1.0000 0.23950  0.21450  0.59330  Biso   1.000  H
  N3       1.0000 0.16580  0.77430  0.71430  Biso   1.000  N
  N4       1.0000 0.66580  0.22570  0.21430  Biso   1.000  N
  N5       1.0000 0.83920  0.82190  0.94830  Biso   1.000  N
  N6       1.0000 0.33920  0.17810  0.44830  Biso   1.000  N
  C3       1.0000 0.98770  0.52980  0.82490  Biso   1.000  C
  C4       1.0000 0.48770  0.47020  0.32490  Biso   1.000  C
  C5       1.0000 0.72800  0.89810  0.71000  Biso   1.000  C
  C6       1.0000 0.22800  0.10190  0.21000  Biso   1.000  C
  C7       1.0000 0.37820  0.08420  0.02040  Biso   1.000  C
  C8       1.0000 0.87820  0.91580  0.52040  Biso   1.000  C
  N7       1.0000 0.70930  0.84600  0.96450  Biso   1.000  N
  N8       1.0000 0.20930  0.15400  0.46450  Biso   1.000  N
  C9       1.0000 0.69370  0.99300  0.68630  Biso   1.000  C
  C10      1.0000 0.19370  0.00700  0.18630  Biso   1.000  C
  H3       1.0000 0.61900  0.00100  0.65070  Biso   1.000  H
  H4       1.0000 0.11900  0.99900  0.15070  Biso   1.000  H
  N9       1.0000 0.97890  0.80250  0.93150  Biso   1.000  N
  N10      1.0000 0.47890  0.19750  0.43150  Biso   1.000  N
  N11      1.0000 0.22540  0.77190  0.76670  Biso   1.000  N
  N12      1.0000 0.72540  0.22810  0.26670  Biso   1.000  N
  N13      1.0000 0.05230  0.72970  0.11600  Biso   1.000  N
  N14      1.0000 0.55230  0.27030  0.61600  Biso   1.000  N
  N15      1.0000 0.57520  0.99810  0.09030  Biso   1.000  N
  N16      1.0000 0.07520  0.00190  0.59030  Biso   1.000  N
  H5       1.0000 0.51420  0.02080  0.12460  Biso   1.000  H
  H6       1.0000 0.01420  0.97920  0.62460  Biso   1.000  H
  N17      1.0000 0.26980  0.74260  0.90700  Biso   1.000  N
  N18      1.0000 0.76980  0.25740  0.40700  Biso   1.000  N
  N19      1.0000 0.40610  0.72030  0.88790  Biso   1.000  N
  N20      1.0000 0.90610  0.27970  0.38790  Biso   1.000  N
  C11      1.0000 0.74750  0.98000  0.11650  Biso   1.000  C
  C12      1.0000 0.24750  0.02000  0.61650  Biso   1.000  C
  H7       1.0000 0.78650  0.03480  0.14300  Biso   1.000  H
  H8       1.0000 0.28650  0.96520  0.64300  Biso   1.000  H
  H9       1.0000 0.82410  0.97050  0.08050  Biso   1.000  H
  H10      1.0000 0.32410  0.02950  0.58050  Biso   1.000  H
  C13      1.0000 0.10270  0.04110  0.98710  Biso   1.000  C
  C14      1.0000 0.60270  0.95890  0.48710  Biso   1.000  C
  H11      1.0000 0.02420  0.99310  0.97670  Biso   1.000  H
  H12      1.0000 0.52420  0.00690  0.47670  Biso   1.000  H
  N21      1.0000 0.01620  0.76670  0.06670  Biso   1.000  N
  N22      1.0000 0.51620  0.23330  0.56670  Biso   1.000  N
  C15      1.0000 0.91330  0.96900  0.79190  Biso   1.000  C
  C16      1.0000 0.41330  0.03100  0.29190  Biso   1.000  C
  H13      1.0000 0.99080  0.96230  0.82680  Biso   1.000  H
  H14      1.0000 0.49080  0.03770  0.32680  Biso   1.000  H
  N23      1.0000 0.53380  0.69790  0.86940  Biso   1.000  N
  N24      1.0000 0.03380  0.30210  0.36940  Biso   1.000  N
  C17      1.0000 0.34570  0.57260  0.04460  Biso   1.000  C
  C18      1.0000 0.84570  0.42740  0.54460  Biso   1.000  C
  H15      1.0000 0.27030  0.58030  0.00920  Biso   1.000  H
  H16      1.0000 0.77030  0.41970  0.50920  Biso   1.000  H
  N25      1.0000 0.11190  0.77890  0.66240  Biso   1.000  N
  N26      1.0000 0.61190  0.22110  0.16240  Biso   1.000  N
  C19      1.0000 0.60690  0.73120  0.16120  Biso   1.000  C
  C20      1.0000 0.10690  0.26880  0.66120  Biso   1.000  C
  H17      1.0000 0.52430  0.75580  0.19140  Biso   1.000  H
  H18      1.0000 0.02430  0.24420  0.69140  Biso   1.000  H
  H19      1.0000 0.70200  0.70810  0.18750  Biso   1.000  H
  H20      1.0000 0.20200  0.29190  0.68750  Biso   1.000  H
  C21      1.0000 0.73890  0.89030  0.15780  Biso   1.000  C
  C22      1.0000 0.23890  0.10970  0.65780  Biso   1.000  C
  H21      1.0000 0.85130  0.87180  0.17230  Biso   1.000  H
  H22      1.0000 0.35130  0.12820  0.67230  Biso   1.000  H
  H23      1.0000 0.67430  0.90380  0.19680  Biso   1.000  H
  H24      1.0000 0.17430  0.09620  0.69680  Biso   1.000  H
  C23      1.0000 0.87400  0.44980  0.80640  Biso   1.000  C
  C24      1.0000 0.37400  0.55020  0.30640  Biso   1.000  C
  N27      1.0000 0.08440  0.69140  0.16920  Biso   1.000  N
  N28      1.0000 0.58440  0.30860  0.66920  Biso   1.000  N
  C25      1.0000 0.53180  0.64640  0.12390  Biso   1.000  C
  C26      1.0000 0.03180  0.35360  0.62390  Biso   1.000  C
  C27      1.0000 0.32400  0.18010  0.01300  Biso   1.000  C
  C28      1.0000 0.82400  0.81990  0.51300  Biso   1.000  C
  H25      1.0000 0.40230  0.22900  0.02160  Biso   1.000  H
  H26      1.0000 0.90230  0.77100  0.52160  Biso   1.000  H
  C29      1.0000 0.38290  0.47890  0.06510  Biso   1.000  C
  C30      1.0000 0.88290  0.52110  0.56510  Biso   1.000  C
  H27      1.0000 0.33190  0.42490  0.04550  Biso   1.000  H
  H28      1.0000 0.83190  0.57510  0.54550  Biso   1.000  H
  C31      1.0000 0.26390  0.01080  0.00720  Biso   1.000  C
  C32      1.0000 0.76390  0.98920  0.50720  Biso   1.000  C
  C33      1.0000 0.49560  0.46980  0.11440  Biso   1.000  C
  C34      1.0000 0.99560  0.53020  0.61440  Biso   1.000  C
  H29      1.0000 0.52480  0.40800  0.12970  Biso   1.000  H
  H30      1.0000 0.02480  0.59200  0.62970  Biso   1.000  H
  N29      1.0000 0.67220  0.54960  0.74650  Biso   1.000  N
  N30      1.0000 0.17220  0.45040  0.24650  Biso   1.000  N
  H31      1.0000 0.73040  0.53640  0.70930  Biso   1.000  H
  H32      1.0000 0.23040  0.46360  0.20930  Biso   1.000  H
  C35      1.0000 0.05110  0.13850  0.98160  Biso   1.000  C
  C36      1.0000 0.55110  0.86150  0.48160  Biso   1.000  C
  H33      1.0000 0.94070  0.15350  0.96970  Biso   1.000  H
  H34      1.0000 0.44070  0.84650  0.46970  Biso   1.000  H
  C37      1.0000 0.76580  0.07170  0.71370  Biso   1.000  C
  C38      1.0000 0.26580  0.92830  0.21370  Biso   1.000  C
  H35      1.0000 0.74200  0.13360  0.69710  Biso   1.000  H
  H36      1.0000 0.24200  0.86640  0.19710  Biso   1.000  H
  C39      1.0000 0.55820  0.06570  0.03910  Biso   1.000  C
  C40      1.0000 0.05820  0.93430  0.53910  Biso   1.000  C
  H37      1.0000 0.61640  0.04180  0.00070  Biso   1.000  H
  H38      1.0000 0.11640  0.95820  0.50070  Biso   1.000  H
  H39      1.0000 0.61050  0.12660  0.05270  Biso   1.000  H
  H40      1.0000 0.11050  0.87340  0.55270  Biso   1.000  H
  C41      1.0000 0.87750  0.06000  0.76760  Biso   1.000  C
  C42      1.0000 0.37750  0.94000  0.26760  Biso   1.000  C
  H41      1.0000 0.92780  0.11440  0.78710  Biso   1.000  H
  H42      1.0000 0.42780  0.88560  0.28710  Biso   1.000  H
  C43      1.0000 0.41220  0.65410  0.07280  Biso   1.000  C
  C44      1.0000 0.91220  0.34590  0.57280  Biso   1.000  C
  C45      1.0000 0.92680  0.35860  0.81080  Biso   1.000  C
  C46      1.0000 0.42680  0.64140  0.31080  Biso   1.000  C
  H43      1.0000 0.85530  0.30880  0.79680  Biso   1.000  H
  H44      1.0000 0.35530  0.69120  0.29680  Biso   1.000  H
  N31      1.0000 0.60090  0.73220  0.70960  Biso   1.000  N
  N32      1.0000 0.10090  0.26780  0.20960  Biso   1.000  N
  H45      1.0000 0.51870  0.75810  0.73470  Biso   1.000  H
  H46      1.0000 0.01870  0.24190  0.23470  Biso   1.000  H
  C47      1.0000 0.14400  0.50340  0.85070  Biso   1.000  C
  C48      1.0000 0.64400  0.49660  0.35070  Biso   1.000  C
  H47      1.0000 0.21780  0.55220  0.86450  Biso   1.000  H
  H48      1.0000 0.71780  0.44780  0.36450  Biso   1.000  H
  C49      1.0000 0.52190  0.65420  0.66920  Biso   1.000  C
  C50      1.0000 0.02190  0.34580  0.16920  Biso   1.000  C
  H49      1.0000 0.59390  0.63570  0.63320  Biso   1.000  H
  H50      1.0000 0.09390  0.36430  0.13320  Biso   1.000  H
  H51      1.0000 0.41480  0.67570  0.65070  Biso   1.000  H
  H52      1.0000 0.91480  0.32430  0.15070  Biso   1.000  H
  C51      1.0000 0.66350  0.80630  0.67320  Biso   1.000  C
  C52      1.0000 0.16350  0.19370  0.17320  Biso   1.000  C
  H53      1.0000 0.57650  0.82660  0.64170  Biso   1.000  H
  H54      1.0000 0.07650  0.17340  0.14170  Biso   1.000  H
  H55      1.0000 0.75530  0.78050  0.64780  Biso   1.000  H
  H56      1.0000 0.25530  0.21950  0.14780  Biso   1.000  H
  C53      1.0000 0.16210  0.20930  0.99370  Biso   1.000  C
  C54      1.0000 0.66210  0.79070  0.49370  Biso   1.000  C
  H57      1.0000 0.13340  0.27470  0.98950  Biso   1.000  H
  H58      1.0000 0.63340  0.72530  0.48950  Biso   1.000  H
  C55      1.0000 0.57230  0.55390  0.14440  Biso   1.000  C
  C56      1.0000 0.07230  0.44610  0.64440  Biso   1.000  C
  H59      1.0000 0.65140  0.54550  0.17850  Biso   1.000  H
  H60      1.0000 0.15140  0.45450  0.67850  Biso   1.000  H
  C57      1.0000 0.19120  0.41300  0.85630  Biso   1.000  C
  C58      1.0000 0.69120  0.58700  0.35630  Biso   1.000  C
  H61      1.0000 0.29690  0.39860  0.87410  Biso   1.000  H
  H62      1.0000 0.79690  0.60140  0.37410  Biso   1.000  H
  C59      1.0000 0.70770  0.47670  0.78040  Biso   1.000  C
  C60      1.0000 0.20770  0.52330  0.28040  Biso   1.000  C
  H63      1.0000 0.66890  0.42120  0.75450  Biso   1.000  H
  H64      1.0000 0.16890  0.57880  0.25450  Biso   1.000  H
  H65      1.0000 0.63620  0.48000  0.81840  Biso   1.000  H
  H66      1.0000 0.13620  0.52000  0.31840  Biso   1.000  H
  C61      1.0000 0.08170  0.33540  0.83520  Biso   1.000  C
  C62      1.0000 0.58170  0.66460  0.33520  Biso   1.000  C
  H67      1.0000 0.11620  0.27080  0.83820  Biso   1.000  H
  H68      1.0000 0.61620  0.72920  0.33820  Biso   1.000  H
  C63      1.0000 0.49790  0.56890  0.71620  Biso   1.000  C
  C64      1.0000 0.99790  0.43110  0.21620  Biso   1.000  C
  H69      1.0000 0.45640  0.51200  0.69250  Biso   1.000  H
  H70      1.0000 0.95640  0.48800  0.19250  Biso   1.000  H
  H71      1.0000 0.41910  0.58560  0.75030  Biso   1.000  H
  H72      1.0000 0.91910  0.41440  0.25030  Biso   1.000  H
  C65      1.0000 0.44870  0.98570  0.84900  Biso   1.000  C
  C66      1.0000 0.94870  0.01430  0.34900  Biso   1.000  C
  H73      1.0000 0.35180  0.94640  0.83870  Biso   1.000  H
  H74      1.0000 0.85180  0.05360  0.33870  Biso   1.000  H
  H75      1.0000 0.48370  0.97480  0.89420  Biso   1.000  H
  H76      1.0000 0.98370  0.02520  0.39420  Biso   1.000  H
  H77      1.0000 0.53810  0.96820  0.82030  Biso   1.000  H
  H78      1.0000 0.03810  0.03180  0.32030  Biso   1.000  H
  C67      1.0000 0.40700  0.08770  0.83970  Biso   1.000  C
  C68      1.0000 0.90700  0.91230  0.33970  Biso   1.000  C
  C69      1.0000 0.51690  0.16790  0.85210  Biso   1.000  C
  C70      1.0000 0.01690  0.83210  0.35210  Biso   1.000  C
  H79      1.0000 0.55490  0.19330  0.81080  Biso   1.000  H
  H80      1.0000 0.05490  0.80670  0.31080  Biso   1.000  H
  H81      1.0000 0.61160  0.14640  0.87840  Biso   1.000  H
  H82      1.0000 0.11160  0.85360  0.37840  Biso   1.000  H
  H83      1.0000 0.45810  0.21790  0.87530  Biso   1.000  H
  H84      1.0000 0.95810  0.78210  0.37530  Biso   1.000  H
  O9       1.0000 0.26440  0.10970  0.81890  Biso   1.000  O
  O10      1.0000 0.76440  0.89030  0.31890  Biso   1.000  O
