data_image0
_cell_length_a       13.863
_cell_length_b       8.001
_cell_length_c       18.718
_cell_angle_alpha    90
_cell_angle_beta     104.877
_cell_angle_gamma    90

_symmetry_space_group_name_H-M    "P 1"
_symmetry_int_tables_number       1

loop_
  _symmetry_equiv_pos_as_xyz
  'x, y, z'

loop_
  _atom_site_label
  _atom_site_occupancy
  _atom_site_fract_x
  _atom_site_fract_y
  _atom_site_fract_z
  _atom_site_thermal_displace_type
  _atom_site_B_iso_or_equiv
  _atom_site_type_symbol
  Cu1      1.0000 0.47083  0.38569  0.65502  Biso   1.000  Cu
  Cu2      1.0000 0.02917  0.88569  0.84498  Biso   1.000  Cu
  Cu3      1.0000 0.52917  0.61431  0.34498  Biso   1.000  Cu
  Cu4      1.0000 0.97083  0.11431  0.15502  Biso   1.000  Cu
  Cu5      1.0000 0.46086  0.05774  0.56551  Biso   1.000  Cu
  Cu6      1.0000 0.03914  0.55774  0.93449  Biso   1.000  Cu
  Cu7      1.0000 0.53914  0.94226  0.43449  Biso   1.000  Cu
  Cu8      1.0000 0.96086  0.44226  0.06551  Biso   1.000  Cu
  O1       1.0000 0.56420  0.22230  0.64150  Biso   1.000  O
  O2       1.0000 0.93580  0.72230  0.85850  Biso   1.000  O
  O3       1.0000 0.43580  0.77770  0.35850  Biso   1.000  O
  O4       1.0000 0.06420  0.27770  0.14150  Biso   1.000  O
  O5       1.0000 0.38100  0.25450  0.57640  Biso   1.000  O
  O6       1.0000 0.11900  0.75450  0.92360  Biso   1.000  O
  O7       1.0000 0.61900  0.74550  0.42360  Biso   1.000  O
  O8       1.0000 0.88100  0.24550  0.07640  Biso   1.000  O
  N1       1.0000 0.40660  0.00630  0.69310  Biso   1.000  N
  N2       1.0000 0.09340  0.50630  0.80690  Biso   1.000  N
  N3       1.0000 0.59340  0.99370  0.30690  Biso   1.000  N
  N4       1.0000 0.90660  0.49370  0.19310  Biso   1.000  N
  N5       1.0000 0.42370  0.92480  0.64480  Biso   1.000  N
  N6       1.0000 0.07630  0.42480  0.85520  Biso   1.000  N
  N7       1.0000 0.57630  0.07520  0.35520  Biso   1.000  N
  N8       1.0000 0.92370  0.57520  0.14480  Biso   1.000  N
  N9       1.0000 0.54550  0.73340  0.56310  Biso   1.000  N
  N10      1.0000 0.95450  0.23340  0.93690  Biso   1.000  N
  N11      1.0000 0.45450  0.26660  0.43690  Biso   1.000  N
  N12      1.0000 0.04550  0.76660  0.06310  Biso   1.000  N
  N13      1.0000 0.55440  0.46270  0.75380  Biso   1.000  N
  N14      1.0000 0.94560  0.96270  0.74620  Biso   1.000  N
  N15      1.0000 0.44560  0.53730  0.24620  Biso   1.000  N
  N16      1.0000 0.05440  0.03730  0.25380  Biso   1.000  N
  C1       1.0000 0.28050  0.25690  0.55930  Biso   1.000  C
  C2       1.0000 0.21950  0.75690  0.94070  Biso   1.000  C
  C3       1.0000 0.71950  0.74310  0.44070  Biso   1.000  C
  C4       1.0000 0.78050  0.24310  0.05930  Biso   1.000  C
  N17      1.0000 0.36740  0.55880  0.65290  Biso   1.000  N
  N18      1.0000 0.13260  0.05880  0.84710  Biso   1.000  N
  N19      1.0000 0.63260  0.44120  0.34710  Biso   1.000  N
  N20      1.0000 0.86740  0.94120  0.15290  Biso   1.000  N
  N21      1.0000 0.39100  0.08520  0.73990  Biso   1.000  N
  N22      1.0000 0.10900  0.58520  0.76010  Biso   1.000  N
  N23      1.0000 0.60900  0.91480  0.26010  Biso   1.000  N
  N24      1.0000 0.89100  0.41480  0.23990  Biso   1.000  N
  N25      1.0000 0.53650  0.87330  0.53710  Biso   1.000  N
  N26      1.0000 0.96350  0.37330  0.96290  Biso   1.000  N
  N27      1.0000 0.46350  0.12670  0.46290  Biso   1.000  N
  N28      1.0000 0.03650  0.62670  0.03710  Biso   1.000  N
  C5       1.0000 0.66110  0.26630  0.65680  Biso   1.000  C
  C6       1.0000 0.83890  0.76630  0.84320  Biso   1.000  C
  C7       1.0000 0.33890  0.73370  0.34320  Biso   1.000  C
  C8       1.0000 0.16110  0.23370  0.15680  Biso   1.000  C
  C9       1.0000 0.22620  0.11380  0.53480  Biso   1.000  C
  C10      1.0000 0.27380  0.61380  0.96520  Biso   1.000  C
  C11      1.0000 0.77380  0.88620  0.46520  Biso   1.000  C
  C12      1.0000 0.72620  0.38620  0.03480  Biso   1.000  C
  H1       1.0000 0.25900  0.01420  0.53080  Biso   1.000  H
  H2       1.0000 0.24100  0.51420  0.96920  Biso   1.000  H
  H3       1.0000 0.74100  0.98580  0.46920  Biso   1.000  H
  H4       1.0000 0.75900  0.48580  0.03080  Biso   1.000  H
  N29      1.0000 0.55610  0.60250  0.58840  Biso   1.000  N
  N30      1.0000 0.94390  0.10250  0.91160  Biso   1.000  N
  N31      1.0000 0.44390  0.39750  0.41160  Biso   1.000  N
  N32      1.0000 0.05610  0.89750  0.08840  Biso   1.000  N
  C13      1.0000 0.71630  0.24730  0.60490  Biso   1.000  C
  C14      1.0000 0.78370  0.74730  0.89510  Biso   1.000  C
  C15      1.0000 0.28370  0.75270  0.39510  Biso   1.000  C
  C16      1.0000 0.21630  0.25270  0.10490  Biso   1.000  C
  H5       1.0000 0.68700  0.20060  0.55890  Biso   1.000  H
  H6       1.0000 0.81300  0.70060  0.94110  Biso   1.000  H
  H7       1.0000 0.31300  0.79940  0.44110  Biso   1.000  H
  H8       1.0000 0.18700  0.29940  0.05890  Biso   1.000  H
  C17      1.0000 0.23090  0.40610  0.56690  Biso   1.000  C
  C18      1.0000 0.26910  0.90610  0.93310  Biso   1.000  C
  C19      1.0000 0.76910  0.59390  0.43310  Biso   1.000  C
  C20      1.0000 0.73090  0.09390  0.06690  Biso   1.000  C
  C21      1.0000 0.12710  0.40310  0.54970  Biso   1.000  C
  C22      1.0000 0.37290  0.90310  0.95030  Biso   1.000  C
  C23      1.0000 0.87290  0.59690  0.45030  Biso   1.000  C
  C24      1.0000 0.62710  0.09690  0.04970  Biso   1.000  C
  H9       1.0000 0.09320  0.50110  0.55450  Biso   1.000  H
  H10      1.0000 0.40680  0.00110  0.94550  Biso   1.000  H
  H11      1.0000 0.90680  0.49890  0.44550  Biso   1.000  H
  H12      1.0000 0.59320  0.99890  0.05450  Biso   1.000  H
  C25      1.0000 0.12180  0.11860  0.51580  Biso   1.000  C
  C26      1.0000 0.37820  0.61860  0.98420  Biso   1.000  C
  C27      1.0000 0.87820  0.88140  0.48420  Biso   1.000  C
  C28      1.0000 0.62180  0.38140  0.01580  Biso   1.000  C
  H13      1.0000 0.08520  0.02440  0.49610  Biso   1.000  H
  H14      1.0000 0.41480  0.52440  0.00390  Biso   1.000  H
  H15      1.0000 0.91480  0.97560  0.50390  Biso   1.000  H
  H16      1.0000 0.58520  0.47560  0.99610  Biso   1.000  H
  C29      1.0000 0.70540  0.33860  0.72610  Biso   1.000  C
  C30      1.0000 0.79460  0.83860  0.77390  Biso   1.000  C
  C31      1.0000 0.29460  0.66140  0.27390  Biso   1.000  C
  C32      1.0000 0.20540  0.16140  0.22610  Biso   1.000  C
  C33      1.0000 0.28810  0.56330  0.58290  Biso   1.000  C
  C34      1.0000 0.21190  0.06330  0.91710  Biso   1.000  C
  C35      1.0000 0.71190  0.43670  0.41710  Biso   1.000  C
  C36      1.0000 0.78810  0.93670  0.08290  Biso   1.000  C
  H17      1.0000 0.24250  0.65390  0.58520  Biso   1.000  H
  H18      1.0000 0.25750  0.15390  0.91480  Biso   1.000  H
  H19      1.0000 0.75750  0.34610  0.41480  Biso   1.000  H
  H20      1.0000 0.74250  0.84610  0.08520  Biso   1.000  H
  H21      1.0000 0.31820  0.58680  0.54250  Biso   1.000  H
  H22      1.0000 0.18180  0.08680  0.95750  Biso   1.000  H
  H23      1.0000 0.68180  0.41320  0.45750  Biso   1.000  H
  H24      1.0000 0.81820  0.91320  0.04250  Biso   1.000  H
  C37      1.0000 0.32790  0.54960  0.71750  Biso   1.000  C
  C38      1.0000 0.17210  0.04960  0.78250  Biso   1.000  C
  C39      1.0000 0.67210  0.45040  0.28250  Biso   1.000  C
  C40      1.0000 0.82790  0.95040  0.21750  Biso   1.000  C
  H25      1.0000 0.30290  0.43770  0.72150  Biso   1.000  H
  H26      1.0000 0.19710  0.93770  0.77850  Biso   1.000  H
  H27      1.0000 0.69710  0.56230  0.27850  Biso   1.000  H
  H28      1.0000 0.80290  0.06230  0.22150  Biso   1.000  H
  H29      1.0000 0.27230  0.62670  0.71150  Biso   1.000  H
  H30      1.0000 0.22770  0.12670  0.78850  Biso   1.000  H
  H31      1.0000 0.72770  0.37330  0.28850  Biso   1.000  H
  H32      1.0000 0.77230  0.87330  0.21150  Biso   1.000  H
  C41      1.0000 0.07350  0.26270  0.52640  Biso   1.000  C
  C42      1.0000 0.42650  0.76270  0.97360  Biso   1.000  C
  C43      1.0000 0.92650  0.73730  0.47360  Biso   1.000  C
  C44      1.0000 0.57350  0.23730  0.02640  Biso   1.000  C
  H33      1.0000 0.00440  0.26400  0.51750  Biso   1.000  H
  H34      1.0000 0.49560  0.76400  0.98250  Biso   1.000  H
  H35      1.0000 0.99560  0.73600  0.48250  Biso   1.000  H
  H36      1.0000 0.50440  0.23600  0.01750  Biso   1.000  H
  C45      1.0000 0.81500  0.29820  0.62190  Biso   1.000  C
  C46      1.0000 0.68500  0.79820  0.87810  Biso   1.000  C
  C47      1.0000 0.18500  0.70180  0.37810  Biso   1.000  C
  C48      1.0000 0.31500  0.20180  0.12190  Biso   1.000  C
  H37      1.0000 0.85230  0.28420  0.58750  Biso   1.000  H
  H38      1.0000 0.64770  0.78420  0.91250  Biso   1.000  H
  H39      1.0000 0.14770  0.71580  0.41250  Biso   1.000  H
  H40      1.0000 0.35230  0.21580  0.08750  Biso   1.000  H
  C49      1.0000 0.49240  0.47270  0.80800  Biso   1.000  C
  C50      1.0000 0.00760  0.97270  0.69200  Biso   1.000  C
  C51      1.0000 0.50760  0.52730  0.19200  Biso   1.000  C
  C52      1.0000 0.99240  0.02730  0.30800  Biso   1.000  C
  H41      1.0000 0.53480  0.50680  0.85550  Biso   1.000  H
  H42      1.0000 0.96520  0.00680  0.64450  Biso   1.000  H
  H43      1.0000 0.46520  0.49320  0.14450  Biso   1.000  H
  H44      1.0000 0.03480  0.99320  0.35550  Biso   1.000  H
  H45      1.0000 0.46730  0.36180  0.81410  Biso   1.000  H
  H46      1.0000 0.03270  0.86180  0.68590  Biso   1.000  H
  H47      1.0000 0.53270  0.63820  0.18590  Biso   1.000  H
  H48      1.0000 0.96730  0.13820  0.31410  Biso   1.000  H
  C53      1.0000 0.64410  0.35470  0.78030  Biso   1.000  C
  C54      1.0000 0.85590  0.85470  0.71970  Biso   1.000  C
  C55      1.0000 0.35590  0.64530  0.21970  Biso   1.000  C
  C56      1.0000 0.14410  0.14530  0.28030  Biso   1.000  C
  H49      1.0000 0.68520  0.40080  0.82590  Biso   1.000  H
  H50      1.0000 0.81480  0.90080  0.67410  Biso   1.000  H
  H51      1.0000 0.31480  0.59920  0.17410  Biso   1.000  H
  H52      1.0000 0.18520  0.09920  0.32590  Biso   1.000  H
  H53      1.0000 0.62270  0.24430  0.79110  Biso   1.000  H
  H54      1.0000 0.87730  0.74430  0.70890  Biso   1.000  H
  H55      1.0000 0.37730  0.75570  0.20890  Biso   1.000  H
  H56      1.0000 0.12270  0.25570  0.29110  Biso   1.000  H
  C57      1.0000 0.80440  0.38860  0.74090  Biso   1.000  C
  C58      1.0000 0.69560  0.88860  0.75910  Biso   1.000  C
  C59      1.0000 0.19560  0.61140  0.25910  Biso   1.000  C
  C60      1.0000 0.30440  0.11140  0.24090  Biso   1.000  C
  H57      1.0000 0.83470  0.43590  0.78660  Biso   1.000  H
  H58      1.0000 0.66530  0.93590  0.71340  Biso   1.000  H
  H59      1.0000 0.16530  0.56410  0.21340  Biso   1.000  H
  H60      1.0000 0.33470  0.06410  0.28660  Biso   1.000  H
  C61      1.0000 0.40510  0.59140  0.78700  Biso   1.000  C
  C62      1.0000 0.09490  0.09140  0.71300  Biso   1.000  C
  C63      1.0000 0.59490  0.40860  0.21300  Biso   1.000  C
  C64      1.0000 0.90510  0.90860  0.28700  Biso   1.000  C
  H61      1.0000 0.37300  0.59530  0.82730  Biso   1.000  H
  H62      1.0000 0.12700  0.09530  0.67270  Biso   1.000  H
  H63      1.0000 0.62700  0.40470  0.17270  Biso   1.000  H
  H64      1.0000 0.87300  0.90470  0.32730  Biso   1.000  H
  H65      1.0000 0.43060  0.70240  0.78180  Biso   1.000  H
  H66      1.0000 0.06940  0.20240  0.71820  Biso   1.000  H
  H67      1.0000 0.56940  0.29760  0.21820  Biso   1.000  H
  H68      1.0000 0.93060  0.79760  0.28180  Biso   1.000  H
  C65      1.0000 0.85820  0.36960  0.68960  Biso   1.000  C
  C66      1.0000 0.64180  0.86960  0.81040  Biso   1.000  C
  C67      1.0000 0.14180  0.63040  0.31040  Biso   1.000  C
  C68      1.0000 0.35820  0.13040  0.18960  Biso   1.000  C
  H69      1.0000 0.92430  0.40490  0.70030  Biso   1.000  H
  H70      1.0000 0.57570  0.90490  0.79970  Biso   1.000  H
  H71      1.0000 0.07570  0.59510  0.29970  Biso   1.000  H
  H72      1.0000 0.42430  0.09510  0.20030  Biso   1.000  H
  H73      1.0000 0.40200  0.65200  0.65900  Biso   1.000  H
  H74      1.0000 0.09800  0.15200  0.84100  Biso   1.000  H
  H75      1.0000 0.59800  0.34800  0.34100  Biso   1.000  H
  H76      1.0000 0.90200  0.84800  0.15900  Biso   1.000  H
  H77      1.0000 0.57800  0.55500  0.75200  Biso   1.000  H
  H78      1.0000 0.92200  0.05500  0.74800  Biso   1.000  H
  H79      1.0000 0.42200  0.44500  0.24800  Biso   1.000  H
  H80      1.0000 0.07800  0.94500  0.25200  Biso   1.000  H
