data_image0
_cell_length_a       23.799
_cell_length_b       17.669
_cell_length_c       7.973
_cell_angle_alpha    90
_cell_angle_beta     108.314
_cell_angle_gamma    90

_symmetry_space_group_name_H-M    "P 1"
_symmetry_int_tables_number       1

loop_
  _symmetry_equiv_pos_as_xyz
  'x, y, z'

loop_
  _atom_site_label
  _atom_site_occupancy
  _atom_site_fract_x
  _atom_site_fract_y
  _atom_site_fract_z
  _atom_site_thermal_displace_type
  _atom_site_B_iso_or_equiv
  _atom_site_type_symbol
  Cu1      1.0000 0.00000  0.50000  0.00000  Biso   1.000  Cu
  Cu2      1.0000 0.50000  0.00000  0.00000  Biso   1.000  Cu
  Cu3      1.0000 0.25000  0.75000  0.00000  Biso   1.000  Cu
  Cu4      1.0000 0.75000  0.25000  0.00000  Biso   1.000  Cu
  Cu5      1.0000 0.75000  0.75000  0.00000  Biso   1.000  Cu
  Cu6      1.0000 0.25000  0.25000  0.00000  Biso   1.000  Cu
  Cl1      1.0000 0.06688  0.50000  0.27300  Biso   1.000  Cl
  Cl2      1.0000 0.56688  0.00000  0.27300  Biso   1.000  Cl
  Cl3      1.0000 0.93312  0.50000  0.72700  Biso   1.000  Cl
  Cl4      1.0000 0.43312  0.00000  0.72700  Biso   1.000  Cl
  Cl5      1.0000 0.34051  0.70958  0.99610  Biso   1.000  Cl
  Cl6      1.0000 0.84051  0.20958  0.99610  Biso   1.000  Cl
  Cl7      1.0000 0.65949  0.70958  0.00390  Biso   1.000  Cl
  Cl8      1.0000 0.15949  0.20958  0.00390  Biso   1.000  Cl
  Cl9      1.0000 0.65949  0.29042  0.00390  Biso   1.000  Cl
  Cl10     1.0000 0.15949  0.79042  0.00390  Biso   1.000  Cl
  Cl11     1.0000 0.34051  0.29042  0.99610  Biso   1.000  Cl
  Cl12     1.0000 0.84051  0.79042  0.99610  Biso   1.000  Cl
  O1       1.0000 0.08010  0.50000  0.84350  Biso   1.000  O
  O2       1.0000 0.58010  0.00000  0.84350  Biso   1.000  O
  O3       1.0000 0.91990  0.50000  0.15650  Biso   1.000  O
  O4       1.0000 0.41990  0.00000  0.15650  Biso   1.000  O
  O5       1.0000 0.24562  0.63730  0.18540  Biso   1.000  O
  O6       1.0000 0.74562  0.13730  0.18540  Biso   1.000  O
  O7       1.0000 0.75438  0.63730  0.81460  Biso   1.000  O
  O8       1.0000 0.25438  0.13730  0.81460  Biso   1.000  O
  O9       1.0000 0.75438  0.36270  0.81460  Biso   1.000  O
  O10      1.0000 0.25438  0.86270  0.81460  Biso   1.000  O
  O11      1.0000 0.24562  0.36270  0.18540  Biso   1.000  O
  O12      1.0000 0.74562  0.86270  0.18540  Biso   1.000  O
  O13      1.0000 0.39030  0.50000  0.56400  Biso   1.000  O
  O14      1.0000 0.89030  0.00000  0.56400  Biso   1.000  O
  O15      1.0000 0.60970  0.50000  0.43600  Biso   1.000  O
  O16      1.0000 0.10970  0.00000  0.43600  Biso   1.000  O
  N1       1.0000 0.38230  0.50000  0.85300  Biso   1.000  N
  N2       1.0000 0.88230  0.00000  0.85300  Biso   1.000  N
  N3       1.0000 0.61770  0.50000  0.14700  Biso   1.000  N
  N4       1.0000 0.11770  0.00000  0.14700  Biso   1.000  N
  N5       1.0000 0.01370  0.60610  0.93630  Biso   1.000  N
  N6       1.0000 0.51370  0.10610  0.93630  Biso   1.000  N
  N7       1.0000 0.98630  0.60610  0.06370  Biso   1.000  N
  N8       1.0000 0.48630  0.10610  0.06370  Biso   1.000  N
  N9       1.0000 0.98630  0.39390  0.06370  Biso   1.000  N
  N10      1.0000 0.48630  0.89390  0.06370  Biso   1.000  N
  N11      1.0000 0.01370  0.39390  0.93630  Biso   1.000  N
  N12      1.0000 0.51370  0.89390  0.93630  Biso   1.000  N
  C1       1.0000 0.03240  0.62190  0.80050  Biso   1.000  C
  C2       1.0000 0.53240  0.12190  0.80050  Biso   1.000  C
  C3       1.0000 0.96760  0.62190  0.19950  Biso   1.000  C
  C4       1.0000 0.46760  0.12190  0.19950  Biso   1.000  C
  C5       1.0000 0.96760  0.37810  0.19950  Biso   1.000  C
  C6       1.0000 0.46760  0.87810  0.19950  Biso   1.000  C
  C7       1.0000 0.03240  0.37810  0.80050  Biso   1.000  C
  C8       1.0000 0.53240  0.87810  0.80050  Biso   1.000  C
  C9       1.0000 0.03580  0.69420  0.73900  Biso   1.000  C
  C10      1.0000 0.53580  0.19420  0.73900  Biso   1.000  C
  C11      1.0000 0.96420  0.69420  0.26100  Biso   1.000  C
  C12      1.0000 0.46420  0.19420  0.26100  Biso   1.000  C
  C13      1.0000 0.96420  0.30580  0.26100  Biso   1.000  C
  C14      1.0000 0.46420  0.80580  0.26100  Biso   1.000  C
  C15      1.0000 0.03580  0.30580  0.73900  Biso   1.000  C
  C16      1.0000 0.53580  0.80580  0.73900  Biso   1.000  C
  H1       1.0000 0.04990  0.70260  0.64190  Biso   1.000  H
  H2       1.0000 0.54990  0.20260  0.64190  Biso   1.000  H
  H3       1.0000 0.95010  0.70260  0.35810  Biso   1.000  H
  H4       1.0000 0.45010  0.20260  0.35810  Biso   1.000  H
  H5       1.0000 0.95010  0.29740  0.35810  Biso   1.000  H
  H6       1.0000 0.45010  0.79740  0.35810  Biso   1.000  H
  H7       1.0000 0.04990  0.29740  0.64190  Biso   1.000  H
  H8       1.0000 0.54990  0.79740  0.64190  Biso   1.000  H
  C17      1.0000 0.01840  0.75460  0.82300  Biso   1.000  C
  C18      1.0000 0.51840  0.25460  0.82300  Biso   1.000  C
  C19      1.0000 0.98160  0.75460  0.17700  Biso   1.000  C
  C20      1.0000 0.48160  0.25460  0.17700  Biso   1.000  C
  C21      1.0000 0.98160  0.24540  0.17700  Biso   1.000  C
  C22      1.0000 0.48160  0.74540  0.17700  Biso   1.000  C
  C23      1.0000 0.01840  0.24540  0.82300  Biso   1.000  C
  C24      1.0000 0.51840  0.74540  0.82300  Biso   1.000  C
  H9       1.0000 0.01950  0.80510  0.78330  Biso   1.000  H
  H10      1.0000 0.51950  0.30510  0.78330  Biso   1.000  H
  H11      1.0000 0.98050  0.80510  0.21670  Biso   1.000  H
  H12      1.0000 0.48050  0.30510  0.21670  Biso   1.000  H
  H13      1.0000 0.98050  0.19490  0.21670  Biso   1.000  H
  H14      1.0000 0.48050  0.69490  0.21670  Biso   1.000  H
  H15      1.0000 0.01950  0.19490  0.78330  Biso   1.000  H
  H16      1.0000 0.51950  0.69490  0.78330  Biso   1.000  H
  C25      1.0000 0.99980  0.73860  0.96100  Biso   1.000  C
  C26      1.0000 0.49980  0.23860  0.96100  Biso   1.000  C
  C27      1.0000 0.00020  0.73860  0.03900  Biso   1.000  C
  C28      1.0000 0.50020  0.23860  0.03900  Biso   1.000  C
  C29      1.0000 0.00020  0.26140  0.03900  Biso   1.000  C
  C30      1.0000 0.50020  0.76140  0.03900  Biso   1.000  C
  C31      1.0000 0.99980  0.26140  0.96100  Biso   1.000  C
  C32      1.0000 0.49980  0.76140  0.96100  Biso   1.000  C
  H17      1.0000 0.01250  0.77650  0.97320  Biso   1.000  H
  H18      1.0000 0.51250  0.27650  0.97320  Biso   1.000  H
  H19      1.0000 0.98750  0.77650  0.02680  Biso   1.000  H
  H20      1.0000 0.48750  0.27650  0.02680  Biso   1.000  H
  H21      1.0000 0.98750  0.22350  0.02680  Biso   1.000  H
  H22      1.0000 0.48750  0.72350  0.02680  Biso   1.000  H
  H23      1.0000 0.01250  0.22350  0.97320  Biso   1.000  H
  H24      1.0000 0.51250  0.72350  0.97320  Biso   1.000  H
  C33      1.0000 0.00000  0.66360  0.00000  Biso   1.000  C
  C34      1.0000 0.50000  0.16360  0.00000  Biso   1.000  C
  C35      1.0000 0.00000  0.33640  0.00000  Biso   1.000  C
  C36      1.0000 0.50000  0.83640  0.00000  Biso   1.000  C
  H25      1.0000 0.01350  0.65350  0.90200  Biso   1.000  H
  H26      1.0000 0.51350  0.15350  0.90200  Biso   1.000  H
  H27      1.0000 0.98650  0.65350  0.09800  Biso   1.000  H
  H28      1.0000 0.48650  0.15350  0.09800  Biso   1.000  H
  H29      1.0000 0.98650  0.34650  0.09800  Biso   1.000  H
  H30      1.0000 0.48650  0.84650  0.09800  Biso   1.000  H
  H31      1.0000 0.01350  0.34650  0.90200  Biso   1.000  H
  H32      1.0000 0.51350  0.84650  0.90200  Biso   1.000  H
  N13      1.0000 0.28480  0.77710  0.25490  Biso   1.000  N
  N14      1.0000 0.78480  0.27710  0.25490  Biso   1.000  N
  N15      1.0000 0.71520  0.77710  0.74510  Biso   1.000  N
  N16      1.0000 0.21520  0.27710  0.74510  Biso   1.000  N
  N17      1.0000 0.71520  0.22290  0.74510  Biso   1.000  N
  N18      1.0000 0.21520  0.72290  0.74510  Biso   1.000  N
  N19      1.0000 0.28480  0.22290  0.25490  Biso   1.000  N
  N20      1.0000 0.78480  0.72290  0.25490  Biso   1.000  N
  C37      1.0000 0.30710  0.72480  0.37910  Biso   1.000  C
  C38      1.0000 0.80710  0.22480  0.37910  Biso   1.000  C
  C39      1.0000 0.69290  0.72480  0.62090  Biso   1.000  C
  C40      1.0000 0.19290  0.22480  0.62090  Biso   1.000  C
  C41      1.0000 0.69290  0.27520  0.62090  Biso   1.000  C
  C42      1.0000 0.19290  0.77520  0.62090  Biso   1.000  C
  C43      1.0000 0.30710  0.27520  0.37910  Biso   1.000  C
  C44      1.0000 0.80710  0.77520  0.37910  Biso   1.000  C
  C45      1.0000 0.33720  0.74370  0.55260  Biso   1.000  C
  C46      1.0000 0.83720  0.24370  0.55260  Biso   1.000  C
  C47      1.0000 0.66280  0.74370  0.44740  Biso   1.000  C
  C48      1.0000 0.16280  0.24370  0.44740  Biso   1.000  C
  C49      1.0000 0.66280  0.25630  0.44740  Biso   1.000  C
  C50      1.0000 0.16280  0.75630  0.44740  Biso   1.000  C
  C51      1.0000 0.33720  0.25630  0.55260  Biso   1.000  C
  C52      1.0000 0.83720  0.75630  0.55260  Biso   1.000  C
  H33      1.0000 0.35240  0.70560  0.63900  Biso   1.000  H
  H34      1.0000 0.85240  0.20560  0.63900  Biso   1.000  H
  H35      1.0000 0.64760  0.70560  0.36100  Biso   1.000  H
  H36      1.0000 0.14760  0.20560  0.36100  Biso   1.000  H
  H37      1.0000 0.64760  0.29440  0.36100  Biso   1.000  H
  H38      1.0000 0.14760  0.79440  0.36100  Biso   1.000  H
  H39      1.0000 0.35240  0.29440  0.63900  Biso   1.000  H
  H40      1.0000 0.85240  0.79440  0.63900  Biso   1.000  H
  C53      1.0000 0.34450  0.81970  0.59690  Biso   1.000  C
  C54      1.0000 0.84450  0.31970  0.59690  Biso   1.000  C
  C55      1.0000 0.65550  0.81970  0.40310  Biso   1.000  C
  C56      1.0000 0.15550  0.31970  0.40310  Biso   1.000  C
  C57      1.0000 0.65550  0.18030  0.40310  Biso   1.000  C
  C58      1.0000 0.15550  0.68030  0.40310  Biso   1.000  C
  C59      1.0000 0.34450  0.18030  0.59690  Biso   1.000  C
  C60      1.0000 0.84450  0.68030  0.59690  Biso   1.000  C
  H41      1.0000 0.36610  0.83450  0.71400  Biso   1.000  H
  H42      1.0000 0.86610  0.33450  0.71400  Biso   1.000  H
  H43      1.0000 0.63390  0.83450  0.28600  Biso   1.000  H
  H44      1.0000 0.13390  0.33450  0.28600  Biso   1.000  H
  H45      1.0000 0.63390  0.16550  0.28600  Biso   1.000  H
  H46      1.0000 0.13390  0.66550  0.28600  Biso   1.000  H
  H47      1.0000 0.36610  0.16550  0.71400  Biso   1.000  H
  H48      1.0000 0.86610  0.66550  0.71400  Biso   1.000  H
  C61      1.0000 0.32070  0.87250  0.47300  Biso   1.000  C
  C62      1.0000 0.82070  0.37250  0.47300  Biso   1.000  C
  C63      1.0000 0.67930  0.87250  0.52700  Biso   1.000  C
  C64      1.0000 0.17930  0.37250  0.52700  Biso   1.000  C
  C65      1.0000 0.67930  0.12750  0.52700  Biso   1.000  C
  C66      1.0000 0.17930  0.62750  0.52700  Biso   1.000  C
  C67      1.0000 0.32070  0.12750  0.47300  Biso   1.000  C
  C68      1.0000 0.82070  0.62750  0.47300  Biso   1.000  C
  H49      1.0000 0.32490  0.92480  0.50170  Biso   1.000  H
  H50      1.0000 0.82490  0.42480  0.50170  Biso   1.000  H
  H51      1.0000 0.67510  0.92480  0.49830  Biso   1.000  H
  H52      1.0000 0.17510  0.42480  0.49830  Biso   1.000  H
  H53      1.0000 0.67510  0.07520  0.49830  Biso   1.000  H
  H54      1.0000 0.17510  0.57520  0.49830  Biso   1.000  H
  H55      1.0000 0.32490  0.07520  0.50170  Biso   1.000  H
  H56      1.0000 0.82490  0.57520  0.50170  Biso   1.000  H
  C69      1.0000 0.29000  0.84910  0.30230  Biso   1.000  C
  C70      1.0000 0.79000  0.34910  0.30230  Biso   1.000  C
  C71      1.0000 0.71000  0.84910  0.69770  Biso   1.000  C
  C72      1.0000 0.21000  0.34910  0.69770  Biso   1.000  C
  C73      1.0000 0.71000  0.15090  0.69770  Biso   1.000  C
  C74      1.0000 0.21000  0.65090  0.69770  Biso   1.000  C
  C75      1.0000 0.29000  0.15090  0.30230  Biso   1.000  C
  C76      1.0000 0.79000  0.65090  0.30230  Biso   1.000  C
  H57      1.0000 0.27200  0.88630  0.21620  Biso   1.000  H
  H58      1.0000 0.77200  0.38630  0.21620  Biso   1.000  H
  H59      1.0000 0.72800  0.88630  0.78380  Biso   1.000  H
  H60      1.0000 0.22800  0.38630  0.78380  Biso   1.000  H
  H61      1.0000 0.72800  0.11370  0.78380  Biso   1.000  H
  H62      1.0000 0.22800  0.61370  0.78380  Biso   1.000  H
  H63      1.0000 0.27200  0.11370  0.21620  Biso   1.000  H
  H64      1.0000 0.77200  0.61370  0.21620  Biso   1.000  H
  C77      1.0000 0.13740  0.50000  0.95840  Biso   1.000  C
  C78      1.0000 0.63740  0.00000  0.95840  Biso   1.000  C
  C79      1.0000 0.86260  0.50000  0.04160  Biso   1.000  C
  C80      1.0000 0.36260  0.00000  0.04160  Biso   1.000  C
  C81      1.0000 0.16520  0.56780  0.01730  Biso   1.000  C
  C82      1.0000 0.66520  0.06780  0.01730  Biso   1.000  C
  C83      1.0000 0.83480  0.56780  0.98270  Biso   1.000  C
  C84      1.0000 0.33480  0.06780  0.98270  Biso   1.000  C
  C85      1.0000 0.83480  0.43220  0.98270  Biso   1.000  C
  C86      1.0000 0.33480  0.93220  0.98270  Biso   1.000  C
  C87      1.0000 0.16520  0.43220  0.01730  Biso   1.000  C
  C88      1.0000 0.66520  0.93220  0.01730  Biso   1.000  C
  H65      1.0000 0.14600  0.61460  0.97760  Biso   1.000  H
  H66      1.0000 0.64600  0.11460  0.97760  Biso   1.000  H
  H67      1.0000 0.85400  0.61460  0.02240  Biso   1.000  H
  H68      1.0000 0.35400  0.11460  0.02240  Biso   1.000  H
  H69      1.0000 0.85400  0.38540  0.02240  Biso   1.000  H
  H70      1.0000 0.35400  0.88540  0.02240  Biso   1.000  H
  H71      1.0000 0.14600  0.38540  0.97760  Biso   1.000  H
  H72      1.0000 0.64600  0.88540  0.97760  Biso   1.000  H
  C89      1.0000 0.22150  0.56590  0.13470  Biso   1.000  C
  C90      1.0000 0.72150  0.06590  0.13470  Biso   1.000  C
  C91      1.0000 0.77850  0.56590  0.86530  Biso   1.000  C
  C92      1.0000 0.27850  0.06590  0.86530  Biso   1.000  C
  C93      1.0000 0.77850  0.43410  0.86530  Biso   1.000  C
  C94      1.0000 0.27850  0.93410  0.86530  Biso   1.000  C
  C95      1.0000 0.22150  0.43410  0.13470  Biso   1.000  C
  C96      1.0000 0.72150  0.93410  0.13470  Biso   1.000  C
  C97      1.0000 0.25170  0.50000  0.19890  Biso   1.000  C
  C98      1.0000 0.75170  0.00000  0.19890  Biso   1.000  C
  C99      1.0000 0.74830  0.50000  0.80110  Biso   1.000  C
  C100     1.0000 0.24830  0.00000  0.80110  Biso   1.000  C
  H73      1.0000 0.29040  0.50000  0.28120  Biso   1.000  H
  H74      1.0000 0.79040  0.00000  0.28120  Biso   1.000  H
  H75      1.0000 0.70960  0.50000  0.71880  Biso   1.000  H
  H76      1.0000 0.20960  0.00000  0.71880  Biso   1.000  H
  C101     1.0000 0.05860  0.56050  0.72520  Biso   1.000  C
  C102     1.0000 0.55860  0.06050  0.72520  Biso   1.000  C
  C103     1.0000 0.94140  0.56050  0.27480  Biso   1.000  C
  C104     1.0000 0.44140  0.06050  0.27480  Biso   1.000  C
  C105     1.0000 0.94140  0.43950  0.27480  Biso   1.000  C
  C106     1.0000 0.44140  0.93950  0.27480  Biso   1.000  C
  C107     1.0000 0.05860  0.43950  0.72520  Biso   1.000  C
  C108     1.0000 0.55860  0.93950  0.72520  Biso   1.000  C
  H77      1.0000 0.02830  0.54090  0.61820  Biso   1.000  H
  H78      1.0000 0.52830  0.04090  0.61820  Biso   1.000  H
  H79      1.0000 0.97170  0.54090  0.38180  Biso   1.000  H
  H80      1.0000 0.47170  0.04090  0.38180  Biso   1.000  H
  H81      1.0000 0.97170  0.45910  0.38180  Biso   1.000  H
  H82      1.0000 0.47170  0.95910  0.38180  Biso   1.000  H
  H83      1.0000 0.02830  0.45910  0.61820  Biso   1.000  H
  H84      1.0000 0.52830  0.95910  0.61820  Biso   1.000  H
  H85      1.0000 0.09150  0.58130  0.68850  Biso   1.000  H
  H86      1.0000 0.59150  0.08130  0.68850  Biso   1.000  H
  H87      1.0000 0.90850  0.58130  0.31150  Biso   1.000  H
  H88      1.0000 0.40850  0.08130  0.31150  Biso   1.000  H
  H89      1.0000 0.90850  0.41870  0.31150  Biso   1.000  H
  H90      1.0000 0.40850  0.91870  0.31150  Biso   1.000  H
  H91      1.0000 0.09150  0.41870  0.68850  Biso   1.000  H
  H92      1.0000 0.59150  0.91870  0.68850  Biso   1.000  H
  C109     1.0000 0.29880  0.64290  0.32790  Biso   1.000  C
  C110     1.0000 0.79880  0.14290  0.32790  Biso   1.000  C
  C111     1.0000 0.70120  0.64290  0.67210  Biso   1.000  C
  C112     1.0000 0.20120  0.14290  0.67210  Biso   1.000  C
  C113     1.0000 0.70120  0.35710  0.67210  Biso   1.000  C
  C114     1.0000 0.20120  0.85710  0.67210  Biso   1.000  C
  C115     1.0000 0.29880  0.35710  0.32790  Biso   1.000  C
  C116     1.0000 0.79880  0.85710  0.32790  Biso   1.000  C
  H93      1.0000 0.33260  0.62450  0.29170  Biso   1.000  H
  H94      1.0000 0.83260  0.12450  0.29170  Biso   1.000  H
  H95      1.0000 0.66740  0.62450  0.70830  Biso   1.000  H
  H96      1.0000 0.16740  0.12450  0.70830  Biso   1.000  H
  H97      1.0000 0.66740  0.37550  0.70830  Biso   1.000  H
  H98      1.0000 0.16740  0.87550  0.70830  Biso   1.000  H
  H99      1.0000 0.33260  0.37550  0.29170  Biso   1.000  H
  H100     1.0000 0.83260  0.87550  0.29170  Biso   1.000  H
  H101     1.0000 0.29630  0.61200  0.42890  Biso   1.000  H
  H102     1.0000 0.79630  0.11200  0.42890  Biso   1.000  H
  H103     1.0000 0.70370  0.61200  0.57110  Biso   1.000  H
  H104     1.0000 0.20370  0.11200  0.57110  Biso   1.000  H
  H105     1.0000 0.70370  0.38800  0.57110  Biso   1.000  H
  H106     1.0000 0.20370  0.88800  0.57110  Biso   1.000  H
  H107     1.0000 0.29630  0.38800  0.42890  Biso   1.000  H
  H108     1.0000 0.79630  0.88800  0.42890  Biso   1.000  H
  C117     1.0000 0.41400  0.50000  0.72900  Biso   1.000  C
  C118     1.0000 0.91400  0.00000  0.72900  Biso   1.000  C
  C119     1.0000 0.58600  0.50000  0.27100  Biso   1.000  C
  C120     1.0000 0.08600  0.00000  0.27100  Biso   1.000  C
  H109     1.0000 0.45600  0.50000  0.77410  Biso   1.000  H
  H110     1.0000 0.95600  0.00000  0.77410  Biso   1.000  H
  H111     1.0000 0.54400  0.50000  0.22590  Biso   1.000  H
  H112     1.0000 0.04400  0.00000  0.22590  Biso   1.000  H
  C121     1.0000 0.31790  0.50000  0.77900  Biso   1.000  C
  C122     1.0000 0.81790  0.00000  0.77900  Biso   1.000  C
  C123     1.0000 0.68210  0.50000  0.22100  Biso   1.000  C
  C124     1.0000 0.18210  0.00000  0.22100  Biso   1.000  C
  H113     1.0000 0.30120  0.46580  0.84800  Biso   1.000  H
  H114     1.0000 0.80120  0.96580  0.84800  Biso   1.000  H
  H115     1.0000 0.69880  0.46580  0.15200  Biso   1.000  H
  H116     1.0000 0.19880  0.96580  0.15200  Biso   1.000  H
  H117     1.0000 0.69880  0.53420  0.15200  Biso   1.000  H
  H118     1.0000 0.19880  0.03420  0.15200  Biso   1.000  H
  H119     1.0000 0.30120  0.53420  0.84800  Biso   1.000  H
  H120     1.0000 0.80120  0.03420  0.84800  Biso   1.000  H
  H121     1.0000 0.30620  0.48280  0.65600  Biso   1.000  H
  H122     1.0000 0.80620  0.98280  0.65600  Biso   1.000  H
  H123     1.0000 0.69380  0.48280  0.34400  Biso   1.000  H
  H124     1.0000 0.19380  0.98280  0.34400  Biso   1.000  H
  H125     1.0000 0.69380  0.51720  0.34400  Biso   1.000  H
  H126     1.0000 0.19380  0.01720  0.34400  Biso   1.000  H
  H127     1.0000 0.30620  0.51720  0.65600  Biso   1.000  H
  H128     1.0000 0.80620  0.01720  0.65600  Biso   1.000  H
  H129     1.0000 0.30290  0.55140  0.78390  Biso   1.000  H
  H130     1.0000 0.80290  0.05140  0.78390  Biso   1.000  H
  H131     1.0000 0.69710  0.55140  0.21610  Biso   1.000  H
  H132     1.0000 0.19710  0.05140  0.21610  Biso   1.000  H
  H133     1.0000 0.69710  0.44860  0.21610  Biso   1.000  H
  H134     1.0000 0.19710  0.94860  0.21610  Biso   1.000  H
  H135     1.0000 0.30290  0.44860  0.78390  Biso   1.000  H
  H136     1.0000 0.80290  0.94860  0.78390  Biso   1.000  H
  C125     1.0000 0.41300  0.50000  0.04100  Biso   1.000  C
  C126     1.0000 0.91300  0.00000  0.04100  Biso   1.000  C
  C127     1.0000 0.58700  0.50000  0.95900  Biso   1.000  C
  C128     1.0000 0.08700  0.00000  0.95900  Biso   1.000  C
  H137     1.0000 0.45550  0.50410  0.06230  Biso   1.000  H
  H138     1.0000 0.95550  0.00410  0.06230  Biso   1.000  H
  H139     1.0000 0.54450  0.50410  0.93770  Biso   1.000  H
  H140     1.0000 0.04450  0.00410  0.93770  Biso   1.000  H
  H141     1.0000 0.54450  0.49590  0.93770  Biso   1.000  H
  H142     1.0000 0.04450  0.99590  0.93770  Biso   1.000  H
  H143     1.0000 0.45550  0.49590  0.06230  Biso   1.000  H
  H144     1.0000 0.95550  0.99590  0.06230  Biso   1.000  H
  H145     1.0000 0.40410  0.45280  0.09260  Biso   1.000  H
  H146     1.0000 0.90410  0.95280  0.09260  Biso   1.000  H
  H147     1.0000 0.59590  0.45280  0.90740  Biso   1.000  H
  H148     1.0000 0.09590  0.95280  0.90740  Biso   1.000  H
  H149     1.0000 0.59590  0.54720  0.90740  Biso   1.000  H
  H150     1.0000 0.09590  0.04720  0.90740  Biso   1.000  H
  H151     1.0000 0.40410  0.54720  0.09260  Biso   1.000  H
  H152     1.0000 0.90410  0.04720  0.09260  Biso   1.000  H
  H153     1.0000 0.39920  0.54310  0.09550  Biso   1.000  H
  H154     1.0000 0.89920  0.04310  0.09550  Biso   1.000  H
  H155     1.0000 0.60080  0.54310  0.90450  Biso   1.000  H
  H156     1.0000 0.10080  0.04310  0.90450  Biso   1.000  H
  H157     1.0000 0.60080  0.45690  0.90450  Biso   1.000  H
  H158     1.0000 0.10080  0.95690  0.90450  Biso   1.000  H
  H159     1.0000 0.39920  0.45690  0.09550  Biso   1.000  H
  H160     1.0000 0.89920  0.95690  0.09550  Biso   1.000  H
