data_image0
_cell_length_a       24.299
_cell_length_b       17.688
_cell_length_c       8.11
_cell_angle_alpha    90
_cell_angle_beta     106.954
_cell_angle_gamma    90

_symmetry_space_group_name_H-M    "P 1"
_symmetry_int_tables_number       1

loop_
  _symmetry_equiv_pos_as_xyz
  'x, y, z'

loop_
  _atom_site_label
  _atom_site_occupancy
  _atom_site_fract_x
  _atom_site_fract_y
  _atom_site_fract_z
  _atom_site_thermal_displace_type
  _atom_site_B_iso_or_equiv
  _atom_site_type_symbol
  Br1      1.0000 0.06200  0.50000  0.30000  Biso   1.000  Br
  Br2      1.0000 0.56200  0.00000  0.30000  Biso   1.000  Br
  Br3      1.0000 0.93800  0.50000  0.70000  Biso   1.000  Br
  Br4      1.0000 0.43800  0.00000  0.70000  Biso   1.000  Br
  Br5      1.0000 0.06690  0.47260  0.27840  Biso   1.000  Br
  Br6      1.0000 0.56690  0.97260  0.27840  Biso   1.000  Br
  Br7      1.0000 0.93310  0.47260  0.72160  Biso   1.000  Br
  Br8      1.0000 0.43310  0.97260  0.72160  Biso   1.000  Br
  Br9      1.0000 0.93310  0.52740  0.72160  Biso   1.000  Br
  Br10     1.0000 0.43310  0.02740  0.72160  Biso   1.000  Br
  Br11     1.0000 0.06690  0.52740  0.27840  Biso   1.000  Br
  Br12     1.0000 0.56690  0.02740  0.27840  Biso   1.000  Br
  Br13     1.0000 0.15652  0.20494  0.00926  Biso   1.000  Br
  Br14     1.0000 0.65652  0.70494  0.00926  Biso   1.000  Br
  Br15     1.0000 0.84348  0.20494  0.99074  Biso   1.000  Br
  Br16     1.0000 0.34348  0.70494  0.99074  Biso   1.000  Br
  Br17     1.0000 0.84348  0.79506  0.99074  Biso   1.000  Br
  Br18     1.0000 0.34348  0.29506  0.99074  Biso   1.000  Br
  Br19     1.0000 0.15652  0.79506  0.00926  Biso   1.000  Br
  Br20     1.0000 0.65652  0.29506  0.00926  Biso   1.000  Br
  Cu1      1.0000 0.00000  0.50000  0.00000  Biso   1.000  Cu
  Cu2      1.0000 0.50000  0.00000  0.00000  Biso   1.000  Cu
  Cu3      1.0000 0.25000  0.25000  0.00000  Biso   1.000  Cu
  Cu4      1.0000 0.75000  0.75000  0.00000  Biso   1.000  Cu
  Cu5      1.0000 0.75000  0.25000  0.00000  Biso   1.000  Cu
  Cu6      1.0000 0.25000  0.75000  0.00000  Biso   1.000  Cu
  O1       1.0000 0.08300  0.50000  0.85250  Biso   1.000  O
  O2       1.0000 0.58300  0.00000  0.85250  Biso   1.000  O
  O3       1.0000 0.91700  0.50000  0.14750  Biso   1.000  O
  O4       1.0000 0.41700  0.00000  0.14750  Biso   1.000  O
  O5       1.0000 0.24270  0.36330  0.18250  Biso   1.000  O
  O6       1.0000 0.74270  0.86330  0.18250  Biso   1.000  O
  O7       1.0000 0.75730  0.36330  0.81750  Biso   1.000  O
  O8       1.0000 0.25730  0.86330  0.81750  Biso   1.000  O
  O9       1.0000 0.75730  0.63670  0.81750  Biso   1.000  O
  O10      1.0000 0.25730  0.13670  0.81750  Biso   1.000  O
  O11      1.0000 0.24270  0.63670  0.18250  Biso   1.000  O
  O12      1.0000 0.74270  0.13670  0.18250  Biso   1.000  O
  N1       1.0000 0.28370  0.22520  0.24950  Biso   1.000  N
  N2       1.0000 0.78370  0.72520  0.24950  Biso   1.000  N
  N3       1.0000 0.71630  0.22520  0.75050  Biso   1.000  N
  N4       1.0000 0.21630  0.72520  0.75050  Biso   1.000  N
  N5       1.0000 0.71630  0.77480  0.75050  Biso   1.000  N
  N6       1.0000 0.21630  0.27480  0.75050  Biso   1.000  N
  N7       1.0000 0.28370  0.77480  0.24950  Biso   1.000  N
  N8       1.0000 0.78370  0.27480  0.24950  Biso   1.000  N
  C1       1.0000 0.13820  0.50000  0.96300  Biso   1.000  C
  C2       1.0000 0.63820  0.00000  0.96300  Biso   1.000  C
  C3       1.0000 0.86180  0.50000  0.03700  Biso   1.000  C
  C4       1.0000 0.36180  0.00000  0.03700  Biso   1.000  C
  C5       1.0000 0.16490  0.43240  0.01860  Biso   1.000  C
  C6       1.0000 0.66490  0.93240  0.01860  Biso   1.000  C
  C7       1.0000 0.83510  0.43240  0.98140  Biso   1.000  C
  C8       1.0000 0.33510  0.93240  0.98140  Biso   1.000  C
  C9       1.0000 0.83510  0.56760  0.98140  Biso   1.000  C
  C10      1.0000 0.33510  0.06760  0.98140  Biso   1.000  C
  C11      1.0000 0.16490  0.56760  0.01860  Biso   1.000  C
  C12      1.0000 0.66490  0.06760  0.01860  Biso   1.000  C
  H1       1.0000 0.14680  0.38570  0.97770  Biso   1.000  H
  H2       1.0000 0.64680  0.88570  0.97770  Biso   1.000  H
  H3       1.0000 0.85320  0.38570  0.02230  Biso   1.000  H
  H4       1.0000 0.35320  0.88570  0.02230  Biso   1.000  H
  H5       1.0000 0.85320  0.61430  0.02230  Biso   1.000  H
  H6       1.0000 0.35320  0.11430  0.02230  Biso   1.000  H
  H7       1.0000 0.14680  0.61430  0.97770  Biso   1.000  H
  H8       1.0000 0.64680  0.11430  0.97770  Biso   1.000  H
  C13      1.0000 0.21800  0.43430  0.13360  Biso   1.000  C
  C14      1.0000 0.71800  0.93430  0.13360  Biso   1.000  C
  C15      1.0000 0.78200  0.43430  0.86640  Biso   1.000  C
  C16      1.0000 0.28200  0.93430  0.86640  Biso   1.000  C
  C17      1.0000 0.78200  0.56570  0.86640  Biso   1.000  C
  C18      1.0000 0.28200  0.06570  0.86640  Biso   1.000  C
  C19      1.0000 0.21800  0.56570  0.13360  Biso   1.000  C
  C20      1.0000 0.71800  0.06570  0.13360  Biso   1.000  C
  C21      1.0000 0.24630  0.50000  0.19200  Biso   1.000  C
  C22      1.0000 0.74630  0.00000  0.19200  Biso   1.000  C
  C23      1.0000 0.75370  0.50000  0.80800  Biso   1.000  C
  C24      1.0000 0.25370  0.00000  0.80800  Biso   1.000  C
  H9       1.0000 0.28400  0.50000  0.27000  Biso   1.000  H
  H10      1.0000 0.78400  0.00000  0.27000  Biso   1.000  H
  H11      1.0000 0.71600  0.50000  0.73000  Biso   1.000  H
  H12      1.0000 0.21600  0.00000  0.73000  Biso   1.000  H
  C25      1.0000 0.06230  0.45010  0.73400  Biso   1.000  C
  C26      1.0000 0.56230  0.95010  0.73400  Biso   1.000  C
  C27      1.0000 0.93770  0.45010  0.26600  Biso   1.000  C
  C28      1.0000 0.43770  0.95010  0.26600  Biso   1.000  C
  C29      1.0000 0.93770  0.54990  0.26600  Biso   1.000  C
  C30      1.0000 0.43770  0.04990  0.26600  Biso   1.000  C
  C31      1.0000 0.06230  0.54990  0.73400  Biso   1.000  C
  C32      1.0000 0.56230  0.04990  0.73400  Biso   1.000  C
  H13      1.0000 0.09310  0.43350  0.68450  Biso   1.000  H
  H14      1.0000 0.59310  0.93350  0.68450  Biso   1.000  H
  H15      1.0000 0.90690  0.43350  0.31550  Biso   1.000  H
  H16      1.0000 0.40690  0.93350  0.31550  Biso   1.000  H
  H17      1.0000 0.90690  0.56650  0.31550  Biso   1.000  H
  H18      1.0000 0.40690  0.06650  0.31550  Biso   1.000  H
  H19      1.0000 0.09310  0.56650  0.68450  Biso   1.000  H
  H20      1.0000 0.59310  0.06650  0.68450  Biso   1.000  H
  H21      1.0000 0.03150  0.47370  0.64000  Biso   1.000  H
  H22      1.0000 0.53150  0.97370  0.64000  Biso   1.000  H
  H23      1.0000 0.96850  0.47370  0.36000  Biso   1.000  H
  H24      1.0000 0.46850  0.97370  0.36000  Biso   1.000  H
  H25      1.0000 0.96850  0.52630  0.36000  Biso   1.000  H
  H26      1.0000 0.46850  0.02630  0.36000  Biso   1.000  H
  H27      1.0000 0.03150  0.52630  0.64000  Biso   1.000  H
  H28      1.0000 0.53150  0.02630  0.64000  Biso   1.000  H
  N9       1.0000 0.01020  0.39740  0.92200  Biso   1.000  N
  N10      1.0000 0.51020  0.89740  0.92200  Biso   1.000  N
  N11      1.0000 0.98980  0.39740  0.07800  Biso   1.000  N
  N12      1.0000 0.48980  0.89740  0.07800  Biso   1.000  N
  N13      1.0000 0.98980  0.60260  0.07800  Biso   1.000  N
  N14      1.0000 0.48980  0.10260  0.07800  Biso   1.000  N
  N15      1.0000 0.01020  0.60260  0.92200  Biso   1.000  N
  N16      1.0000 0.51020  0.10260  0.92200  Biso   1.000  N
  C33      1.0000 0.03860  0.38310  0.79900  Biso   1.000  C
  C34      1.0000 0.53860  0.88310  0.79900  Biso   1.000  C
  C35      1.0000 0.96140  0.38310  0.20100  Biso   1.000  C
  C36      1.0000 0.46140  0.88310  0.20100  Biso   1.000  C
  C37      1.0000 0.96140  0.61690  0.20100  Biso   1.000  C
  C38      1.0000 0.46140  0.11690  0.20100  Biso   1.000  C
  C39      1.0000 0.03860  0.61690  0.79900  Biso   1.000  C
  C40      1.0000 0.53860  0.11690  0.79900  Biso   1.000  C
  C41      1.0000 0.03980  0.31030  0.73600  Biso   1.000  C
  C42      1.0000 0.53980  0.81030  0.73600  Biso   1.000  C
  C43      1.0000 0.96020  0.31030  0.26400  Biso   1.000  C
  C44      1.0000 0.46020  0.81030  0.26400  Biso   1.000  C
  C45      1.0000 0.96020  0.68970  0.26400  Biso   1.000  C
  C46      1.0000 0.46020  0.18970  0.26400  Biso   1.000  C
  C47      1.0000 0.03980  0.68970  0.73600  Biso   1.000  C
  C48      1.0000 0.53980  0.18970  0.73600  Biso   1.000  C
  H29      1.0000 0.05920  0.30050  0.65160  Biso   1.000  H
  H30      1.0000 0.55920  0.80050  0.65160  Biso   1.000  H
  H31      1.0000 0.94080  0.30050  0.34840  Biso   1.000  H
  H32      1.0000 0.44080  0.80050  0.34840  Biso   1.000  H
  H33      1.0000 0.94080  0.69950  0.34840  Biso   1.000  H
  H34      1.0000 0.44080  0.19950  0.34840  Biso   1.000  H
  H35      1.0000 0.05920  0.69950  0.65160  Biso   1.000  H
  H36      1.0000 0.55920  0.19950  0.65160  Biso   1.000  H
  C49      1.0000 0.01270  0.25160  0.79600  Biso   1.000  C
  C50      1.0000 0.51270  0.75160  0.79600  Biso   1.000  C
  C51      1.0000 0.98730  0.25160  0.20400  Biso   1.000  C
  C52      1.0000 0.48730  0.75160  0.20400  Biso   1.000  C
  C53      1.0000 0.98730  0.74840  0.20400  Biso   1.000  C
  C54      1.0000 0.48730  0.24840  0.20400  Biso   1.000  C
  C55      1.0000 0.01270  0.74840  0.79600  Biso   1.000  C
  C56      1.0000 0.51270  0.24840  0.79600  Biso   1.000  C
  H37      1.0000 0.01350  0.20180  0.75240  Biso   1.000  H
  H38      1.0000 0.51350  0.70180  0.75240  Biso   1.000  H
  H39      1.0000 0.98650  0.20180  0.24760  Biso   1.000  H
  H40      1.0000 0.48650  0.70180  0.24760  Biso   1.000  H
  H41      1.0000 0.98650  0.79820  0.24760  Biso   1.000  H
  H42      1.0000 0.48650  0.29820  0.24760  Biso   1.000  H
  H43      1.0000 0.01350  0.79820  0.75240  Biso   1.000  H
  H44      1.0000 0.51350  0.29820  0.75240  Biso   1.000  H
  C57      1.0000 0.98430  0.26590  0.91800  Biso   1.000  C
  C58      1.0000 0.48430  0.76590  0.91800  Biso   1.000  C
  C59      1.0000 0.01570  0.26590  0.08200  Biso   1.000  C
  C60      1.0000 0.51570  0.76590  0.08200  Biso   1.000  C
  C61      1.0000 0.01570  0.73410  0.08200  Biso   1.000  C
  C62      1.0000 0.51570  0.23410  0.08200  Biso   1.000  C
  C63      1.0000 0.98430  0.73410  0.91800  Biso   1.000  C
  C64      1.0000 0.48430  0.23410  0.91800  Biso   1.000  C
  H45      1.0000 0.96580  0.22580  0.95940  Biso   1.000  H
  H46      1.0000 0.46580  0.72580  0.95940  Biso   1.000  H
  H47      1.0000 0.03420  0.22580  0.04060  Biso   1.000  H
  H48      1.0000 0.53420  0.72580  0.04060  Biso   1.000  H
  H49      1.0000 0.03420  0.77420  0.04060  Biso   1.000  H
  H50      1.0000 0.53420  0.27420  0.04060  Biso   1.000  H
  H51      1.0000 0.96580  0.77420  0.95940  Biso   1.000  H
  H52      1.0000 0.46580  0.27420  0.95940  Biso   1.000  H
  C65      1.0000 0.98310  0.33870  0.98100  Biso   1.000  C
  C66      1.0000 0.48310  0.83870  0.98100  Biso   1.000  C
  C67      1.0000 0.01690  0.33870  0.01900  Biso   1.000  C
  C68      1.0000 0.51690  0.83870  0.01900  Biso   1.000  C
  C69      1.0000 0.01690  0.66130  0.01900  Biso   1.000  C
  C70      1.0000 0.51690  0.16130  0.01900  Biso   1.000  C
  C71      1.0000 0.98310  0.66130  0.98100  Biso   1.000  C
  C72      1.0000 0.48310  0.16130  0.98100  Biso   1.000  C
  H53      1.0000 0.03630  0.34850  0.93450  Biso   1.000  H
  H54      1.0000 0.53630  0.84850  0.93450  Biso   1.000  H
  H55      1.0000 0.96370  0.34850  0.06550  Biso   1.000  H
  H56      1.0000 0.46370  0.84850  0.06550  Biso   1.000  H
  H57      1.0000 0.96370  0.65150  0.06550  Biso   1.000  H
  H58      1.0000 0.46370  0.15150  0.06550  Biso   1.000  H
  H59      1.0000 0.03630  0.65150  0.93450  Biso   1.000  H
  H60      1.0000 0.53630  0.15150  0.93450  Biso   1.000  H
  C73      1.0000 0.29400  0.35880  0.32000  Biso   1.000  C
  C74      1.0000 0.79400  0.85880  0.32000  Biso   1.000  C
  C75      1.0000 0.70600  0.35880  0.68000  Biso   1.000  C
  C76      1.0000 0.20600  0.85880  0.68000  Biso   1.000  C
  C77      1.0000 0.70600  0.64120  0.68000  Biso   1.000  C
  C78      1.0000 0.20600  0.14120  0.68000  Biso   1.000  C
  C79      1.0000 0.29400  0.64120  0.32000  Biso   1.000  C
  C80      1.0000 0.79400  0.14120  0.32000  Biso   1.000  C
  H61      1.0000 0.29070  0.38900  0.41940  Biso   1.000  H
  H62      1.0000 0.79070  0.88900  0.41940  Biso   1.000  H
  H63      1.0000 0.70930  0.38900  0.58060  Biso   1.000  H
  H64      1.0000 0.20930  0.88900  0.58060  Biso   1.000  H
  H65      1.0000 0.70930  0.61100  0.58060  Biso   1.000  H
  H66      1.0000 0.20930  0.11100  0.58060  Biso   1.000  H
  H67      1.0000 0.29070  0.61100  0.41940  Biso   1.000  H
  H68      1.0000 0.79070  0.11100  0.41940  Biso   1.000  H
  H69      1.0000 0.32690  0.37820  0.28360  Biso   1.000  H
  H70      1.0000 0.82690  0.87820  0.28360  Biso   1.000  H
  H71      1.0000 0.67310  0.37820  0.71640  Biso   1.000  H
  H72      1.0000 0.17310  0.87820  0.71640  Biso   1.000  H
  H73      1.0000 0.67310  0.62180  0.71640  Biso   1.000  H
  H74      1.0000 0.17310  0.12180  0.71640  Biso   1.000  H
  H75      1.0000 0.32690  0.62180  0.28360  Biso   1.000  H
  H76      1.0000 0.82690  0.12180  0.28360  Biso   1.000  H
  C81      1.0000 0.30270  0.27800  0.36770  Biso   1.000  C
  C82      1.0000 0.80270  0.77800  0.36770  Biso   1.000  C
  C83      1.0000 0.69730  0.27800  0.63230  Biso   1.000  C
  C84      1.0000 0.19730  0.77800  0.63230  Biso   1.000  C
  C85      1.0000 0.69730  0.72200  0.63230  Biso   1.000  C
  C86      1.0000 0.19730  0.22200  0.63230  Biso   1.000  C
  C87      1.0000 0.30270  0.72200  0.36770  Biso   1.000  C
  C88      1.0000 0.80270  0.22200  0.36770  Biso   1.000  C
  C89      1.0000 0.33010  0.25730  0.53510  Biso   1.000  C
  C90      1.0000 0.83010  0.75730  0.53510  Biso   1.000  C
  C91      1.0000 0.66990  0.25730  0.46490  Biso   1.000  C
  C92      1.0000 0.16990  0.75730  0.46490  Biso   1.000  C
  C93      1.0000 0.66990  0.74270  0.46490  Biso   1.000  C
  C94      1.0000 0.16990  0.24270  0.46490  Biso   1.000  C
  C95      1.0000 0.33010  0.74270  0.53510  Biso   1.000  C
  C96      1.0000 0.83010  0.24270  0.53510  Biso   1.000  C
  H77      1.0000 0.34280  0.29560  0.61990  Biso   1.000  H
  H78      1.0000 0.84280  0.79560  0.61990  Biso   1.000  H
  H79      1.0000 0.65720  0.29560  0.38010  Biso   1.000  H
  H80      1.0000 0.15720  0.79560  0.38010  Biso   1.000  H
  H81      1.0000 0.65720  0.70440  0.38010  Biso   1.000  H
  H82      1.0000 0.15720  0.20440  0.38010  Biso   1.000  H
  H83      1.0000 0.34280  0.70440  0.61990  Biso   1.000  H
  H84      1.0000 0.84280  0.20440  0.61990  Biso   1.000  H
  C97      1.0000 0.33950  0.18490  0.58170  Biso   1.000  C
  C98      1.0000 0.83950  0.68490  0.58170  Biso   1.000  C
  C99      1.0000 0.66050  0.18490  0.41830  Biso   1.000  C
  C100     1.0000 0.16050  0.68490  0.41830  Biso   1.000  C
  C101     1.0000 0.66050  0.81510  0.41830  Biso   1.000  C
  C102     1.0000 0.16050  0.31510  0.41830  Biso   1.000  C
  C103     1.0000 0.33950  0.81510  0.58170  Biso   1.000  C
  C104     1.0000 0.83950  0.31510  0.58170  Biso   1.000  C
  H85      1.0000 0.36110  0.17160  0.69580  Biso   1.000  H
  H86      1.0000 0.86110  0.67160  0.69580  Biso   1.000  H
  H87      1.0000 0.63890  0.17160  0.30420  Biso   1.000  H
  H88      1.0000 0.13890  0.67160  0.30420  Biso   1.000  H
  H89      1.0000 0.63890  0.82840  0.30420  Biso   1.000  H
  H90      1.0000 0.13890  0.32840  0.30420  Biso   1.000  H
  H91      1.0000 0.36110  0.82840  0.69580  Biso   1.000  H
  H92      1.0000 0.86110  0.32840  0.69580  Biso   1.000  H
  C105     1.0000 0.31700  0.12940  0.45860  Biso   1.000  C
  C106     1.0000 0.81700  0.62940  0.45860  Biso   1.000  C
  C107     1.0000 0.68300  0.12940  0.54140  Biso   1.000  C
  C108     1.0000 0.18300  0.62940  0.54140  Biso   1.000  C
  C109     1.0000 0.68300  0.87060  0.54140  Biso   1.000  C
  C110     1.0000 0.18300  0.37060  0.54140  Biso   1.000  C
  C111     1.0000 0.31700  0.87060  0.45860  Biso   1.000  C
  C112     1.0000 0.81700  0.37060  0.45860  Biso   1.000  C
  H93      1.0000 0.32060  0.07730  0.48860  Biso   1.000  H
  H94      1.0000 0.82060  0.57730  0.48860  Biso   1.000  H
  H95      1.0000 0.67940  0.07730  0.51140  Biso   1.000  H
  H96      1.0000 0.17940  0.57730  0.51140  Biso   1.000  H
  H97      1.0000 0.67940  0.92270  0.51140  Biso   1.000  H
  H98      1.0000 0.17940  0.42270  0.51140  Biso   1.000  H
  H99      1.0000 0.32060  0.92270  0.48860  Biso   1.000  H
  H100     1.0000 0.82060  0.42270  0.48860  Biso   1.000  H
  C113     1.0000 0.28960  0.15150  0.29470  Biso   1.000  C
  C114     1.0000 0.78960  0.65150  0.29470  Biso   1.000  C
  C115     1.0000 0.71040  0.15150  0.70530  Biso   1.000  C
  C116     1.0000 0.21040  0.65150  0.70530  Biso   1.000  C
  C117     1.0000 0.71040  0.84850  0.70530  Biso   1.000  C
  C118     1.0000 0.21040  0.34850  0.70530  Biso   1.000  C
  C119     1.0000 0.28960  0.84850  0.29470  Biso   1.000  C
  C120     1.0000 0.78960  0.34850  0.29470  Biso   1.000  C
  H101     1.0000 0.27410  0.11410  0.20970  Biso   1.000  H
  H102     1.0000 0.77410  0.61410  0.20970  Biso   1.000  H
  H103     1.0000 0.72590  0.11410  0.79030  Biso   1.000  H
  H104     1.0000 0.22590  0.61410  0.79030  Biso   1.000  H
  H105     1.0000 0.72590  0.88590  0.79030  Biso   1.000  H
  H106     1.0000 0.22590  0.38590  0.79030  Biso   1.000  H
  H107     1.0000 0.27410  0.88590  0.20970  Biso   1.000  H
  H108     1.0000 0.77410  0.38590  0.20970  Biso   1.000  H
  O13      1.0000 0.32200  0.50000  0.73900  Biso   1.000  O
  O14      1.0000 0.82200  0.00000  0.73900  Biso   1.000  O
  O15      1.0000 0.67800  0.50000  0.26100  Biso   1.000  O
  O16      1.0000 0.17800  0.00000  0.26100  Biso   1.000  O
  O17      1.0000 0.39000  0.50000  0.61200  Biso   1.000  O
  O18      1.0000 0.89000  0.00000  0.61200  Biso   1.000  O
  O19      1.0000 0.61000  0.50000  0.38800  Biso   1.000  O
  O20      1.0000 0.11000  0.00000  0.38800  Biso   1.000  O
  C121     1.0000 0.37900  0.50000  0.85500  Biso   1.000  C
  C122     1.0000 0.87900  0.00000  0.85500  Biso   1.000  C
  C123     1.0000 0.62100  0.50000  0.14500  Biso   1.000  C
  C124     1.0000 0.12100  0.00000  0.14500  Biso   1.000  C
  C125     1.0000 0.41200  0.50000  0.47000  Biso   1.000  C
  C126     1.0000 0.91200  0.00000  0.47000  Biso   1.000  C
  C127     1.0000 0.58800  0.50000  0.53000  Biso   1.000  C
  C128     1.0000 0.08800  0.00000  0.53000  Biso   1.000  C
