data_image0
_cell_length_a       21.965
_cell_length_b       10.671
_cell_length_c       13.662
_cell_angle_alpha    90
_cell_angle_beta     93.5
_cell_angle_gamma    90

_symmetry_space_group_name_H-M    "P 1"
_symmetry_int_tables_number       1

loop_
  _symmetry_equiv_pos_as_xyz
  'x, y, z'

loop_
  _atom_site_label
  _atom_site_occupancy
  _atom_site_fract_x
  _atom_site_fract_y
  _atom_site_fract_z
  _atom_site_thermal_displace_type
  _atom_site_B_iso_or_equiv
  _atom_site_type_symbol
  Cu1      1.0000 0.00304  0.56936  0.38172  Biso   1.000  Cu
  Cu2      1.0000 0.50304  0.06936  0.38172  Biso   1.000  Cu
  Cu3      1.0000 0.99696  0.56936  0.11828  Biso   1.000  Cu
  Cu4      1.0000 0.49696  0.06936  0.11828  Biso   1.000  Cu
  Cu5      1.0000 0.99696  0.43064  0.61828  Biso   1.000  Cu
  Cu6      1.0000 0.49696  0.93064  0.61828  Biso   1.000  Cu
  Cu7      1.0000 0.00304  0.43064  0.88172  Biso   1.000  Cu
  Cu8      1.0000 0.50304  0.93064  0.88172  Biso   1.000  Cu
  O1       1.0000 0.95781  0.42560  0.42604  Biso   1.000  O
  O2       1.0000 0.45781  0.92560  0.42604  Biso   1.000  O
  O3       1.0000 0.04219  0.42560  0.07396  Biso   1.000  O
  O4       1.0000 0.54219  0.92560  0.07396  Biso   1.000  O
  O5       1.0000 0.04219  0.57440  0.57396  Biso   1.000  O
  O6       1.0000 0.54219  0.07440  0.57396  Biso   1.000  O
  O7       1.0000 0.95781  0.57440  0.92604  Biso   1.000  O
  O8       1.0000 0.45781  0.07440  0.92604  Biso   1.000  O
  O9       1.0000 0.05077  0.45440  0.31614  Biso   1.000  O
  O10      1.0000 0.55077  0.95440  0.31614  Biso   1.000  O
  O11      1.0000 0.94923  0.45440  0.18386  Biso   1.000  O
  O12      1.0000 0.44923  0.95440  0.18386  Biso   1.000  O
  O13      1.0000 0.94923  0.54560  0.68386  Biso   1.000  O
  O14      1.0000 0.44923  0.04560  0.68386  Biso   1.000  O
  O15      1.0000 0.05077  0.54560  0.81614  Biso   1.000  O
  O16      1.0000 0.55077  0.04560  0.81614  Biso   1.000  O
  O17      1.0000 0.94817  0.22220  0.39222  Biso   1.000  O
  O18      1.0000 0.44817  0.72220  0.39222  Biso   1.000  O
  O19      1.0000 0.05183  0.22220  0.10778  Biso   1.000  O
  O20      1.0000 0.55183  0.72220  0.10778  Biso   1.000  O
  O21      1.0000 0.05183  0.77780  0.60778  Biso   1.000  O
  O22      1.0000 0.55183  0.27780  0.60778  Biso   1.000  O
  O23      1.0000 0.94817  0.77780  0.89222  Biso   1.000  O
  O24      1.0000 0.44817  0.27780  0.89222  Biso   1.000  O
  N1       1.0000 0.94405  0.69700  0.42120  Biso   1.000  N
  N2       1.0000 0.44405  0.19700  0.42120  Biso   1.000  N
  N3       1.0000 0.05595  0.69700  0.07880  Biso   1.000  N
  N4       1.0000 0.55595  0.19700  0.07880  Biso   1.000  N
  N5       1.0000 0.05595  0.30300  0.57880  Biso   1.000  N
  N6       1.0000 0.55595  0.80300  0.57880  Biso   1.000  N
  N7       1.0000 0.94405  0.30300  0.92120  Biso   1.000  N
  N8       1.0000 0.44405  0.80300  0.92120  Biso   1.000  N
  N9       1.0000 0.05052  0.72370  0.35230  Biso   1.000  N
  N10      1.0000 0.55052  0.22370  0.35230  Biso   1.000  N
  N11      1.0000 0.94948  0.72370  0.14770  Biso   1.000  N
  N12      1.0000 0.44948  0.22370  0.14770  Biso   1.000  N
  N13      1.0000 0.94948  0.27630  0.64770  Biso   1.000  N
  N14      1.0000 0.44948  0.77630  0.64770  Biso   1.000  N
  N15      1.0000 0.05052  0.27630  0.85230  Biso   1.000  N
  N16      1.0000 0.55052  0.77630  0.85230  Biso   1.000  N
  C1       1.0000 0.88977  0.67330  0.45510  Biso   1.000  C
  C2       1.0000 0.38977  0.17330  0.45510  Biso   1.000  C
  C3       1.0000 0.11023  0.67330  0.04490  Biso   1.000  C
  C4       1.0000 0.61023  0.17330  0.04490  Biso   1.000  C
  C5       1.0000 0.11023  0.32670  0.54490  Biso   1.000  C
  C6       1.0000 0.61023  0.82670  0.54490  Biso   1.000  C
  C7       1.0000 0.88977  0.32670  0.95510  Biso   1.000  C
  C8       1.0000 0.38977  0.82670  0.95510  Biso   1.000  C
  H1       1.0000 0.87850  0.59030  0.46450  Biso   1.000  H
  H2       1.0000 0.37850  0.09030  0.46450  Biso   1.000  H
  H3       1.0000 0.12150  0.59030  0.03550  Biso   1.000  H
  H4       1.0000 0.62150  0.09030  0.03550  Biso   1.000  H
  H5       1.0000 0.12150  0.40970  0.53550  Biso   1.000  H
  H6       1.0000 0.62150  0.90970  0.53550  Biso   1.000  H
  H7       1.0000 0.87850  0.40970  0.96450  Biso   1.000  H
  H8       1.0000 0.37850  0.90970  0.96450  Biso   1.000  H
  C9       1.0000 0.84950  0.76720  0.47670  Biso   1.000  C
  C10      1.0000 0.34950  0.26720  0.47670  Biso   1.000  C
  C11      1.0000 0.15050  0.76720  0.02330  Biso   1.000  C
  C12      1.0000 0.65050  0.26720  0.02330  Biso   1.000  C
  C13      1.0000 0.15050  0.23280  0.52330  Biso   1.000  C
  C14      1.0000 0.65050  0.73280  0.52330  Biso   1.000  C
  C15      1.0000 0.84950  0.23280  0.97670  Biso   1.000  C
  C16      1.0000 0.34950  0.73280  0.97670  Biso   1.000  C
  H9       1.0000 0.81170  0.74850  0.50020  Biso   1.000  H
  H10      1.0000 0.31170  0.24850  0.50020  Biso   1.000  H
  H11      1.0000 0.18830  0.74850  0.99980  Biso   1.000  H
  H12      1.0000 0.68830  0.24850  0.99980  Biso   1.000  H
  H13      1.0000 0.18830  0.25150  0.49980  Biso   1.000  H
  H14      1.0000 0.68830  0.75150  0.49980  Biso   1.000  H
  H15      1.0000 0.81170  0.25150  0.00020  Biso   1.000  H
  H16      1.0000 0.31170  0.75150  0.00020  Biso   1.000  H
  C17      1.0000 0.86690  0.88800  0.46270  Biso   1.000  C
  C18      1.0000 0.36690  0.38800  0.46270  Biso   1.000  C
  C19      1.0000 0.13310  0.88800  0.03730  Biso   1.000  C
  C20      1.0000 0.63310  0.38800  0.03730  Biso   1.000  C
  C21      1.0000 0.13310  0.11200  0.53730  Biso   1.000  C
  C22      1.0000 0.63310  0.61200  0.53730  Biso   1.000  C
  C23      1.0000 0.86690  0.11200  0.96270  Biso   1.000  C
  C24      1.0000 0.36690  0.61200  0.96270  Biso   1.000  C
  H17      1.0000 0.84050  0.95300  0.47630  Biso   1.000  H
  H18      1.0000 0.34050  0.45300  0.47630  Biso   1.000  H
  H19      1.0000 0.15950  0.95300  0.02370  Biso   1.000  H
  H20      1.0000 0.65950  0.45300  0.02370  Biso   1.000  H
  H21      1.0000 0.15950  0.04700  0.52370  Biso   1.000  H
  H22      1.0000 0.65950  0.54700  0.52370  Biso   1.000  H
  H23      1.0000 0.84050  0.04700  0.97630  Biso   1.000  H
  H24      1.0000 0.34050  0.54700  0.97630  Biso   1.000  H
  C25      1.0000 0.92290  0.91460  0.42870  Biso   1.000  C
  C26      1.0000 0.42290  0.41460  0.42870  Biso   1.000  C
  C27      1.0000 0.07710  0.91460  0.07130  Biso   1.000  C
  C28      1.0000 0.57710  0.41460  0.07130  Biso   1.000  C
  C29      1.0000 0.07710  0.08540  0.57130  Biso   1.000  C
  C30      1.0000 0.57710  0.58540  0.57130  Biso   1.000  C
  C31      1.0000 0.92290  0.08540  0.92870  Biso   1.000  C
  C32      1.0000 0.42290  0.58540  0.92870  Biso   1.000  C
  H25      1.0000 0.93500  0.99700  0.41940  Biso   1.000  H
  H26      1.0000 0.43500  0.49700  0.41940  Biso   1.000  H
  H27      1.0000 0.06500  0.99700  0.08060  Biso   1.000  H
  H28      1.0000 0.56500  0.49700  0.08060  Biso   1.000  H
  H29      1.0000 0.06500  0.00300  0.58060  Biso   1.000  H
  H30      1.0000 0.56500  0.50300  0.58060  Biso   1.000  H
  H31      1.0000 0.93500  0.00300  0.91940  Biso   1.000  H
  H32      1.0000 0.43500  0.50300  0.91940  Biso   1.000  H
  C33      1.0000 0.96076  0.81680  0.40870  Biso   1.000  C
  C34      1.0000 0.46076  0.31680  0.40870  Biso   1.000  C
  C35      1.0000 0.03924  0.81680  0.09130  Biso   1.000  C
  C36      1.0000 0.53924  0.31680  0.09130  Biso   1.000  C
  C37      1.0000 0.03924  0.18320  0.59130  Biso   1.000  C
  C38      1.0000 0.53924  0.68320  0.59130  Biso   1.000  C
  C39      1.0000 0.96076  0.18320  0.90870  Biso   1.000  C
  C40      1.0000 0.46076  0.68320  0.90870  Biso   1.000  C
  C41      1.0000 0.02170  0.83140  0.37040  Biso   1.000  C
  C42      1.0000 0.52170  0.33140  0.37040  Biso   1.000  C
  C43      1.0000 0.97830  0.83140  0.12960  Biso   1.000  C
  C44      1.0000 0.47830  0.33140  0.12960  Biso   1.000  C
  C45      1.0000 0.97830  0.16860  0.62960  Biso   1.000  C
  C46      1.0000 0.47830  0.66860  0.62960  Biso   1.000  C
  C47      1.0000 0.02170  0.16860  0.87040  Biso   1.000  C
  C48      1.0000 0.52170  0.66860  0.87040  Biso   1.000  C
  C49      1.0000 0.04890  0.94590  0.35270  Biso   1.000  C
  C50      1.0000 0.54890  0.44590  0.35270  Biso   1.000  C
  C51      1.0000 0.95110  0.94590  0.14730  Biso   1.000  C
  C52      1.0000 0.45110  0.44590  0.14730  Biso   1.000  C
  C53      1.0000 0.95110  0.05410  0.64730  Biso   1.000  C
  C54      1.0000 0.45110  0.55410  0.64730  Biso   1.000  C
  C55      1.0000 0.04890  0.05410  0.85270  Biso   1.000  C
  C56      1.0000 0.54890  0.55410  0.85270  Biso   1.000  C
  H33      1.0000 0.02820  0.02020  0.36380  Biso   1.000  H
  H34      1.0000 0.52820  0.52020  0.36380  Biso   1.000  H
  H35      1.0000 0.97180  0.02020  0.13620  Biso   1.000  H
  H36      1.0000 0.47180  0.52020  0.13620  Biso   1.000  H
  H37      1.0000 0.97180  0.97980  0.63620  Biso   1.000  H
  H38      1.0000 0.47180  0.47980  0.63620  Biso   1.000  H
  H39      1.0000 0.02820  0.97980  0.86380  Biso   1.000  H
  H40      1.0000 0.52820  0.47980  0.86380  Biso   1.000  H
  C57      1.0000 0.10580  0.94880  0.31890  Biso   1.000  C
  C58      1.0000 0.60580  0.44880  0.31890  Biso   1.000  C
  C59      1.0000 0.89420  0.94880  0.18110  Biso   1.000  C
  C60      1.0000 0.39420  0.44880  0.18110  Biso   1.000  C
  C61      1.0000 0.89420  0.05120  0.68110  Biso   1.000  C
  C62      1.0000 0.39420  0.55120  0.68110  Biso   1.000  C
  C63      1.0000 0.10580  0.05120  0.81890  Biso   1.000  C
  C64      1.0000 0.60580  0.55120  0.81890  Biso   1.000  C
  H41      1.0000 0.12430  0.02530  0.30680  Biso   1.000  H
  H42      1.0000 0.62430  0.52530  0.30680  Biso   1.000  H
  H43      1.0000 0.87570  0.02530  0.19320  Biso   1.000  H
  H44      1.0000 0.37570  0.52530  0.19320  Biso   1.000  H
  H45      1.0000 0.87570  0.97470  0.69320  Biso   1.000  H
  H46      1.0000 0.37570  0.47470  0.69320  Biso   1.000  H
  H47      1.0000 0.12430  0.97470  0.80680  Biso   1.000  H
  H48      1.0000 0.62430  0.47470  0.80680  Biso   1.000  H
  C65      1.0000 0.13630  0.83810  0.30250  Biso   1.000  C
  C66      1.0000 0.63630  0.33810  0.30250  Biso   1.000  C
  C67      1.0000 0.86370  0.83810  0.19750  Biso   1.000  C
  C68      1.0000 0.36370  0.33810  0.19750  Biso   1.000  C
  C69      1.0000 0.86370  0.16190  0.69750  Biso   1.000  C
  C70      1.0000 0.36370  0.66190  0.69750  Biso   1.000  C
  C71      1.0000 0.13630  0.16190  0.80250  Biso   1.000  C
  C72      1.0000 0.63630  0.66190  0.80250  Biso   1.000  C
  H49      1.0000 0.17570  0.83800  0.28130  Biso   1.000  H
  H50      1.0000 0.67570  0.33800  0.28130  Biso   1.000  H
  H51      1.0000 0.82430  0.83800  0.21870  Biso   1.000  H
  H52      1.0000 0.32430  0.33800  0.21870  Biso   1.000  H
  H53      1.0000 0.82430  0.16200  0.71870  Biso   1.000  H
  H54      1.0000 0.32430  0.66200  0.71870  Biso   1.000  H
  H55      1.0000 0.17570  0.16200  0.78130  Biso   1.000  H
  H56      1.0000 0.67570  0.66200  0.78130  Biso   1.000  H
  C73      1.0000 0.10569  0.72760  0.31880  Biso   1.000  C
  C74      1.0000 0.60569  0.22760  0.31880  Biso   1.000  C
  C75      1.0000 0.89431  0.72760  0.18120  Biso   1.000  C
  C76      1.0000 0.39431  0.22760  0.18120  Biso   1.000  C
  C77      1.0000 0.89431  0.27240  0.68120  Biso   1.000  C
  C78      1.0000 0.39431  0.77240  0.68120  Biso   1.000  C
  C79      1.0000 0.10569  0.27240  0.81880  Biso   1.000  C
  C80      1.0000 0.60569  0.77240  0.81880  Biso   1.000  C
  H57      1.0000 0.12490  0.65230  0.30550  Biso   1.000  H
  H58      1.0000 0.62490  0.15230  0.30550  Biso   1.000  H
  H59      1.0000 0.87510  0.65230  0.19450  Biso   1.000  H
  H60      1.0000 0.37510  0.15230  0.19450  Biso   1.000  H
  H61      1.0000 0.87510  0.34770  0.69450  Biso   1.000  H
  H62      1.0000 0.37510  0.84770  0.69450  Biso   1.000  H
  H63      1.0000 0.12490  0.34770  0.80550  Biso   1.000  H
  H64      1.0000 0.62490  0.84770  0.80550  Biso   1.000  H
  C81      1.0000 0.97096  0.32700  0.37900  Biso   1.000  C
  C82      1.0000 0.47096  0.82700  0.37900  Biso   1.000  C
  C83      1.0000 0.02904  0.32700  0.12100  Biso   1.000  C
  C84      1.0000 0.52904  0.82700  0.12100  Biso   1.000  C
  C85      1.0000 0.02904  0.67300  0.62100  Biso   1.000  C
  C86      1.0000 0.52904  0.17300  0.62100  Biso   1.000  C
  C87      1.0000 0.97096  0.67300  0.87900  Biso   1.000  C
  C88      1.0000 0.47096  0.17300  0.87900  Biso   1.000  C
  C89      1.0000 0.01730  0.34290  0.30110  Biso   1.000  C
  C90      1.0000 0.51730  0.84290  0.30110  Biso   1.000  C
  C91      1.0000 0.98270  0.34290  0.19890  Biso   1.000  C
  C92      1.0000 0.48270  0.84290  0.19890  Biso   1.000  C
  C93      1.0000 0.98270  0.65710  0.69890  Biso   1.000  C
  C94      1.0000 0.48270  0.15710  0.69890  Biso   1.000  C
  C95      1.0000 0.01730  0.65710  0.80110  Biso   1.000  C
  C96      1.0000 0.51730  0.15710  0.80110  Biso   1.000  C
  H65      1.0000 0.04560  0.27170  0.30510  Biso   1.000  H
  H66      1.0000 0.54560  0.77170  0.30510  Biso   1.000  H
  H67      1.0000 0.95440  0.27170  0.19490  Biso   1.000  H
  H68      1.0000 0.45440  0.77170  0.19490  Biso   1.000  H
  H69      1.0000 0.95440  0.72830  0.69490  Biso   1.000  H
  H70      1.0000 0.45440  0.22830  0.69490  Biso   1.000  H
  H71      1.0000 0.04560  0.72830  0.80510  Biso   1.000  H
  H72      1.0000 0.54560  0.22830  0.80510  Biso   1.000  H
  O25      1.0000 0.22586  0.57070  0.48090  Biso   1.000  O
  O26      1.0000 0.72586  0.07070  0.48090  Biso   1.000  O
  O27      1.0000 0.77414  0.57070  0.01910  Biso   1.000  O
  O28      1.0000 0.27414  0.07070  0.01910  Biso   1.000  O
  O29      1.0000 0.77414  0.42930  0.51910  Biso   1.000  O
  O30      1.0000 0.27414  0.92930  0.51910  Biso   1.000  O
  O31      1.0000 0.22586  0.42930  0.98090  Biso   1.000  O
  O32      1.0000 0.72586  0.92930  0.98090  Biso   1.000  O
  H73      1.0000 0.26240  0.61950  0.47330  Biso   1.000  H
  H74      1.0000 0.76240  0.11950  0.47330  Biso   1.000  H
  H75      1.0000 0.73760  0.61950  0.02670  Biso   1.000  H
  H76      1.0000 0.23760  0.11950  0.02670  Biso   1.000  H
  H77      1.0000 0.73760  0.38050  0.52670  Biso   1.000  H
  H78      1.0000 0.23760  0.88050  0.52670  Biso   1.000  H
  H79      1.0000 0.26240  0.38050  0.97330  Biso   1.000  H
  H80      1.0000 0.76240  0.88050  0.97330  Biso   1.000  H
  H81      1.0000 0.21220  0.56010  0.42100  Biso   1.000  H
  H82      1.0000 0.71220  0.06010  0.42100  Biso   1.000  H
  H83      1.0000 0.78780  0.56010  0.07900  Biso   1.000  H
  H84      1.0000 0.28780  0.06010  0.07900  Biso   1.000  H
  H85      1.0000 0.78780  0.43990  0.57900  Biso   1.000  H
  H86      1.0000 0.28780  0.93990  0.57900  Biso   1.000  H
  H87      1.0000 0.21220  0.43990  0.92100  Biso   1.000  H
  H88      1.0000 0.71220  0.93990  0.92100  Biso   1.000  H
  O33      1.0000 0.16976  0.43340  0.32604  Biso   1.000  O
  O34      1.0000 0.66976  0.93340  0.32604  Biso   1.000  O
  O35      1.0000 0.83024  0.43340  0.17396  Biso   1.000  O
  O36      1.0000 0.33024  0.93340  0.17396  Biso   1.000  O
  O37      1.0000 0.83024  0.56660  0.67396  Biso   1.000  O
  O38      1.0000 0.33024  0.06660  0.67396  Biso   1.000  O
  O39      1.0000 0.16976  0.56660  0.82604  Biso   1.000  O
  O40      1.0000 0.66976  0.06660  0.82604  Biso   1.000  O
  H89      1.0000 0.18610  0.45730  0.38290  Biso   1.000  H
  H90      1.0000 0.68610  0.95730  0.38290  Biso   1.000  H
  H91      1.0000 0.81390  0.45730  0.11710  Biso   1.000  H
  H92      1.0000 0.31390  0.95730  0.11710  Biso   1.000  H
  H93      1.0000 0.81390  0.54270  0.61710  Biso   1.000  H
  H94      1.0000 0.31390  0.04270  0.61710  Biso   1.000  H
  H95      1.0000 0.18610  0.54270  0.88290  Biso   1.000  H
  H96      1.0000 0.68610  0.04270  0.88290  Biso   1.000  H
  H97      1.0000 0.18320  0.33730  0.32230  Biso   1.000  H
  H98      1.0000 0.68320  0.83730  0.32230  Biso   1.000  H
  H99      1.0000 0.81680  0.33730  0.17770  Biso   1.000  H
  H100     1.0000 0.31680  0.83730  0.17770  Biso   1.000  H
  H101     1.0000 0.81680  0.66270  0.67770  Biso   1.000  H
  H102     1.0000 0.31680  0.16270  0.67770  Biso   1.000  H
  H103     1.0000 0.18320  0.66270  0.82230  Biso   1.000  H
  H104     1.0000 0.68320  0.16270  0.82230  Biso   1.000  H
  O41      1.0000 0.17000  0.78600  0.55980  Biso   1.000  O
  O42      1.0000 0.67000  0.28600  0.55980  Biso   1.000  O
  O43      1.0000 0.83000  0.78600  0.94020  Biso   1.000  O
  O44      1.0000 0.33000  0.28600  0.94020  Biso   1.000  O
  O45      1.0000 0.83000  0.21400  0.44020  Biso   1.000  O
  O46      1.0000 0.33000  0.71400  0.44020  Biso   1.000  O
  O47      1.0000 0.17000  0.21400  0.05980  Biso   1.000  O
  O48      1.0000 0.67000  0.71400  0.05980  Biso   1.000  O
  H105     1.0000 0.12750  0.77520  0.56340  Biso   1.000  H
  H106     1.0000 0.62750  0.27520  0.56340  Biso   1.000  H
  H107     1.0000 0.87250  0.77520  0.93660  Biso   1.000  H
  H108     1.0000 0.37250  0.27520  0.93660  Biso   1.000  H
  H109     1.0000 0.87250  0.22480  0.43660  Biso   1.000  H
  H110     1.0000 0.37250  0.72480  0.43660  Biso   1.000  H
  H111     1.0000 0.12750  0.22480  0.06340  Biso   1.000  H
  H112     1.0000 0.62750  0.72480  0.06340  Biso   1.000  H
  H113     1.0000 0.18040  0.71080  0.54570  Biso   1.000  H
  H114     1.0000 0.68040  0.21080  0.54570  Biso   1.000  H
  H115     1.0000 0.81960  0.71080  0.95430  Biso   1.000  H
  H116     1.0000 0.31960  0.21080  0.95430  Biso   1.000  H
  H117     1.0000 0.81960  0.28920  0.45430  Biso   1.000  H
  H118     1.0000 0.31960  0.78920  0.45430  Biso   1.000  H
  H119     1.0000 0.18040  0.28920  0.04570  Biso   1.000  H
  H120     1.0000 0.68040  0.78920  0.04570  Biso   1.000  H
  O49      1.0000 0.77308  0.52300  0.33240  Biso   1.000  O
  O50      1.0000 0.27308  0.02300  0.33240  Biso   1.000  O
  O51      1.0000 0.22692  0.52300  0.16760  Biso   1.000  O
  O52      1.0000 0.72692  0.02300  0.16760  Biso   1.000  O
  O53      1.0000 0.22692  0.47700  0.66760  Biso   1.000  O
  O54      1.0000 0.72692  0.97700  0.66760  Biso   1.000  O
  O55      1.0000 0.77308  0.47700  0.83240  Biso   1.000  O
  O56      1.0000 0.27308  0.97700  0.83240  Biso   1.000  O
  H121     1.0000 0.75380  0.59430  0.30810  Biso   1.000  H
  H122     1.0000 0.25380  0.09430  0.30810  Biso   1.000  H
  H123     1.0000 0.24620  0.59430  0.19190  Biso   1.000  H
  H124     1.0000 0.74620  0.09430  0.19190  Biso   1.000  H
  H125     1.0000 0.24620  0.40570  0.69190  Biso   1.000  H
  H126     1.0000 0.74620  0.90570  0.69190  Biso   1.000  H
  H127     1.0000 0.75380  0.40570  0.80810  Biso   1.000  H
  H128     1.0000 0.25380  0.90570  0.80810  Biso   1.000  H
  H129     1.0000 0.77950  0.49870  0.40140  Biso   1.000  H
  H130     1.0000 0.27950  0.99870  0.40140  Biso   1.000  H
  H131     1.0000 0.22050  0.49870  0.09860  Biso   1.000  H
  H132     1.0000 0.72050  0.99870  0.09860  Biso   1.000  H
  H133     1.0000 0.22050  0.50130  0.59860  Biso   1.000  H
  H134     1.0000 0.72050  0.00130  0.59860  Biso   1.000  H
  H135     1.0000 0.77950  0.50130  0.90140  Biso   1.000  H
  H136     1.0000 0.27950  0.00130  0.90140  Biso   1.000  H
  O57      1.0000 0.20074  0.20550  0.26360  Biso   1.000  O
  O58      1.0000 0.70074  0.70550  0.26360  Biso   1.000  O
  O59      1.0000 0.79926  0.20550  0.23640  Biso   1.000  O
  O60      1.0000 0.29926  0.70550  0.23640  Biso   1.000  O
  O61      1.0000 0.79926  0.79450  0.73640  Biso   1.000  O
  O62      1.0000 0.29926  0.29450  0.73640  Biso   1.000  O
  O63      1.0000 0.20074  0.79450  0.76360  Biso   1.000  O
  O64      1.0000 0.70074  0.29450  0.76360  Biso   1.000  O
  H137     1.0000 0.23240  0.26200  0.25580  Biso   1.000  H
  H138     1.0000 0.73240  0.76200  0.25580  Biso   1.000  H
  H139     1.0000 0.76760  0.26200  0.24420  Biso   1.000  H
  H140     1.0000 0.26760  0.76200  0.24420  Biso   1.000  H
  H141     1.0000 0.76760  0.73800  0.74420  Biso   1.000  H
  H142     1.0000 0.26760  0.23800  0.74420  Biso   1.000  H
  H143     1.0000 0.23240  0.73800  0.75580  Biso   1.000  H
  H144     1.0000 0.73240  0.23800  0.75580  Biso   1.000  H
  H145     1.0000 0.11860  0.45770  0.33130  Biso   1.000  H
  H146     1.0000 0.61860  0.95770  0.33130  Biso   1.000  H
  H147     1.0000 0.88140  0.45770  0.16870  Biso   1.000  H
  H148     1.0000 0.38140  0.95770  0.16870  Biso   1.000  H
  H149     1.0000 0.88140  0.54230  0.66870  Biso   1.000  H
  H150     1.0000 0.38140  0.04230  0.66870  Biso   1.000  H
  H151     1.0000 0.11860  0.54230  0.83130  Biso   1.000  H
  H152     1.0000 0.61860  0.04230  0.83130  Biso   1.000  H
  H153     1.0000 0.20090  0.14640  0.17680  Biso   1.000  H
  H154     1.0000 0.70090  0.64640  0.17680  Biso   1.000  H
  H155     1.0000 0.79910  0.14640  0.32320  Biso   1.000  H
  H156     1.0000 0.29910  0.64640  0.32320  Biso   1.000  H
  H157     1.0000 0.79910  0.85360  0.82320  Biso   1.000  H
  H158     1.0000 0.29910  0.35360  0.82320  Biso   1.000  H
  H159     1.0000 0.20090  0.85360  0.67680  Biso   1.000  H
  H160     1.0000 0.70090  0.35360  0.67680  Biso   1.000  H
