data_image0
_cell_length_a       9.7253
_cell_length_b       9.7253
_cell_length_c       6.6458
_cell_angle_alpha    90
_cell_angle_beta     90
_cell_angle_gamma    90

_symmetry_space_group_name_H-M    "P 1"
_symmetry_int_tables_number       1

loop_
  _symmetry_equiv_pos_as_xyz
  'x, y, z'

loop_
  _atom_site_label
  _atom_site_occupancy
  _atom_site_fract_x
  _atom_site_fract_y
  _atom_site_fract_z
  _atom_site_thermal_displace_type
  _atom_site_B_iso_or_equiv
  _atom_site_type_symbol
  Cu1      1.0000 0.25000  0.25000  0.50000  Biso   1.000  Cu
  Cu2      1.0000 0.75000  0.75000  0.50000  Biso   1.000  Cu
  N1       1.0000 0.10100  0.10100  0.50000  Biso   1.000  N
  N2       1.0000 0.39900  0.10100  0.50000  Biso   1.000  N
  N3       1.0000 0.10100  0.39900  0.50000  Biso   1.000  N
  N4       1.0000 0.39900  0.39900  0.50000  Biso   1.000  N
  N5       1.0000 0.89900  0.89900  0.50000  Biso   1.000  N
  N6       1.0000 0.60100  0.89900  0.50000  Biso   1.000  N
  N7       1.0000 0.89900  0.60100  0.50000  Biso   1.000  N
  N8       1.0000 0.60100  0.60100  0.50000  Biso   1.000  N
  C1       1.0000 0.00840  0.09200  0.64840  Biso   1.000  C
  C2       1.0000 0.40800  0.00840  0.64840  Biso   1.000  C
  C3       1.0000 0.09200  0.49160  0.64840  Biso   1.000  C
  C4       1.0000 0.09200  0.00840  0.35160  Biso   1.000  C
  C5       1.0000 0.49160  0.40800  0.64840  Biso   1.000  C
  C6       1.0000 0.49160  0.09200  0.35160  Biso   1.000  C
  C7       1.0000 0.00840  0.40800  0.35160  Biso   1.000  C
  C8       1.0000 0.40800  0.49160  0.35160  Biso   1.000  C
  C9       1.0000 0.99160  0.90800  0.35160  Biso   1.000  C
  C10      1.0000 0.59200  0.99160  0.35160  Biso   1.000  C
  C11      1.0000 0.90800  0.50840  0.35160  Biso   1.000  C
  C12      1.0000 0.90800  0.99160  0.64840  Biso   1.000  C
  C13      1.0000 0.50840  0.59200  0.35160  Biso   1.000  C
  C14      1.0000 0.50840  0.90800  0.64840  Biso   1.000  C
  C15      1.0000 0.99160  0.59200  0.64840  Biso   1.000  C
  C16      1.0000 0.59200  0.50840  0.64840  Biso   1.000  C
  H1       1.0000 0.01170  0.15480  0.75380  Biso   1.000  H
  H2       1.0000 0.34520  0.01170  0.75380  Biso   1.000  H
  H3       1.0000 0.15480  0.48830  0.75380  Biso   1.000  H
  H4       1.0000 0.15480  0.01170  0.24620  Biso   1.000  H
  H5       1.0000 0.48830  0.34520  0.75380  Biso   1.000  H
  H6       1.0000 0.48830  0.15480  0.24620  Biso   1.000  H
  H7       1.0000 0.01170  0.34520  0.24620  Biso   1.000  H
  H8       1.0000 0.34520  0.48830  0.24620  Biso   1.000  H
  H9       1.0000 0.98830  0.84520  0.24620  Biso   1.000  H
  H10      1.0000 0.65480  0.98830  0.24620  Biso   1.000  H
  H11      1.0000 0.84520  0.51170  0.24620  Biso   1.000  H
  H12      1.0000 0.84520  0.98830  0.75380  Biso   1.000  H
  H13      1.0000 0.51170  0.65480  0.24620  Biso   1.000  H
  H14      1.0000 0.51170  0.84520  0.75380  Biso   1.000  H
  H15      1.0000 0.98830  0.65480  0.75380  Biso   1.000  H
  H16      1.0000 0.65480  0.51170  0.75380  Biso   1.000  H
  O1       1.0000 0.25000  0.25000  0.15620  Biso   1.000  O
  O2       1.0000 0.25000  0.25000  0.84380  Biso   1.000  O
  O3       1.0000 0.75000  0.75000  0.84380  Biso   1.000  O
  O4       1.0000 0.75000  0.75000  0.15620  Biso   1.000  O
  N9       1.0000 0.25000  0.25000  0.00000  Biso   1.000  N
  N10      1.0000 0.75000  0.75000  0.00000  Biso   1.000  N
  Cl1      1.0000 0.75000  0.25000  0.00000  Biso   1.000  Cl
  Cl2      1.0000 0.25000  0.75000  0.00000  Biso   1.000  Cl
  O5       1.0000 0.83710  0.33710  0.88690  Biso   1.000  O
  O6       1.0000 0.16290  0.83710  0.88690  Biso   1.000  O
  O7       1.0000 0.33710  0.66290  0.88690  Biso   1.000  O
  O8       1.0000 0.33710  0.83710  0.11310  Biso   1.000  O
  O9       1.0000 0.66290  0.16290  0.88690  Biso   1.000  O
  O10      1.0000 0.66290  0.33710  0.11310  Biso   1.000  O
  O11      1.0000 0.83710  0.16290  0.11310  Biso   1.000  O
  O12      1.0000 0.16290  0.66290  0.11310  Biso   1.000  O
