data_image0
_cell_length_a       6.7875
_cell_length_b       10.5615
_cell_length_c       14.2118
_cell_angle_alpha    90
_cell_angle_beta     97.567
_cell_angle_gamma    90

_symmetry_space_group_name_H-M    "P 1"
_symmetry_int_tables_number       1

loop_
  _symmetry_equiv_pos_as_xyz
  'x, y, z'

loop_
  _atom_site_label
  _atom_site_occupancy
  _atom_site_fract_x
  _atom_site_fract_y
  _atom_site_fract_z
  _atom_site_thermal_displace_type
  _atom_site_B_iso_or_equiv
  _atom_site_type_symbol
  Cu1      1.0000 0.50000  0.50000  0.50000  Biso   1.000  Cu
  Cu2      1.0000 0.50000  0.00000  0.00000  Biso   1.000  Cu
  Cu3      1.0000 0.00000  0.50000  0.50000  Biso   1.000  Cu
  Cu4      1.0000 0.00000  0.00000  0.00000  Biso   1.000  Cu
  S1       1.0000 0.22612  0.04733  0.40877  Biso   1.000  S
  S2       1.0000 0.77388  0.54733  0.09123  Biso   1.000  S
  S3       1.0000 0.77388  0.95267  0.59123  Biso   1.000  S
  S4       1.0000 0.22612  0.45267  0.90877  Biso   1.000  S
  O1       1.0000 0.74750  0.58977  0.49363  Biso   1.000  O
  O2       1.0000 0.25250  0.08977  0.00637  Biso   1.000  O
  O3       1.0000 0.25250  0.41023  0.50637  Biso   1.000  O
  O4       1.0000 0.74750  0.91023  0.99363  Biso   1.000  O
  H1       1.0000 0.74560  0.67840  0.48730  Biso   1.000  H
  H2       1.0000 0.25440  0.17840  0.01270  Biso   1.000  H
  H3       1.0000 0.25440  0.32160  0.51270  Biso   1.000  H
  H4       1.0000 0.74560  0.82160  0.98730  Biso   1.000  H
  O5       1.0000 0.31740  0.14740  0.47107  Biso   1.000  O
  O6       1.0000 0.68260  0.64740  0.02893  Biso   1.000  O
  O7       1.0000 0.68260  0.85260  0.52893  Biso   1.000  O
  O8       1.0000 0.31740  0.35260  0.97107  Biso   1.000  O
  O9       1.0000 0.01280  0.06560  0.38810  Biso   1.000  O
  O10      1.0000 0.98720  0.56560  0.11190  Biso   1.000  O
  O11      1.0000 0.98720  0.93440  0.61190  Biso   1.000  O
  O12      1.0000 0.01280  0.43440  0.88810  Biso   1.000  O
  O13      1.0000 0.32460  0.03560  0.32372  Biso   1.000  O
  O14      1.0000 0.67540  0.53560  0.17628  Biso   1.000  O
  O15      1.0000 0.67540  0.96440  0.67628  Biso   1.000  O
  O16      1.0000 0.32460  0.46440  0.82372  Biso   1.000  O
  O17      1.0000 0.70300  0.91490  0.30430  Biso   1.000  O
  O18      1.0000 0.29700  0.41490  0.19570  Biso   1.000  O
  O19      1.0000 0.29700  0.08510  0.69570  Biso   1.000  O
  O20      1.0000 0.70300  0.58510  0.80430  Biso   1.000  O
  H5       1.0000 0.80860  0.94570  0.32890  Biso   1.000  H
  H6       1.0000 0.19140  0.44570  0.17110  Biso   1.000  H
  H7       1.0000 0.19140  0.05430  0.67110  Biso   1.000  H
  H8       1.0000 0.80860  0.55430  0.82890  Biso   1.000  H
  H9       1.0000 0.61380  0.95600  0.31430  Biso   1.000  H
  H10      1.0000 0.38620  0.45600  0.18570  Biso   1.000  H
  H11      1.0000 0.38620  0.04400  0.68570  Biso   1.000  H
  H12      1.0000 0.61380  0.54400  0.81430  Biso   1.000  H
  N1       1.0000 0.66990  0.35930  0.39243  Biso   1.000  N
  N2       1.0000 0.33010  0.85930  0.10757  Biso   1.000  N
  N3       1.0000 0.33010  0.64070  0.60757  Biso   1.000  N
  N4       1.0000 0.66990  0.14070  0.89243  Biso   1.000  N
  N5       1.0000 0.86600  0.38660  0.38737  Biso   1.000  N
  N6       1.0000 0.13400  0.88660  0.11263  Biso   1.000  N
  N7       1.0000 0.13400  0.61340  0.61263  Biso   1.000  N
  N8       1.0000 0.86600  0.11340  0.88737  Biso   1.000  N
  N9       1.0000 0.64980  0.10840  0.11073  Biso   1.000  N
  N10      1.0000 0.35020  0.60840  0.38927  Biso   1.000  N
  N11      1.0000 0.35020  0.89160  0.88927  Biso   1.000  N
  N12      1.0000 0.64980  0.39160  0.61073  Biso   1.000  N
  N13      1.0000 0.84910  0.12910  0.10904  Biso   1.000  N
  N14      1.0000 0.15090  0.62910  0.39096  Biso   1.000  N
  N15      1.0000 0.15090  0.87090  0.89096  Biso   1.000  N
  N16      1.0000 0.84910  0.37090  0.60904  Biso   1.000  N
  N17      1.0000 0.25430  0.90960  0.46060  Biso   1.000  N
  N18      1.0000 0.74570  0.40960  0.03940  Biso   1.000  N
  N19      1.0000 0.74570  0.09040  0.53940  Biso   1.000  N
  N20      1.0000 0.25430  0.59040  0.96060  Biso   1.000  N
  H13      1.0000 0.36730  0.89150  0.48880  Biso   1.000  H
  H14      1.0000 0.63270  0.39150  0.01120  Biso   1.000  H
  H15      1.0000 0.63270  0.10850  0.51120  Biso   1.000  H
  H16      1.0000 0.36730  0.60850  0.98880  Biso   1.000  H
  H17      1.0000 0.18020  0.90270  0.50070  Biso   1.000  H
  H18      1.0000 0.81980  0.40270  0.99930  Biso   1.000  H
  H19      1.0000 0.81980  0.09730  0.49930  Biso   1.000  H
  H20      1.0000 0.18020  0.59730  0.00070  Biso   1.000  H
  C1       1.0000 0.57120  0.28650  0.32750  Biso   1.000  C
  C2       1.0000 0.42880  0.78650  0.17250  Biso   1.000  C
  C3       1.0000 0.42880  0.71350  0.67250  Biso   1.000  C
  C4       1.0000 0.57120  0.21350  0.82750  Biso   1.000  C
  H21      1.0000 0.43700  0.26850  0.33170  Biso   1.000  H
  H22      1.0000 0.56300  0.76850  0.16830  Biso   1.000  H
  H23      1.0000 0.56300  0.73150  0.66830  Biso   1.000  H
  H24      1.0000 0.43700  0.23150  0.83170  Biso   1.000  H
  C5       1.0000 0.66030  0.23410  0.25120  Biso   1.000  C
  C6       1.0000 0.33970  0.73410  0.24880  Biso   1.000  C
  C7       1.0000 0.33970  0.76590  0.74880  Biso   1.000  C
  C8       1.0000 0.66030  0.26590  0.75120  Biso   1.000  C
  C9       1.0000 0.55810  0.15750  0.17780  Biso   1.000  C
  C10      1.0000 0.44190  0.65750  0.32220  Biso   1.000  C
  C11      1.0000 0.44190  0.84250  0.82220  Biso   1.000  C
  C12      1.0000 0.55810  0.34250  0.67780  Biso   1.000  C
  H25      1.0000 0.42180  0.14170  0.17760  Biso   1.000  H
  H26      1.0000 0.57820  0.64170  0.32240  Biso   1.000  H
  H27      1.0000 0.57820  0.85830  0.82240  Biso   1.000  H
  H28      1.0000 0.42180  0.35830  0.67760  Biso   1.000  H
  C13      1.0000 0.95800  0.34100  0.31930  Biso   1.000  C
  C14      1.0000 0.04200  0.84100  0.18070  Biso   1.000  C
  C15      1.0000 0.04200  0.65900  0.68070  Biso   1.000  C
  C16      1.0000 0.95800  0.15900  0.81930  Biso   1.000  C
  H29      1.0000 0.09250  0.36120  0.31790  Biso   1.000  H
  H30      1.0000 0.90750  0.86120  0.18210  Biso   1.000  H
  H31      1.0000 0.90750  0.63880  0.68210  Biso   1.000  H
  H32      1.0000 0.09250  0.13880  0.81790  Biso   1.000  H
  C17      1.0000 0.85800  0.26120  0.24700  Biso   1.000  C
  C18      1.0000 0.14200  0.76120  0.25300  Biso   1.000  C
  C19      1.0000 0.14200  0.73880  0.75300  Biso   1.000  C
  C20      1.0000 0.85800  0.23880  0.74700  Biso   1.000  C
  C21      1.0000 0.94900  0.20340  0.17230  Biso   1.000  C
  C22      1.0000 0.05100  0.70340  0.32770  Biso   1.000  C
  C23      1.0000 0.05100  0.79660  0.82770  Biso   1.000  C
  C24      1.0000 0.94900  0.29660  0.67230  Biso   1.000  C
  H33      1.0000 0.08400  0.21930  0.16840  Biso   1.000  H
  H34      1.0000 0.91600  0.71930  0.33160  Biso   1.000  H
  H35      1.0000 0.91600  0.78070  0.83160  Biso   1.000  H
  H36      1.0000 0.08400  0.28070  0.66840  Biso   1.000  H
