data_image0
_cell_length_a       13.1173
_cell_length_b       13.2215
_cell_length_c       12.0518
_cell_angle_alpha    90
_cell_angle_beta     113.404
_cell_angle_gamma    90

_symmetry_space_group_name_H-M    "P 1"
_symmetry_int_tables_number       1

loop_
  _symmetry_equiv_pos_as_xyz
  'x, y, z'

loop_
  _atom_site_label
  _atom_site_occupancy
  _atom_site_fract_x
  _atom_site_fract_y
  _atom_site_fract_z
  _atom_site_thermal_displace_type
  _atom_site_B_iso_or_equiv
  _atom_site_type_symbol
  Cu1      1.0000 0.65691  0.74967  0.17469  Biso   1.000  Cu
  Cu2      1.0000 0.65691  0.25033  0.67469  Biso   1.000  Cu
  Cu3      1.0000 0.15691  0.24967  0.17469  Biso   1.000  Cu
  Cu4      1.0000 0.15691  0.75033  0.67469  Biso   1.000  Cu
  O1       1.0000 0.46570  0.73730  0.12010  Biso   1.000  O
  O2       1.0000 0.46570  0.26270  0.62010  Biso   1.000  O
  O3       1.0000 0.96570  0.23730  0.12010  Biso   1.000  O
  O4       1.0000 0.96570  0.76270  0.62010  Biso   1.000  O
  H1       1.0000 0.42240  0.70770  0.15030  Biso   1.000  H
  H2       1.0000 0.42240  0.29230  0.65030  Biso   1.000  H
  H3       1.0000 0.92240  0.20770  0.15030  Biso   1.000  H
  H4       1.0000 0.92240  0.79230  0.65030  Biso   1.000  H
  H5       1.0000 0.43050  0.75380  0.04240  Biso   1.000  H
  H6       1.0000 0.43050  0.24620  0.54240  Biso   1.000  H
  H7       1.0000 0.93050  0.25380  0.04240  Biso   1.000  H
  H8       1.0000 0.93050  0.74620  0.54240  Biso   1.000  H
  O5       1.0000 0.85610  0.74470  0.23000  Biso   1.000  O
  O6       1.0000 0.85610  0.25530  0.73000  Biso   1.000  O
  O7       1.0000 0.35610  0.24470  0.23000  Biso   1.000  O
  O8       1.0000 0.35610  0.75530  0.73000  Biso   1.000  O
  H9       1.0000 0.88430  0.75810  0.30310  Biso   1.000  H
  H10      1.0000 0.88430  0.24190  0.80310  Biso   1.000  H
  H11      1.0000 0.38430  0.25810  0.30310  Biso   1.000  H
  H12      1.0000 0.38430  0.74190  0.80310  Biso   1.000  H
  H13      1.0000 0.89850  0.71570  0.20720  Biso   1.000  H
  H14      1.0000 0.89850  0.28430  0.70720  Biso   1.000  H
  H15      1.0000 0.39850  0.21570  0.20720  Biso   1.000  H
  H16      1.0000 0.39850  0.78430  0.70720  Biso   1.000  H
  O9       1.0000 0.47170  0.90340  0.64010  Biso   1.000  O
  O10      1.0000 0.47170  0.09660  0.14010  Biso   1.000  O
  O11      1.0000 0.97170  0.40340  0.64010  Biso   1.000  O
  O12      1.0000 0.97170  0.59660  0.14010  Biso   1.000  O
  O13      1.0000 0.64230  0.92760  0.67100  Biso   1.000  O
  O14      1.0000 0.64230  0.07240  0.17100  Biso   1.000  O
  O15      1.0000 0.14230  0.42760  0.67100  Biso   1.000  O
  O16      1.0000 0.14230  0.57240  0.17100  Biso   1.000  O
  O17      1.0000 0.59720  0.80440  0.75640  Biso   1.000  O
  O18      1.0000 0.59720  0.19560  0.25640  Biso   1.000  O
  O19      1.0000 0.09720  0.30440  0.75640  Biso   1.000  O
  O20      1.0000 0.09720  0.69560  0.25640  Biso   1.000  O
  O21      1.0000 0.41650  0.67950  0.47520  Biso   1.000  O
  O22      1.0000 0.41650  0.32050  0.97520  Biso   1.000  O
  O23      1.0000 0.91650  0.17950  0.47520  Biso   1.000  O
  O24      1.0000 0.91650  0.82050  0.97520  Biso   1.000  O
  O25      1.0000 0.57550  0.71230  0.48390  Biso   1.000  O
  O26      1.0000 0.57550  0.28770  0.98390  Biso   1.000  O
  O27      1.0000 0.07550  0.21230  0.48390  Biso   1.000  O
  O28      1.0000 0.07550  0.78770  0.98390  Biso   1.000  O
  O29      1.0000 0.55490  0.59380  0.59770  Biso   1.000  O
  O30      1.0000 0.55490  0.40620  0.09770  Biso   1.000  O
  O31      1.0000 0.05490  0.09380  0.59770  Biso   1.000  O
  O32      1.0000 0.05490  0.90620  0.09770  Biso   1.000  O
  O33      1.0000 0.35970  0.62340  0.22850  Biso   1.000  O
  O34      1.0000 0.35970  0.37660  0.72850  Biso   1.000  O
  O35      1.0000 0.85970  0.12340  0.22850  Biso   1.000  O
  O36      1.0000 0.85970  0.87660  0.72850  Biso   1.000  O
  O37      1.0000 0.78660  0.59710  0.74880  Biso   1.000  O
  O38      1.0000 0.78660  0.40290  0.24880  Biso   1.000  O
  O39      1.0000 0.28660  0.09710  0.74880  Biso   1.000  O
  O40      1.0000 0.28660  0.90290  0.24880  Biso   1.000  O
  O41      1.0000 0.82750  0.63190  0.80510  Biso   1.000  O
  O42      1.0000 0.82750  0.36810  0.30510  Biso   1.000  O
  O43      1.0000 0.32750  0.13190  0.80510  Biso   1.000  O
  O44      1.0000 0.32750  0.86810  0.30510  Biso   1.000  O
  N1       1.0000 0.67910  0.63850  0.29850  Biso   1.000  N
  N2       1.0000 0.67910  0.36150  0.79850  Biso   1.000  N
  N3       1.0000 0.17910  0.13850  0.29850  Biso   1.000  N
  N4       1.0000 0.17910  0.86150  0.79850  Biso   1.000  N
  N5       1.0000 0.77130  0.64580  0.40620  Biso   1.000  N
  N6       1.0000 0.77130  0.35420  0.90620  Biso   1.000  N
  N7       1.0000 0.27130  0.14580  0.40620  Biso   1.000  N
  N8       1.0000 0.27130  0.85420  0.90620  Biso   1.000  N
  N9       1.0000 0.55320  0.34720  0.44150  Biso   1.000  N
  N10      1.0000 0.55320  0.65280  0.94150  Biso   1.000  N
  N11      1.0000 0.05320  0.84720  0.44150  Biso   1.000  N
  N12      1.0000 0.05320  0.15280  0.94150  Biso   1.000  N
  N13      1.0000 0.64500  0.35580  0.54730  Biso   1.000  N
  N14      1.0000 0.64500  0.64420  0.04730  Biso   1.000  N
  N15      1.0000 0.14500  0.85580  0.54730  Biso   1.000  N
  N16      1.0000 0.14500  0.14420  0.04730  Biso   1.000  N
  N17      1.0000 0.63970  0.86200  0.05370  Biso   1.000  N
  N18      1.0000 0.63970  0.13800  0.55370  Biso   1.000  N
  N19      1.0000 0.13970  0.36200  0.05370  Biso   1.000  N
  N20      1.0000 0.13970  0.63800  0.55370  Biso   1.000  N
  N21      1.0000 0.53410  0.89350  0.99250  Biso   1.000  N
  N22      1.0000 0.53410  0.10650  0.49250  Biso   1.000  N
  N23      1.0000 0.03410  0.39350  0.99250  Biso   1.000  N
  N24      1.0000 0.03410  0.60650  0.49250  Biso   1.000  N
  N25      1.0000 0.77810  0.11260  0.86500  Biso   1.000  N
  N26      1.0000 0.77810  0.88740  0.36500  Biso   1.000  N
  N27      1.0000 0.27810  0.61260  0.86500  Biso   1.000  N
  N28      1.0000 0.27810  0.38740  0.36500  Biso   1.000  N
  N29      1.0000 0.67000  0.14450  0.80080  Biso   1.000  N
  N30      1.0000 0.67000  0.85550  0.30080  Biso   1.000  N
  N31      1.0000 0.17000  0.64450  0.80080  Biso   1.000  N
  N32      1.0000 0.17000  0.35550  0.30080  Biso   1.000  N
  N33      1.0000 0.56930  0.87670  0.68710  Biso   1.000  N
  N34      1.0000 0.56930  0.12330  0.18710  Biso   1.000  N
  N35      1.0000 0.06930  0.37670  0.68710  Biso   1.000  N
  N36      1.0000 0.06930  0.62330  0.18710  Biso   1.000  N
  N37      1.0000 0.52250  0.66040  0.52460  Biso   1.000  N
  N38      1.0000 0.52250  0.33960  0.02460  Biso   1.000  N
  N39      1.0000 0.02250  0.16040  0.52460  Biso   1.000  N
  N40      1.0000 0.02250  0.83960  0.02460  Biso   1.000  N
  C1       1.0000 0.60650  0.56540  0.27800  Biso   1.000  C
  C2       1.0000 0.60650  0.43460  0.77800  Biso   1.000  C
  C3       1.0000 0.10650  0.06540  0.27800  Biso   1.000  C
  C4       1.0000 0.10650  0.93460  0.77800  Biso   1.000  C
  H17      1.0000 0.54590  0.56170  0.20280  Biso   1.000  H
  H18      1.0000 0.54590  0.43830  0.70280  Biso   1.000  H
  H19      1.0000 0.04590  0.06170  0.20280  Biso   1.000  H
  H20      1.0000 0.04590  0.93830  0.70280  Biso   1.000  H
  C5       1.0000 0.61810  0.49160  0.36790  Biso   1.000  C
  C6       1.0000 0.61810  0.50840  0.86790  Biso   1.000  C
  C7       1.0000 0.11810  0.99160  0.36790  Biso   1.000  C
  C8       1.0000 0.11810  0.00840  0.86790  Biso   1.000  C
  C9       1.0000 0.54000  0.41370  0.35560  Biso   1.000  C
  C10      1.0000 0.54000  0.58630  0.85560  Biso   1.000  C
  C11      1.0000 0.04000  0.91370  0.35560  Biso   1.000  C
  C12      1.0000 0.04000  0.08630  0.85560  Biso   1.000  C
  H21      1.0000 0.47620  0.40940  0.28320  Biso   1.000  H
  H22      1.0000 0.47620  0.59060  0.78320  Biso   1.000  H
  H23      1.0000 0.97620  0.90940  0.28320  Biso   1.000  H
  H24      1.0000 0.97620  0.09060  0.78320  Biso   1.000  H
  C13      1.0000 0.78480  0.57840  0.48830  Biso   1.000  C
  C14      1.0000 0.78480  0.42160  0.98830  Biso   1.000  C
  C15      1.0000 0.28480  0.07840  0.48830  Biso   1.000  C
  C16      1.0000 0.28480  0.92160  0.98830  Biso   1.000  C
  H25      1.0000 0.84820  0.58300  0.56100  Biso   1.000  H
  H26      1.0000 0.84820  0.41700  0.06100  Biso   1.000  H
  H27      1.0000 0.34820  0.08300  0.56100  Biso   1.000  H
  H28      1.0000 0.34820  0.91700  0.06100  Biso   1.000  H
  C17      1.0000 0.70950  0.49790  0.47520  Biso   1.000  C
  C18      1.0000 0.70950  0.50210  0.97520  Biso   1.000  C
  C19      1.0000 0.20950  0.99790  0.47520  Biso   1.000  C
  C20      1.0000 0.20950  0.00210  0.97520  Biso   1.000  C
  C21      1.0000 0.71940  0.42460  0.56400  Biso   1.000  C
  C22      1.0000 0.71940  0.57540  0.06400  Biso   1.000  C
  C23      1.0000 0.21940  0.92460  0.56400  Biso   1.000  C
  C24      1.0000 0.21940  0.07540  0.06400  Biso   1.000  C
  H29      1.0000 0.78200  0.42600  0.63760  Biso   1.000  H
  H30      1.0000 0.78200  0.57400  0.13760  Biso   1.000  H
  H31      1.0000 0.28200  0.92600  0.63760  Biso   1.000  H
  H32      1.0000 0.28200  0.07400  0.13760  Biso   1.000  H
  C25      1.0000 0.51620  0.97020  0.91890  Biso   1.000  C
  C26      1.0000 0.51620  0.02980  0.41890  Biso   1.000  C
  C27      1.0000 0.01620  0.47020  0.91890  Biso   1.000  C
  C28      1.0000 0.01620  0.52980  0.41890  Biso   1.000  C
  H33      1.0000 0.44270  0.99190  0.87600  Biso   1.000  H
  H34      1.0000 0.44270  0.00810  0.37600  Biso   1.000  H
  H35      1.0000 0.94270  0.49190  0.87600  Biso   1.000  H
  H36      1.0000 0.94270  0.50810  0.37600  Biso   1.000  H
  C29      1.0000 0.60210  0.02190  0.90090  Biso   1.000  C
  C30      1.0000 0.60210  0.97810  0.40090  Biso   1.000  C
  C31      1.0000 0.10210  0.52190  0.90090  Biso   1.000  C
  C32      1.0000 0.10210  0.47810  0.40090  Biso   1.000  C
  C33      1.0000 0.58680  0.10460  0.81780  Biso   1.000  C
  C34      1.0000 0.58680  0.89540  0.31780  Biso   1.000  C
  C35      1.0000 0.08680  0.60460  0.81780  Biso   1.000  C
  C36      1.0000 0.08680  0.39540  0.31780  Biso   1.000  C
  H37      1.0000 0.51490  0.13030  0.77500  Biso   1.000  H
  H38      1.0000 0.51490  0.86970  0.27500  Biso   1.000  H
  H39      1.0000 0.01490  0.63030  0.77500  Biso   1.000  H
  H40      1.0000 0.01490  0.36970  0.27500  Biso   1.000  H
  C37      1.0000 0.72400  0.90660  0.04240  Biso   1.000  C
  C38      1.0000 0.72400  0.09340  0.54240  Biso   1.000  C
  C39      1.0000 0.22400  0.40660  0.04240  Biso   1.000  C
  C40      1.0000 0.22400  0.59340  0.54240  Biso   1.000  C
  H41      1.0000 0.79630  0.88380  0.08900  Biso   1.000  H
  H42      1.0000 0.79630  0.11620  0.58900  Biso   1.000  H
  H43      1.0000 0.29630  0.38380  0.08900  Biso   1.000  H
  H44      1.0000 0.29630  0.61620  0.58900  Biso   1.000  H
  C41      1.0000 0.70920  0.98760  0.96240  Biso   1.000  C
  C42      1.0000 0.70920  0.01240  0.46240  Biso   1.000  C
  C43      1.0000 0.20920  0.48760  0.96240  Biso   1.000  C
  C44      1.0000 0.20920  0.51240  0.46240  Biso   1.000  C
  C45      1.0000 0.79630  0.03670  0.94080  Biso   1.000  C
  C46      1.0000 0.79630  0.96330  0.44080  Biso   1.000  C
  C47      1.0000 0.29630  0.53670  0.94080  Biso   1.000  C
  C48      1.0000 0.29630  0.46330  0.44080  Biso   1.000  C
  H45      1.0000 0.86960  0.01390  0.98250  Biso   1.000  H
  H46      1.0000 0.86960  0.98610  0.48250  Biso   1.000  H
  H47      1.0000 0.36960  0.51390  0.98250  Biso   1.000  H
  H48      1.0000 0.36960  0.48610  0.48250  Biso   1.000  H
