data_image0
_cell_length_a       7.3893
_cell_length_b       9.0008
_cell_length_c       9.0474
_cell_angle_alpha    92.65
_cell_angle_beta     107.178
_cell_angle_gamma    95.598

_symmetry_space_group_name_H-M    "P 1"
_symmetry_int_tables_number       1

loop_
  _symmetry_equiv_pos_as_xyz
  'x, y, z'

loop_
  _atom_site_label
  _atom_site_occupancy
  _atom_site_fract_x
  _atom_site_fract_y
  _atom_site_fract_z
  _atom_site_thermal_displace_type
  _atom_site_B_iso_or_equiv
  _atom_site_type_symbol
  Cu1      1.0000 0.00000  0.00000  0.00000  Biso   1.000  Cu
  Cl1      1.0000 0.23633  0.44641  0.67791  Biso   1.000  Cl
  Cl2      1.0000 0.76367  0.55359  0.32209  Biso   1.000  Cl
  O1       1.0000 0.32628  0.99573  0.11399  Biso   1.000  O
  O2       1.0000 0.67372  0.00427  0.88601  Biso   1.000  O
  O3       1.0000 0.36750  0.42630  0.82580  Biso   1.000  O
  O4       1.0000 0.63250  0.57370  0.17420  Biso   1.000  O
  O5       1.0000 0.19500  0.59960  0.68110  Biso   1.000  O
  O6       1.0000 0.80500  0.40040  0.31890  Biso   1.000  O
  O7       1.0000 0.06680  0.34630  0.65210  Biso   1.000  O
  O8       1.0000 0.93320  0.65370  0.34790  Biso   1.000  O
  O9       1.0000 0.32050  0.42090  0.55750  Biso   1.000  O
  O10      1.0000 0.67950  0.57910  0.44250  Biso   1.000  O
  O11      1.0000 0.55293  0.23310  0.04150  Biso   1.000  O
  O12      1.0000 0.44707  0.76690  0.95850  Biso   1.000  O
  O13      1.0000 0.61720  0.23140  0.54320  Biso   1.000  O
  O14      1.0000 0.38280  0.76860  0.45680  Biso   1.000  O
  N1       1.0000 0.02411  0.22805  0.01599  Biso   1.000  N
  N2       1.0000 0.97589  0.77195  0.98401  Biso   1.000  N
  N3       1.0000 0.15940  0.29572  0.14751  Biso   1.000  N
  N4       1.0000 0.84060  0.70428  0.85249  Biso   1.000  N
  N5       1.0000 0.02552  0.99998  0.77891  Biso   1.000  N
  N6       1.0000 0.97448  0.00002  0.22109  Biso   1.000  N
  N7       1.0000 0.21011  0.02665  0.77463  Biso   1.000  N
  N8       1.0000 0.78989  0.97335  0.22537  Biso   1.000  N
  C1       1.0000 0.91660  0.30709  0.91367  Biso   1.000  C
  C2       1.0000 0.08340  0.69291  0.08633  Biso   1.000  C
  H1       1.0000 0.82680  0.25730  0.82460  Biso   1.000  H
  H2       1.0000 0.17320  0.74270  0.17540  Biso   1.000  H
  C3       1.0000 0.93260  0.46479  0.93416  Biso   1.000  C
  C4       1.0000 0.06740  0.53521  0.06584  Biso   1.000  C
  C5       1.0000 0.17870  0.44170  0.17096  Biso   1.000  C
  C6       1.0000 0.82130  0.55830  0.82904  Biso   1.000  C
  H3       1.0000 0.27030  0.48720  0.26140  Biso   1.000  H
  H4       1.0000 0.72970  0.51280  0.73860  Biso   1.000  H
  C7       1.0000 0.88070  0.97947  0.65157  Biso   1.000  C
  C8       1.0000 0.11930  0.02053  0.34843  Biso   1.000  C
  H5       1.0000 0.75650  0.95970  0.65890  Biso   1.000  H
  H6       1.0000 0.24350  0.04030  0.34110  Biso   1.000  H
  C9       1.0000 0.90740  0.98652  0.50327  Biso   1.000  C
  C10      1.0000 0.09260  0.01348  0.49673  Biso   1.000  C
  C11      1.0000 0.24110  0.03250  0.63975  Biso   1.000  C
  C12      1.0000 0.75890  0.96750  0.36025  Biso   1.000  C
  H7       1.0000 0.36770  0.05030  0.63750  Biso   1.000  H
  H8       1.0000 0.63230  0.94970  0.36250  Biso   1.000  H
  H9       1.0000 0.35530  0.93140  0.06950  Biso   1.000  H
  H10      1.0000 0.64470  0.06860  0.93050  Biso   1.000  H
  H11      1.0000 0.38350  0.08060  0.10380  Biso   1.000  H
  H12      1.0000 0.61650  0.91940  0.89620  Biso   1.000  H
  H13      1.0000 0.61530  0.28500  0.12500  Biso   1.000  H
  H14      1.0000 0.38470  0.71500  0.87500  Biso   1.000  H
  H15      1.0000 0.53090  0.28600  0.53530  Biso   1.000  H
  H16      1.0000 0.46910  0.71400  0.46470  Biso   1.000  H
  H17      1.0000 0.49250  0.29980  0.98330  Biso   1.000  H
  H18      1.0000 0.50750  0.70020  0.01670  Biso   1.000  H
  H19      1.0000 0.69810  0.27310  0.49780  Biso   1.000  H
  H20      1.0000 0.30190  0.72690  0.50220  Biso   1.000  H
