data_image0
_cell_length_a       18.2512
_cell_length_b       18.2512
_cell_length_c       34.2802
_cell_angle_alpha    90
_cell_angle_beta     90
_cell_angle_gamma    120

_symmetry_space_group_name_H-M    "P 1"
_symmetry_int_tables_number       1

loop_
  _symmetry_equiv_pos_as_xyz
  'x, y, z'

loop_
  _atom_site_label
  _atom_site_occupancy
  _atom_site_fract_x
  _atom_site_fract_y
  _atom_site_fract_z
  _atom_site_thermal_displace_type
  _atom_site_B_iso_or_equiv
  _atom_site_type_symbol
  Cu1      1.0000 0.52529  0.47472  0.96903  Biso   1.000  Cu
  Cu2      1.0000 0.05057  0.52529  0.46903  Biso   1.000  Cu
  Cu3      1.0000 0.52528  0.05057  0.96903  Biso   1.000  Cu
  Cu4      1.0000 0.47471  0.52528  0.46903  Biso   1.000  Cu
  Cu5      1.0000 0.94943  0.47471  0.96903  Biso   1.000  Cu
  Cu6      1.0000 0.47472  0.94943  0.46903  Biso   1.000  Cu
  Cu7      1.0000 0.52528  0.47471  0.53097  Biso   1.000  Cu
  Cu8      1.0000 0.05057  0.52528  0.03097  Biso   1.000  Cu
  Cu9      1.0000 0.52529  0.05057  0.53097  Biso   1.000  Cu
  Cu10     1.0000 0.47472  0.52529  0.03097  Biso   1.000  Cu
  Cu11     1.0000 0.94943  0.47472  0.53097  Biso   1.000  Cu
  Cu12     1.0000 0.47471  0.94943  0.03097  Biso   1.000  Cu
  O1       1.0000 0.56267  0.58650  0.94869  Biso   1.000  O
  O2       1.0000 0.97617  0.56267  0.44869  Biso   1.000  O
  O3       1.0000 0.41350  0.97617  0.94869  Biso   1.000  O
  O4       1.0000 0.43733  0.41350  0.44869  Biso   1.000  O
  O5       1.0000 0.02383  0.43733  0.94869  Biso   1.000  O
  O6       1.0000 0.58650  0.02383  0.44869  Biso   1.000  O
  O7       1.0000 0.41350  0.43733  0.55131  Biso   1.000  O
  O8       1.0000 0.97617  0.41350  0.05131  Biso   1.000  O
  O9       1.0000 0.56267  0.97617  0.55131  Biso   1.000  O
  O10      1.0000 0.58650  0.56267  0.05131  Biso   1.000  O
  O11      1.0000 0.02383  0.58650  0.55131  Biso   1.000  O
  O12      1.0000 0.43733  0.02383  0.05131  Biso   1.000  O
  O13      1.0000 0.43733  0.41350  0.05131  Biso   1.000  O
  O14      1.0000 0.02383  0.43733  0.55131  Biso   1.000  O
  O15      1.0000 0.58650  0.02383  0.05131  Biso   1.000  O
  O16      1.0000 0.56267  0.58650  0.55131  Biso   1.000  O
  O17      1.0000 0.97617  0.56267  0.05131  Biso   1.000  O
  O18      1.0000 0.41350  0.97617  0.55131  Biso   1.000  O
  O19      1.0000 0.58650  0.56267  0.44869  Biso   1.000  O
  O20      1.0000 0.02383  0.58650  0.94869  Biso   1.000  O
  O21      1.0000 0.43733  0.02383  0.44869  Biso   1.000  O
  O22      1.0000 0.41350  0.43733  0.94869  Biso   1.000  O
  O23      1.0000 0.97617  0.41350  0.44869  Biso   1.000  O
  O24      1.0000 0.56267  0.97617  0.94869  Biso   1.000  O
  O25      1.0000 0.51966  0.62920  0.00140  Biso   1.000  O
  O26      1.0000 0.89046  0.51966  0.50140  Biso   1.000  O
  O27      1.0000 0.37080  0.89046  0.00140  Biso   1.000  O
  O28      1.0000 0.48034  0.37080  0.50140  Biso   1.000  O
  O29      1.0000 0.10954  0.48034  0.00140  Biso   1.000  O
  O30      1.0000 0.62920  0.10954  0.50140  Biso   1.000  O
  O31      1.0000 0.37080  0.48034  0.49860  Biso   1.000  O
  O32      1.0000 0.89046  0.37080  0.99860  Biso   1.000  O
  O33      1.0000 0.51966  0.89046  0.49860  Biso   1.000  O
  O34      1.0000 0.62920  0.51966  0.99860  Biso   1.000  O
  O35      1.0000 0.10954  0.62920  0.49860  Biso   1.000  O
  O36      1.0000 0.48034  0.10954  0.99860  Biso   1.000  O
  O37      1.0000 0.48034  0.37080  0.99860  Biso   1.000  O
  O38      1.0000 0.10954  0.48034  0.49860  Biso   1.000  O
  O39      1.0000 0.62920  0.10954  0.99860  Biso   1.000  O
  O40      1.0000 0.51966  0.62920  0.49860  Biso   1.000  O
  O41      1.0000 0.89046  0.51966  0.99860  Biso   1.000  O
  O42      1.0000 0.37080  0.89046  0.49860  Biso   1.000  O
  O43      1.0000 0.62920  0.51966  0.50140  Biso   1.000  O
  O44      1.0000 0.10954  0.62920  0.00140  Biso   1.000  O
  O45      1.0000 0.48034  0.10954  0.50140  Biso   1.000  O
  O46      1.0000 0.37080  0.48034  0.00140  Biso   1.000  O
  O47      1.0000 0.89046  0.37080  0.50140  Biso   1.000  O
  O48      1.0000 0.51966  0.89046  0.00140  Biso   1.000  O
  O49      1.0000 0.56511  0.43490  0.91917  Biso   1.000  O
  O50      1.0000 0.13021  0.56511  0.41917  Biso   1.000  O
  O51      1.0000 0.56510  0.13021  0.91917  Biso   1.000  O
  O52      1.0000 0.43489  0.56510  0.41917  Biso   1.000  O
  O53      1.0000 0.86979  0.43489  0.91917  Biso   1.000  O
  O54      1.0000 0.43490  0.86979  0.41917  Biso   1.000  O
  O55      1.0000 0.56510  0.43489  0.58083  Biso   1.000  O
  O56      1.0000 0.13021  0.56510  0.08083  Biso   1.000  O
  O57      1.0000 0.56511  0.13021  0.58083  Biso   1.000  O
  O58      1.0000 0.43490  0.56511  0.08083  Biso   1.000  O
  O59      1.0000 0.86979  0.43490  0.58083  Biso   1.000  O
  O60      1.0000 0.43489  0.86979  0.08083  Biso   1.000  O
  C1       1.0000 0.55150  0.63910  0.96718  Biso   1.000  C
  C2       1.0000 0.91240  0.55150  0.46718  Biso   1.000  C
  C3       1.0000 0.36090  0.91240  0.96718  Biso   1.000  C
  C4       1.0000 0.44850  0.36090  0.46718  Biso   1.000  C
  C5       1.0000 0.08760  0.44850  0.96718  Biso   1.000  C
  C6       1.0000 0.63910  0.08760  0.46718  Biso   1.000  C
  C7       1.0000 0.36090  0.44850  0.53282  Biso   1.000  C
  C8       1.0000 0.91240  0.36090  0.03282  Biso   1.000  C
  C9       1.0000 0.55150  0.91240  0.53282  Biso   1.000  C
  C10      1.0000 0.63910  0.55150  0.03282  Biso   1.000  C
  C11      1.0000 0.08760  0.63910  0.53282  Biso   1.000  C
  C12      1.0000 0.44850  0.08760  0.03282  Biso   1.000  C
  C13      1.0000 0.44850  0.36090  0.03282  Biso   1.000  C
  C14      1.0000 0.08760  0.44850  0.53282  Biso   1.000  C
  C15      1.0000 0.63910  0.08760  0.03282  Biso   1.000  C
  C16      1.0000 0.55150  0.63910  0.53282  Biso   1.000  C
  C17      1.0000 0.91240  0.55150  0.03282  Biso   1.000  C
  C18      1.0000 0.36090  0.91240  0.53282  Biso   1.000  C
  C19      1.0000 0.63910  0.55150  0.46718  Biso   1.000  C
  C20      1.0000 0.08760  0.63910  0.96718  Biso   1.000  C
  C21      1.0000 0.44850  0.08760  0.46718  Biso   1.000  C
  C22      1.0000 0.36090  0.44850  0.96718  Biso   1.000  C
  C23      1.0000 0.91240  0.36090  0.46718  Biso   1.000  C
  C24      1.0000 0.55150  0.91240  0.96718  Biso   1.000  C
  C25      1.0000 0.56060  0.78030  0.96635  Biso   1.000  C
  C26      1.0000 0.78030  0.56060  0.46635  Biso   1.000  C
  C27      1.0000 0.21970  0.78030  0.96635  Biso   1.000  C
  C28      1.0000 0.43940  0.21970  0.46635  Biso   1.000  C
  C29      1.0000 0.21970  0.43940  0.96635  Biso   1.000  C
  C30      1.0000 0.78030  0.21970  0.46635  Biso   1.000  C
  C31      1.0000 0.21970  0.43940  0.53365  Biso   1.000  C
  C32      1.0000 0.78030  0.21970  0.03365  Biso   1.000  C
  C33      1.0000 0.56060  0.78030  0.53365  Biso   1.000  C
  C34      1.0000 0.78030  0.56060  0.03365  Biso   1.000  C
  C35      1.0000 0.21970  0.78030  0.53365  Biso   1.000  C
  C36      1.0000 0.43940  0.21970  0.03365  Biso   1.000  C
  H1       1.0000 0.53920  0.76960  0.99160  Biso   1.000  H
  H2       1.0000 0.76960  0.53920  0.49160  Biso   1.000  H
  H3       1.0000 0.23040  0.76960  0.99160  Biso   1.000  H
  H4       1.0000 0.46080  0.23040  0.49160  Biso   1.000  H
  H5       1.0000 0.23040  0.46080  0.99160  Biso   1.000  H
  H6       1.0000 0.76960  0.23040  0.49160  Biso   1.000  H
  H7       1.0000 0.23040  0.46080  0.50840  Biso   1.000  H
  H8       1.0000 0.76960  0.23040  0.00840  Biso   1.000  H
  H9       1.0000 0.53920  0.76960  0.50840  Biso   1.000  H
  H10      1.0000 0.76960  0.53920  0.00840  Biso   1.000  H
  H11      1.0000 0.23040  0.76960  0.50840  Biso   1.000  H
  H12      1.0000 0.46080  0.23040  0.00840  Biso   1.000  H
  C37      1.0000 0.57540  0.72130  0.94869  Biso   1.000  C
  C38      1.0000 0.85410  0.57540  0.44869  Biso   1.000  C
  C39      1.0000 0.27870  0.85410  0.94869  Biso   1.000  C
  C40      1.0000 0.42460  0.27870  0.44869  Biso   1.000  C
  C41      1.0000 0.14590  0.42460  0.94869  Biso   1.000  C
  C42      1.0000 0.72130  0.14590  0.44869  Biso   1.000  C
  C43      1.0000 0.27870  0.42460  0.55131  Biso   1.000  C
  C44      1.0000 0.85410  0.27870  0.05131  Biso   1.000  C
  C45      1.0000 0.57540  0.85410  0.55131  Biso   1.000  C
  C46      1.0000 0.72130  0.57540  0.05131  Biso   1.000  C
  C47      1.0000 0.14590  0.72130  0.55131  Biso   1.000  C
  C48      1.0000 0.42460  0.14590  0.05131  Biso   1.000  C
  C49      1.0000 0.42460  0.27870  0.05131  Biso   1.000  C
  C50      1.0000 0.14590  0.42460  0.55131  Biso   1.000  C
  C51      1.0000 0.72130  0.14590  0.05131  Biso   1.000  C
  C52      1.0000 0.57540  0.72130  0.55131  Biso   1.000  C
  C53      1.0000 0.85410  0.57540  0.05131  Biso   1.000  C
  C54      1.0000 0.27870  0.85410  0.55131  Biso   1.000  C
  C55      1.0000 0.72130  0.57540  0.44869  Biso   1.000  C
  C56      1.0000 0.14590  0.72130  0.94869  Biso   1.000  C
  C57      1.0000 0.42460  0.14590  0.44869  Biso   1.000  C
  C58      1.0000 0.27870  0.42460  0.94869  Biso   1.000  C
  C59      1.0000 0.85410  0.27870  0.44869  Biso   1.000  C
  C60      1.0000 0.57540  0.85410  0.94869  Biso   1.000  C
  C61      1.0000 0.61050  0.74140  0.91132  Biso   1.000  C
  C62      1.0000 0.86910  0.61050  0.41132  Biso   1.000  C
  C63      1.0000 0.25860  0.86910  0.91132  Biso   1.000  C
  C64      1.0000 0.38950  0.25860  0.41132  Biso   1.000  C
  C65      1.0000 0.13090  0.38950  0.91132  Biso   1.000  C
  C66      1.0000 0.74140  0.13090  0.41132  Biso   1.000  C
  C67      1.0000 0.25860  0.38950  0.58868  Biso   1.000  C
  C68      1.0000 0.86910  0.25860  0.08868  Biso   1.000  C
  C69      1.0000 0.61050  0.86910  0.58868  Biso   1.000  C
  C70      1.0000 0.74140  0.61050  0.08868  Biso   1.000  C
  C71      1.0000 0.13090  0.74140  0.58868  Biso   1.000  C
  C72      1.0000 0.38950  0.13090  0.08868  Biso   1.000  C
  C73      1.0000 0.38950  0.25860  0.08868  Biso   1.000  C
  C74      1.0000 0.13090  0.38950  0.58868  Biso   1.000  C
  C75      1.0000 0.74140  0.13090  0.08868  Biso   1.000  C
  C76      1.0000 0.61050  0.74140  0.58868  Biso   1.000  C
  C77      1.0000 0.86910  0.61050  0.08868  Biso   1.000  C
  C78      1.0000 0.25860  0.86910  0.58868  Biso   1.000  C
  C79      1.0000 0.74140  0.61050  0.41132  Biso   1.000  C
  C80      1.0000 0.13090  0.74140  0.91132  Biso   1.000  C
  C81      1.0000 0.38950  0.13090  0.41132  Biso   1.000  C
  C82      1.0000 0.25860  0.38950  0.91132  Biso   1.000  C
  C83      1.0000 0.86910  0.25860  0.41132  Biso   1.000  C
  C84      1.0000 0.61050  0.86910  0.91132  Biso   1.000  C
  H13      1.0000 0.62410  0.70440  0.89890  Biso   1.000  H
  H14      1.0000 0.91970  0.62410  0.39890  Biso   1.000  H
  H15      1.0000 0.29560  0.91970  0.89890  Biso   1.000  H
  H16      1.0000 0.37590  0.29560  0.39890  Biso   1.000  H
  H17      1.0000 0.08030  0.37590  0.89890  Biso   1.000  H
  H18      1.0000 0.70440  0.08030  0.39890  Biso   1.000  H
  H19      1.0000 0.29560  0.37590  0.60110  Biso   1.000  H
  H20      1.0000 0.91970  0.29560  0.10110  Biso   1.000  H
  H21      1.0000 0.62410  0.91970  0.60110  Biso   1.000  H
  H22      1.0000 0.70440  0.62410  0.10110  Biso   1.000  H
  H23      1.0000 0.08030  0.70440  0.60110  Biso   1.000  H
  H24      1.0000 0.37590  0.08030  0.10110  Biso   1.000  H
  H25      1.0000 0.37590  0.29560  0.10110  Biso   1.000  H
  H26      1.0000 0.08030  0.37590  0.60110  Biso   1.000  H
  H27      1.0000 0.70440  0.08030  0.10110  Biso   1.000  H
  H28      1.0000 0.62410  0.70440  0.60110  Biso   1.000  H
  H29      1.0000 0.91970  0.62410  0.10110  Biso   1.000  H
  H30      1.0000 0.29560  0.91970  0.60110  Biso   1.000  H
  H31      1.0000 0.70440  0.62410  0.39890  Biso   1.000  H
  H32      1.0000 0.08030  0.70440  0.89890  Biso   1.000  H
  H33      1.0000 0.37590  0.08030  0.39890  Biso   1.000  H
  H34      1.0000 0.29560  0.37590  0.89890  Biso   1.000  H
  H35      1.0000 0.91970  0.29560  0.39890  Biso   1.000  H
  H36      1.0000 0.62410  0.91970  0.89890  Biso   1.000  H
  C85      1.0000 0.62520  0.81260  0.89250  Biso   1.000  C
  C86      1.0000 0.81260  0.62520  0.39250  Biso   1.000  C
  C87      1.0000 0.18740  0.81260  0.89250  Biso   1.000  C
  C88      1.0000 0.37480  0.18740  0.39250  Biso   1.000  C
  C89      1.0000 0.18740  0.37480  0.89250  Biso   1.000  C
  C90      1.0000 0.81260  0.18740  0.39250  Biso   1.000  C
  C91      1.0000 0.18740  0.37480  0.60750  Biso   1.000  C
  C92      1.0000 0.81260  0.18740  0.10750  Biso   1.000  C
  C93      1.0000 0.62520  0.81260  0.60750  Biso   1.000  C
  C94      1.0000 0.81260  0.62520  0.10750  Biso   1.000  C
  C95      1.0000 0.18740  0.81260  0.60750  Biso   1.000  C
  C96      1.0000 0.37480  0.18740  0.10750  Biso   1.000  C
  C97      1.0000 0.65420  0.82710  0.84892  Biso   1.000  C
  C98      1.0000 0.82710  0.65420  0.34892  Biso   1.000  C
  C99      1.0000 0.17290  0.82710  0.84892  Biso   1.000  C
  C100     1.0000 0.34580  0.17290  0.34892  Biso   1.000  C
  C101     1.0000 0.17290  0.34580  0.84892  Biso   1.000  C
  C102     1.0000 0.82710  0.17290  0.34892  Biso   1.000  C
  C103     1.0000 0.17290  0.34580  0.65108  Biso   1.000  C
  C104     1.0000 0.82710  0.17290  0.15108  Biso   1.000  C
  C105     1.0000 0.65420  0.82710  0.65108  Biso   1.000  C
  C106     1.0000 0.82710  0.65420  0.15108  Biso   1.000  C
  C107     1.0000 0.17290  0.82710  0.65108  Biso   1.000  C
  C108     1.0000 0.34580  0.17290  0.15108  Biso   1.000  C
  C109     1.0000 0.71000  0.80560  0.83630  Biso   1.000  C
  C110     1.0000 0.90440  0.71000  0.33630  Biso   1.000  C
  C111     1.0000 0.19440  0.90440  0.83630  Biso   1.000  C
  C112     1.0000 0.29000  0.19440  0.33630  Biso   1.000  C
  C113     1.0000 0.09560  0.29000  0.83630  Biso   1.000  C
  C114     1.0000 0.80560  0.09560  0.33630  Biso   1.000  C
  C115     1.0000 0.19440  0.29000  0.66370  Biso   1.000  C
  C116     1.0000 0.90440  0.19440  0.16370  Biso   1.000  C
  C117     1.0000 0.71000  0.90440  0.66370  Biso   1.000  C
  C118     1.0000 0.80560  0.71000  0.16370  Biso   1.000  C
  C119     1.0000 0.09560  0.80560  0.66370  Biso   1.000  C
  C120     1.0000 0.29000  0.09560  0.16370  Biso   1.000  C
  C121     1.0000 0.29000  0.19440  0.16370  Biso   1.000  C
  C122     1.0000 0.09560  0.29000  0.66370  Biso   1.000  C
  C123     1.0000 0.80560  0.09560  0.16370  Biso   1.000  C
  C124     1.0000 0.71000  0.80560  0.66370  Biso   1.000  C
  C125     1.0000 0.90440  0.71000  0.16370  Biso   1.000  C
  C126     1.0000 0.19440  0.90440  0.66370  Biso   1.000  C
  C127     1.0000 0.80560  0.71000  0.33630  Biso   1.000  C
  C128     1.0000 0.09560  0.80560  0.83630  Biso   1.000  C
  C129     1.0000 0.29000  0.09560  0.33630  Biso   1.000  C
  C130     1.0000 0.19440  0.29000  0.83630  Biso   1.000  C
  C131     1.0000 0.90440  0.19440  0.33630  Biso   1.000  C
  C132     1.0000 0.71000  0.90440  0.83630  Biso   1.000  C
  H37      1.0000 0.73670  0.78350  0.85410  Biso   1.000  H
  H38      1.0000 0.95320  0.73670  0.35410  Biso   1.000  H
  H39      1.0000 0.21650  0.95320  0.85410  Biso   1.000  H
  H40      1.0000 0.26330  0.21650  0.35410  Biso   1.000  H
  H41      1.0000 0.04680  0.26330  0.85410  Biso   1.000  H
  H42      1.0000 0.78350  0.04680  0.35410  Biso   1.000  H
  H43      1.0000 0.21650  0.26330  0.64590  Biso   1.000  H
  H44      1.0000 0.95320  0.21650  0.14590  Biso   1.000  H
  H45      1.0000 0.73670  0.95320  0.64590  Biso   1.000  H
  H46      1.0000 0.78350  0.73670  0.14590  Biso   1.000  H
  H47      1.0000 0.04680  0.78350  0.64590  Biso   1.000  H
  H48      1.0000 0.26330  0.04680  0.14590  Biso   1.000  H
  H49      1.0000 0.26330  0.21650  0.14590  Biso   1.000  H
  H50      1.0000 0.04680  0.26330  0.64590  Biso   1.000  H
  H51      1.0000 0.78350  0.04680  0.14590  Biso   1.000  H
  H52      1.0000 0.73670  0.78350  0.64590  Biso   1.000  H
  H53      1.0000 0.95320  0.73670  0.14590  Biso   1.000  H
  H54      1.0000 0.21650  0.95320  0.64590  Biso   1.000  H
  H55      1.0000 0.78350  0.73670  0.35410  Biso   1.000  H
  H56      1.0000 0.04680  0.78350  0.85410  Biso   1.000  H
  H57      1.0000 0.26330  0.04680  0.35410  Biso   1.000  H
  H58      1.0000 0.21650  0.26330  0.85410  Biso   1.000  H
  H59      1.0000 0.95320  0.21650  0.35410  Biso   1.000  H
  H60      1.0000 0.73670  0.95320  0.85410  Biso   1.000  H
  C133     1.0000 0.73080  0.81450  0.79720  Biso   1.000  C
  C134     1.0000 0.91630  0.73080  0.29720  Biso   1.000  C
  C135     1.0000 0.18550  0.91630  0.79720  Biso   1.000  C
  C136     1.0000 0.26920  0.18550  0.29720  Biso   1.000  C
  C137     1.0000 0.08370  0.26920  0.79720  Biso   1.000  C
  C138     1.0000 0.81450  0.08370  0.29720  Biso   1.000  C
  C139     1.0000 0.18550  0.26920  0.70280  Biso   1.000  C
  C140     1.0000 0.91630  0.18550  0.20280  Biso   1.000  C
  C141     1.0000 0.73080  0.91630  0.70280  Biso   1.000  C
  C142     1.0000 0.81450  0.73080  0.20280  Biso   1.000  C
  C143     1.0000 0.08370  0.81450  0.70280  Biso   1.000  C
  C144     1.0000 0.26920  0.08370  0.20280  Biso   1.000  C
  C145     1.0000 0.26920  0.18550  0.20280  Biso   1.000  C
  C146     1.0000 0.08370  0.26920  0.70280  Biso   1.000  C
  C147     1.0000 0.81450  0.08370  0.20280  Biso   1.000  C
  C148     1.0000 0.73080  0.81450  0.70280  Biso   1.000  C
  C149     1.0000 0.91630  0.73080  0.20280  Biso   1.000  C
  C150     1.0000 0.18550  0.91630  0.70280  Biso   1.000  C
  C151     1.0000 0.81450  0.73080  0.29720  Biso   1.000  C
  C152     1.0000 0.08370  0.81450  0.79720  Biso   1.000  C
  C153     1.0000 0.26920  0.08370  0.29720  Biso   1.000  C
  C154     1.0000 0.18550  0.26920  0.79720  Biso   1.000  C
  C155     1.0000 0.91630  0.18550  0.29720  Biso   1.000  C
  C156     1.0000 0.73080  0.91630  0.79720  Biso   1.000  C
  H61      1.0000 0.76960  0.79990  0.78780  Biso   1.000  H
  H62      1.0000 0.96970  0.76960  0.28780  Biso   1.000  H
  H63      1.0000 0.20010  0.96970  0.78780  Biso   1.000  H
  H64      1.0000 0.23040  0.20010  0.28780  Biso   1.000  H
  H65      1.0000 0.03030  0.23040  0.78780  Biso   1.000  H
  H66      1.0000 0.79990  0.03030  0.28780  Biso   1.000  H
  H67      1.0000 0.20010  0.23040  0.71220  Biso   1.000  H
  H68      1.0000 0.96970  0.20010  0.21220  Biso   1.000  H
  H69      1.0000 0.76960  0.96970  0.71220  Biso   1.000  H
  H70      1.0000 0.79990  0.76960  0.21220  Biso   1.000  H
  H71      1.0000 0.03030  0.79990  0.71220  Biso   1.000  H
  H72      1.0000 0.23040  0.03030  0.21220  Biso   1.000  H
  H73      1.0000 0.23040  0.20010  0.21220  Biso   1.000  H
  H74      1.0000 0.03030  0.23040  0.71220  Biso   1.000  H
  H75      1.0000 0.79990  0.03030  0.21220  Biso   1.000  H
  H76      1.0000 0.76960  0.79990  0.71220  Biso   1.000  H
  H77      1.0000 0.96970  0.76960  0.21220  Biso   1.000  H
  H78      1.0000 0.20010  0.96970  0.71220  Biso   1.000  H
  H79      1.0000 0.79990  0.76960  0.28780  Biso   1.000  H
  H80      1.0000 0.03030  0.79990  0.78780  Biso   1.000  H
  H81      1.0000 0.23040  0.03030  0.28780  Biso   1.000  H
  H82      1.0000 0.20010  0.23040  0.78780  Biso   1.000  H
  H83      1.0000 0.96970  0.20010  0.28780  Biso   1.000  H
  H84      1.0000 0.76960  0.96970  0.78780  Biso   1.000  H
  C157     1.0000 0.61200  0.85330  0.82340  Biso   1.000  C
  C158     1.0000 0.75870  0.61200  0.32340  Biso   1.000  C
  C159     1.0000 0.14670  0.75870  0.82340  Biso   1.000  C
  C160     1.0000 0.38800  0.14670  0.32340  Biso   1.000  C
  C161     1.0000 0.24130  0.38800  0.82340  Biso   1.000  C
  C162     1.0000 0.85330  0.24130  0.32340  Biso   1.000  C
  C163     1.0000 0.14670  0.38800  0.67660  Biso   1.000  C
  C164     1.0000 0.75870  0.14670  0.17660  Biso   1.000  C
  C165     1.0000 0.61200  0.75870  0.67660  Biso   1.000  C
  C166     1.0000 0.85330  0.61200  0.17660  Biso   1.000  C
  C167     1.0000 0.24130  0.85330  0.67660  Biso   1.000  C
  C168     1.0000 0.38800  0.24130  0.17660  Biso   1.000  C
  C169     1.0000 0.38800  0.14670  0.17660  Biso   1.000  C
  C170     1.0000 0.24130  0.38800  0.67660  Biso   1.000  C
  C171     1.0000 0.85330  0.24130  0.17660  Biso   1.000  C
  C172     1.0000 0.61200  0.85330  0.67660  Biso   1.000  C
  C173     1.0000 0.75870  0.61200  0.17660  Biso   1.000  C
  C174     1.0000 0.14670  0.75870  0.67660  Biso   1.000  C
  C175     1.0000 0.85330  0.61200  0.32340  Biso   1.000  C
  C176     1.0000 0.24130  0.85330  0.82340  Biso   1.000  C
  C177     1.0000 0.38800  0.24130  0.32340  Biso   1.000  C
  C178     1.0000 0.14670  0.38800  0.82340  Biso   1.000  C
  C179     1.0000 0.75870  0.14670  0.32340  Biso   1.000  C
  C180     1.0000 0.61200  0.75870  0.82340  Biso   1.000  C
  H85      1.0000 0.56670  0.86530  0.83250  Biso   1.000  H
  H86      1.0000 0.70140  0.56670  0.33250  Biso   1.000  H
  H87      1.0000 0.13470  0.70140  0.83250  Biso   1.000  H
  H88      1.0000 0.43330  0.13470  0.33250  Biso   1.000  H
  H89      1.0000 0.29860  0.43330  0.83250  Biso   1.000  H
  H90      1.0000 0.86530  0.29860  0.33250  Biso   1.000  H
  H91      1.0000 0.13470  0.43330  0.66750  Biso   1.000  H
  H92      1.0000 0.70140  0.13470  0.16750  Biso   1.000  H
  H93      1.0000 0.56670  0.70140  0.66750  Biso   1.000  H
  H94      1.0000 0.86530  0.56670  0.16750  Biso   1.000  H
  H95      1.0000 0.29860  0.86530  0.66750  Biso   1.000  H
  H96      1.0000 0.43330  0.29860  0.16750  Biso   1.000  H
  H97      1.0000 0.43330  0.13470  0.16750  Biso   1.000  H
  H98      1.0000 0.29860  0.43330  0.66750  Biso   1.000  H
  H99      1.0000 0.86530  0.29860  0.16750  Biso   1.000  H
  H100     1.0000 0.56670  0.86530  0.66750  Biso   1.000  H
  H101     1.0000 0.70140  0.56670  0.16750  Biso   1.000  H
  H102     1.0000 0.13470  0.70140  0.66750  Biso   1.000  H
  H103     1.0000 0.86530  0.56670  0.33250  Biso   1.000  H
  H104     1.0000 0.29860  0.86530  0.83250  Biso   1.000  H
  H105     1.0000 0.43330  0.29860  0.33250  Biso   1.000  H
  H106     1.0000 0.13470  0.43330  0.83250  Biso   1.000  H
  H107     1.0000 0.70140  0.13470  0.33250  Biso   1.000  H
  H108     1.0000 0.56670  0.70140  0.83250  Biso   1.000  H
  C181     1.0000 0.63570  0.77750  0.78370  Biso   1.000  C
  C182     1.0000 0.85820  0.63570  0.28370  Biso   1.000  C
  C183     1.0000 0.22250  0.85820  0.78370  Biso   1.000  C
  C184     1.0000 0.36430  0.22250  0.28370  Biso   1.000  C
  C185     1.0000 0.14180  0.36430  0.78370  Biso   1.000  C
  C186     1.0000 0.77750  0.14180  0.28370  Biso   1.000  C
  C187     1.0000 0.22250  0.36430  0.71630  Biso   1.000  C
  C188     1.0000 0.85820  0.22250  0.21630  Biso   1.000  C
  C189     1.0000 0.63570  0.85820  0.71630  Biso   1.000  C
  C190     1.0000 0.77750  0.63570  0.21630  Biso   1.000  C
  C191     1.0000 0.14180  0.77750  0.71630  Biso   1.000  C
  C192     1.0000 0.36430  0.14180  0.21630  Biso   1.000  C
  C193     1.0000 0.36430  0.22250  0.21630  Biso   1.000  C
  C194     1.0000 0.14180  0.36430  0.71630  Biso   1.000  C
  C195     1.0000 0.77750  0.14180  0.21630  Biso   1.000  C
  C196     1.0000 0.63570  0.77750  0.71630  Biso   1.000  C
  C197     1.0000 0.85820  0.63570  0.21630  Biso   1.000  C
  C198     1.0000 0.22250  0.85820  0.71630  Biso   1.000  C
  C199     1.0000 0.77750  0.63570  0.28370  Biso   1.000  C
  C200     1.0000 0.14180  0.77750  0.78370  Biso   1.000  C
  C201     1.0000 0.36430  0.14180  0.28370  Biso   1.000  C
  C202     1.0000 0.22250  0.36430  0.78370  Biso   1.000  C
  C203     1.0000 0.85820  0.22250  0.28370  Biso   1.000  C
  C204     1.0000 0.63570  0.85820  0.78370  Biso   1.000  C
  C205     1.0000 0.69240  0.84620  0.77132  Biso   1.000  C
  C206     1.0000 0.84620  0.69240  0.27132  Biso   1.000  C
  C207     1.0000 0.15380  0.84620  0.77132  Biso   1.000  C
  C208     1.0000 0.30760  0.15380  0.27132  Biso   1.000  C
  C209     1.0000 0.15380  0.30760  0.77132  Biso   1.000  C
  C210     1.0000 0.84620  0.15380  0.27132  Biso   1.000  C
  C211     1.0000 0.15380  0.30760  0.72868  Biso   1.000  C
  C212     1.0000 0.84620  0.15380  0.22868  Biso   1.000  C
  C213     1.0000 0.69240  0.84620  0.72868  Biso   1.000  C
  C214     1.0000 0.84620  0.69240  0.22868  Biso   1.000  C
  C215     1.0000 0.15380  0.84620  0.72868  Biso   1.000  C
  C216     1.0000 0.30760  0.15380  0.22868  Biso   1.000  C
  C217     1.0000 0.59120  0.71360  0.75000  Biso   1.000  C
  C218     1.0000 0.87760  0.59120  0.25000  Biso   1.000  C
  C219     1.0000 0.28640  0.87760  0.75000  Biso   1.000  C
  C220     1.0000 0.40880  0.28640  0.25000  Biso   1.000  C
  C221     1.0000 0.12240  0.40880  0.75000  Biso   1.000  C
  C222     1.0000 0.71360  0.12240  0.25000  Biso   1.000  C
  C223     1.0000 0.28640  0.40880  0.75000  Biso   1.000  C
  C224     1.0000 0.87760  0.28640  0.25000  Biso   1.000  C
  C225     1.0000 0.59120  0.87760  0.75000  Biso   1.000  C
  C226     1.0000 0.71360  0.59120  0.25000  Biso   1.000  C
  C227     1.0000 0.12240  0.71360  0.75000  Biso   1.000  C
  C228     1.0000 0.40880  0.12240  0.25000  Biso   1.000  C
  H109     1.0000 0.53040  0.69040  0.75000  Biso   1.000  H
  H110     1.0000 0.84000  0.53040  0.25000  Biso   1.000  H
  H111     1.0000 0.30960  0.84000  0.75000  Biso   1.000  H
  H112     1.0000 0.46960  0.30960  0.25000  Biso   1.000  H
  H113     1.0000 0.16000  0.46960  0.75000  Biso   1.000  H
  H114     1.0000 0.69040  0.16000  0.25000  Biso   1.000  H
  H115     1.0000 0.30960  0.46960  0.75000  Biso   1.000  H
  H116     1.0000 0.84000  0.30960  0.25000  Biso   1.000  H
  H117     1.0000 0.53040  0.84000  0.75000  Biso   1.000  H
  H118     1.0000 0.69040  0.53040  0.25000  Biso   1.000  H
  H119     1.0000 0.16000  0.69040  0.75000  Biso   1.000  H
  H120     1.0000 0.46960  0.16000  0.25000  Biso   1.000  H
  H121     1.0000 0.60430  0.66820  0.75000  Biso   1.000  H
  H122     1.0000 0.93610  0.60430  0.25000  Biso   1.000  H
  H123     1.0000 0.33180  0.93610  0.75000  Biso   1.000  H
  H124     1.0000 0.39570  0.33180  0.25000  Biso   1.000  H
  H125     1.0000 0.06390  0.39570  0.75000  Biso   1.000  H
  H126     1.0000 0.66820  0.06390  0.25000  Biso   1.000  H
  H127     1.0000 0.33180  0.39570  0.75000  Biso   1.000  H
  H128     1.0000 0.93610  0.33180  0.25000  Biso   1.000  H
  H129     1.0000 0.60430  0.93610  0.75000  Biso   1.000  H
  H130     1.0000 0.66820  0.60430  0.25000  Biso   1.000  H
  H131     1.0000 0.06390  0.66820  0.75000  Biso   1.000  H
  H132     1.0000 0.39570  0.06390  0.25000  Biso   1.000  H
