data_image0
_cell_length_a       9.915
_cell_length_b       9.915
_cell_length_c       14.715
_cell_angle_alpha    90
_cell_angle_beta     90
_cell_angle_gamma    90

_symmetry_space_group_name_H-M    "P 1"
_symmetry_int_tables_number       1

loop_
  _symmetry_equiv_pos_as_xyz
  'x, y, z'

loop_
  _atom_site_label
  _atom_site_occupancy
  _atom_site_fract_x
  _atom_site_fract_y
  _atom_site_fract_z
  _atom_site_thermal_displace_type
  _atom_site_B_iso_or_equiv
  _atom_site_type_symbol
  Cu1      1.0000 0.24239  0.75761  0.25000  Biso   1.000  Cu
  Cu2      1.0000 0.75761  0.24239  0.75000  Biso   1.000  Cu
  Cu3      1.0000 0.74239  0.74239  0.50000  Biso   1.000  Cu
  Cu4      1.0000 0.25761  0.25761  0.50000  Biso   1.000  Cu
  Cu5      1.0000 0.25761  0.25761  0.00000  Biso   1.000  Cu
  Cu6      1.0000 0.74239  0.74239  0.00000  Biso   1.000  Cu
  O1       1.0000 0.26312  0.80130  0.12049  Biso   1.000  O
  O2       1.0000 0.73688  0.19870  0.62049  Biso   1.000  O
  O3       1.0000 0.69870  0.76312  0.37049  Biso   1.000  O
  O4       1.0000 0.30130  0.23688  0.37049  Biso   1.000  O
  O5       1.0000 0.23688  0.30130  0.12951  Biso   1.000  O
  O6       1.0000 0.76312  0.69870  0.12951  Biso   1.000  O
  O7       1.0000 0.80130  0.26312  0.87951  Biso   1.000  O
  O8       1.0000 0.19870  0.73688  0.37951  Biso   1.000  O
  N1       1.0000 0.38030  0.85160  0.09214  Biso   1.000  N
  N2       1.0000 0.61970  0.14840  0.59214  Biso   1.000  N
  N3       1.0000 0.64840  0.88030  0.34214  Biso   1.000  N
  N4       1.0000 0.35160  0.11970  0.34214  Biso   1.000  N
  N5       1.0000 0.11970  0.35160  0.15786  Biso   1.000  N
  N6       1.0000 0.88030  0.64840  0.15786  Biso   1.000  N
  N7       1.0000 0.85160  0.38030  0.90786  Biso   1.000  N
  N8       1.0000 0.14840  0.61970  0.40786  Biso   1.000  N
  N9       1.0000 0.48080  0.77110  0.06798  Biso   1.000  N
  N10      1.0000 0.51920  0.22890  0.56798  Biso   1.000  N
  N11      1.0000 0.72890  0.98080  0.31798  Biso   1.000  N
  N12      1.0000 0.27110  0.01920  0.31798  Biso   1.000  N
  N13      1.0000 0.01920  0.27110  0.18202  Biso   1.000  N
  N14      1.0000 0.98080  0.72890  0.18202  Biso   1.000  N
  N15      1.0000 0.77110  0.48080  0.93202  Biso   1.000  N
  N16      1.0000 0.22890  0.51920  0.43202  Biso   1.000  N
  N17      1.0000 0.58190  0.84900  0.03989  Biso   1.000  N
  N18      1.0000 0.41810  0.15100  0.53989  Biso   1.000  N
  N19      1.0000 0.65100  0.08190  0.28989  Biso   1.000  N
  N20      1.0000 0.34900  0.91810  0.28989  Biso   1.000  N
  N21      1.0000 0.91810  0.34900  0.21011  Biso   1.000  N
  N22      1.0000 0.08190  0.65100  0.21011  Biso   1.000  N
  N23      1.0000 0.84900  0.58190  0.96011  Biso   1.000  N
  N24      1.0000 0.15100  0.41810  0.46011  Biso   1.000  N
  C1       1.0000 0.61010  0.10240  0.02422  Biso   1.000  C
  C2       1.0000 0.38990  0.89760  0.52422  Biso   1.000  C
  C3       1.0000 0.39760  0.11010  0.27422  Biso   1.000  C
  C4       1.0000 0.60240  0.88990  0.27422  Biso   1.000  C
  C5       1.0000 0.88990  0.60240  0.22578  Biso   1.000  C
  C6       1.0000 0.11010  0.39760  0.22578  Biso   1.000  C
  C7       1.0000 0.10240  0.61010  0.97578  Biso   1.000  C
  C8       1.0000 0.89760  0.38990  0.47578  Biso   1.000  C
  C9       1.0000 0.53980  0.21940  0.03900  Biso   1.000  C
  C10      1.0000 0.46020  0.78060  0.53900  Biso   1.000  C
  C11      1.0000 0.28060  0.03980  0.28900  Biso   1.000  C
  C12      1.0000 0.71940  0.96020  0.28900  Biso   1.000  C
  C13      1.0000 0.96020  0.71940  0.21100  Biso   1.000  C
  C14      1.0000 0.03980  0.28060  0.21100  Biso   1.000  C
  C15      1.0000 0.21940  0.53980  0.96100  Biso   1.000  C
  C16      1.0000 0.78060  0.46020  0.46100  Biso   1.000  C
  C17      1.0000 0.40740  0.22050  0.07570  Biso   1.000  C
  C18      1.0000 0.59260  0.77950  0.57570  Biso   1.000  C
  C19      1.0000 0.27950  0.90740  0.32570  Biso   1.000  C
  C20      1.0000 0.72050  0.09260  0.32570  Biso   1.000  C
  C21      1.0000 0.09260  0.72050  0.17430  Biso   1.000  C
  C22      1.0000 0.90740  0.27950  0.17430  Biso   1.000  C
  C23      1.0000 0.22050  0.40740  0.92430  Biso   1.000  C
  C24      1.0000 0.77950  0.59260  0.42430  Biso   1.000  C
  C25      1.0000 0.34100  0.10310  0.09624  Biso   1.000  C
  C26      1.0000 0.65900  0.89690  0.59624  Biso   1.000  C
  C27      1.0000 0.39690  0.84100  0.34624  Biso   1.000  C
  C28      1.0000 0.60310  0.15900  0.34624  Biso   1.000  C
  C29      1.0000 0.15900  0.60310  0.15376  Biso   1.000  C
  C30      1.0000 0.84100  0.39690  0.15376  Biso   1.000  C
  C31      1.0000 0.10310  0.34100  0.90376  Biso   1.000  C
  C32      1.0000 0.89690  0.65900  0.40376  Biso   1.000  C
  C33      1.0000 0.54350  0.98110  0.04607  Biso   1.000  C
  C34      1.0000 0.45650  0.01890  0.54607  Biso   1.000  C
  C35      1.0000 0.51890  0.04350  0.29607  Biso   1.000  C
  C36      1.0000 0.48110  0.95650  0.29607  Biso   1.000  C
  C37      1.0000 0.95650  0.48110  0.20393  Biso   1.000  C
  C38      1.0000 0.04350  0.51890  0.20393  Biso   1.000  C
  C39      1.0000 0.98110  0.54350  0.95393  Biso   1.000  C
  C40      1.0000 0.01890  0.45650  0.45393  Biso   1.000  C
  C41      1.0000 0.41230  0.98410  0.07991  Biso   1.000  C
  C42      1.0000 0.58770  0.01590  0.57991  Biso   1.000  C
  C43      1.0000 0.51590  0.91230  0.32991  Biso   1.000  C
  C44      1.0000 0.48410  0.08770  0.32991  Biso   1.000  C
  C45      1.0000 0.08770  0.48410  0.17009  Biso   1.000  C
  C46      1.0000 0.91230  0.51590  0.17009  Biso   1.000  C
  C47      1.0000 0.98410  0.41230  0.92009  Biso   1.000  C
  C48      1.0000 0.01590  0.58770  0.42009  Biso   1.000  C
  O9       1.0000 0.40600  0.59580  0.28330  Biso   1.000  O
  O10      1.0000 0.59400  0.40420  0.78330  Biso   1.000  O
  O11      1.0000 0.90420  0.90600  0.53330  Biso   1.000  O
  O12      1.0000 0.09580  0.09400  0.53330  Biso   1.000  O
  O13      1.0000 0.09400  0.09580  0.96670  Biso   1.000  O
  O14      1.0000 0.90600  0.90420  0.96670  Biso   1.000  O
  O15      1.0000 0.59580  0.40600  0.71670  Biso   1.000  O
  O16      1.0000 0.40420  0.59400  0.21670  Biso   1.000  O
  C49      1.0000 0.49070  0.50930  0.25000  Biso   1.000  C
  C50      1.0000 0.50930  0.49070  0.75000  Biso   1.000  C
  C51      1.0000 0.99070  0.99070  0.50000  Biso   1.000  C
  C52      1.0000 0.00930  0.00930  0.50000  Biso   1.000  C
  C53      1.0000 0.00930  0.00930  0.00000  Biso   1.000  C
  C54      1.0000 0.99070  0.99070  0.00000  Biso   1.000  C
  H1       1.0000 0.68780  0.10080  0.00120  Biso   1.000  H
  H2       1.0000 0.31220  0.89920  0.50120  Biso   1.000  H
  H3       1.0000 0.39920  0.18780  0.25120  Biso   1.000  H
  H4       1.0000 0.60080  0.81220  0.25120  Biso   1.000  H
  H5       1.0000 0.81220  0.60080  0.24880  Biso   1.000  H
  H6       1.0000 0.18780  0.39920  0.24880  Biso   1.000  H
  H7       1.0000 0.10080  0.68780  0.99880  Biso   1.000  H
  H8       1.0000 0.89920  0.31220  0.49880  Biso   1.000  H
  H9       1.0000 0.57860  0.30110  0.02810  Biso   1.000  H
  H10      1.0000 0.42140  0.69890  0.52810  Biso   1.000  H
  H11      1.0000 0.19890  0.07860  0.27810  Biso   1.000  H
  H12      1.0000 0.80110  0.92140  0.27810  Biso   1.000  H
  H13      1.0000 0.92140  0.80110  0.22190  Biso   1.000  H
  H14      1.0000 0.07860  0.19890  0.22190  Biso   1.000  H
  H15      1.0000 0.30110  0.57860  0.97190  Biso   1.000  H
  H16      1.0000 0.69890  0.42140  0.47190  Biso   1.000  H
  H17      1.0000 0.36880  0.30520  0.08810  Biso   1.000  H
  H18      1.0000 0.63120  0.69480  0.58810  Biso   1.000  H
  H19      1.0000 0.19480  0.86880  0.33810  Biso   1.000  H
  H20      1.0000 0.80520  0.13120  0.33810  Biso   1.000  H
  H21      1.0000 0.13120  0.80520  0.16190  Biso   1.000  H
  H22      1.0000 0.86880  0.19480  0.16190  Biso   1.000  H
  H23      1.0000 0.30520  0.36880  0.91190  Biso   1.000  H
  H24      1.0000 0.69480  0.63120  0.41190  Biso   1.000  H
  H25      1.0000 0.25600  0.09930  0.11460  Biso   1.000  H
  H26      1.0000 0.74400  0.90070  0.61460  Biso   1.000  H
  H27      1.0000 0.40070  0.75600  0.36460  Biso   1.000  H
  H28      1.0000 0.59930  0.24400  0.36460  Biso   1.000  H
  H29      1.0000 0.24400  0.59930  0.13540  Biso   1.000  H
  H30      1.0000 0.75600  0.40070  0.13540  Biso   1.000  H
  H31      1.0000 0.09930  0.25600  0.88540  Biso   1.000  H
  H32      1.0000 0.90070  0.74400  0.38540  Biso   1.000  H
  H33      1.0000 0.56680  0.52900  0.25990  Biso   1.000  H
  H34      1.0000 0.43320  0.47100  0.75990  Biso   1.000  H
  H35      1.0000 0.97100  0.06680  0.50990  Biso   1.000  H
  H36      1.0000 0.02900  0.93320  0.50990  Biso   1.000  H
  H37      1.0000 0.93320  0.02900  0.99010  Biso   1.000  H
  H38      1.0000 0.06680  0.97100  0.99010  Biso   1.000  H
  H39      1.0000 0.52900  0.56680  0.74010  Biso   1.000  H
  H40      1.0000 0.47100  0.43320  0.24010  Biso   1.000  H
  O17      1.0000 0.90600  0.90420  0.46670  Biso   1.000  O
  O18      1.0000 0.09400  0.09580  0.46670  Biso   1.000  O
  O19      1.0000 0.09580  0.09400  0.03330  Biso   1.000  O
  O20      1.0000 0.90420  0.90600  0.03330  Biso   1.000  O
  H41      1.0000 0.06680  0.97100  0.49010  Biso   1.000  H
  H42      1.0000 0.93320  0.02900  0.49010  Biso   1.000  H
  H43      1.0000 0.02900  0.93320  0.00990  Biso   1.000  H
  H44      1.0000 0.97100  0.06680  0.00990  Biso   1.000  H
  O21      1.0000 0.76312  0.69870  0.62951  Biso   1.000  O
  O22      1.0000 0.23688  0.30130  0.62951  Biso   1.000  O
  O23      1.0000 0.30130  0.23688  0.87049  Biso   1.000  O
  O24      1.0000 0.69870  0.76312  0.87049  Biso   1.000  O
  N25      1.0000 0.88030  0.64840  0.65786  Biso   1.000  N
  N26      1.0000 0.11970  0.35160  0.65786  Biso   1.000  N
  N27      1.0000 0.35160  0.11970  0.84214  Biso   1.000  N
  N28      1.0000 0.64840  0.88030  0.84214  Biso   1.000  N
  N29      1.0000 0.98080  0.72890  0.68202  Biso   1.000  N
  N30      1.0000 0.01920  0.27110  0.68202  Biso   1.000  N
  N31      1.0000 0.27110  0.01920  0.81798  Biso   1.000  N
  N32      1.0000 0.72890  0.98080  0.81798  Biso   1.000  N
  N33      1.0000 0.08190  0.65100  0.71011  Biso   1.000  N
  N34      1.0000 0.91810  0.34900  0.71011  Biso   1.000  N
  N35      1.0000 0.34900  0.91810  0.78989  Biso   1.000  N
  N36      1.0000 0.65100  0.08190  0.78989  Biso   1.000  N
  C55      1.0000 0.11010  0.39760  0.72578  Biso   1.000  C
  C56      1.0000 0.88990  0.60240  0.72578  Biso   1.000  C
  C57      1.0000 0.60240  0.88990  0.77422  Biso   1.000  C
  C58      1.0000 0.39760  0.11010  0.77422  Biso   1.000  C
  C59      1.0000 0.03980  0.28060  0.71100  Biso   1.000  C
  C60      1.0000 0.96020  0.71940  0.71100  Biso   1.000  C
  C61      1.0000 0.71940  0.96020  0.78900  Biso   1.000  C
  C62      1.0000 0.28060  0.03980  0.78900  Biso   1.000  C
  C63      1.0000 0.90740  0.27950  0.67430  Biso   1.000  C
  C64      1.0000 0.09260  0.72050  0.67430  Biso   1.000  C
  C65      1.0000 0.72050  0.09260  0.82570  Biso   1.000  C
  C66      1.0000 0.27950  0.90740  0.82570  Biso   1.000  C
  C67      1.0000 0.84100  0.39690  0.65376  Biso   1.000  C
  C68      1.0000 0.15900  0.60310  0.65376  Biso   1.000  C
  C69      1.0000 0.60310  0.15900  0.84624  Biso   1.000  C
  C70      1.0000 0.39690  0.84100  0.84624  Biso   1.000  C
  C71      1.0000 0.04350  0.51890  0.70393  Biso   1.000  C
  C72      1.0000 0.95650  0.48110  0.70393  Biso   1.000  C
  C73      1.0000 0.48110  0.95650  0.79607  Biso   1.000  C
  C74      1.0000 0.51890  0.04350  0.79607  Biso   1.000  C
  C75      1.0000 0.91230  0.51590  0.67009  Biso   1.000  C
  C76      1.0000 0.08770  0.48410  0.67009  Biso   1.000  C
  C77      1.0000 0.48410  0.08770  0.82991  Biso   1.000  C
  C78      1.0000 0.51590  0.91230  0.82991  Biso   1.000  C
  H45      1.0000 0.18780  0.39920  0.74880  Biso   1.000  H
  H46      1.0000 0.81220  0.60080  0.74880  Biso   1.000  H
  H47      1.0000 0.60080  0.81220  0.75120  Biso   1.000  H
  H48      1.0000 0.39920  0.18780  0.75120  Biso   1.000  H
  H49      1.0000 0.07860  0.19890  0.72190  Biso   1.000  H
  H50      1.0000 0.92140  0.80110  0.72190  Biso   1.000  H
  H51      1.0000 0.80110  0.92140  0.77810  Biso   1.000  H
  H52      1.0000 0.19890  0.07860  0.77810  Biso   1.000  H
  H53      1.0000 0.86880  0.19480  0.66190  Biso   1.000  H
  H54      1.0000 0.13120  0.80520  0.66190  Biso   1.000  H
  H55      1.0000 0.80520  0.13120  0.83810  Biso   1.000  H
  H56      1.0000 0.19480  0.86880  0.83810  Biso   1.000  H
  H57      1.0000 0.75600  0.40070  0.63540  Biso   1.000  H
  H58      1.0000 0.24400  0.59930  0.63540  Biso   1.000  H
  H59      1.0000 0.59930  0.24400  0.86460  Biso   1.000  H
  H60      1.0000 0.40070  0.75600  0.86460  Biso   1.000  H
  O25      1.0000 0.26312  0.80130  0.62049  Biso   1.000  O
  O26      1.0000 0.19870  0.73688  0.87951  Biso   1.000  O
  N37      1.0000 0.38030  0.85160  0.59214  Biso   1.000  N
  N38      1.0000 0.14840  0.61970  0.90786  Biso   1.000  N
  N39      1.0000 0.48080  0.77110  0.56798  Biso   1.000  N
  N40      1.0000 0.22890  0.51920  0.93202  Biso   1.000  N
  N41      1.0000 0.58190  0.84900  0.53989  Biso   1.000  N
  N42      1.0000 0.15100  0.41810  0.96011  Biso   1.000  N
  C79      1.0000 0.61010  0.10240  0.52422  Biso   1.000  C
  C80      1.0000 0.89760  0.38990  0.97578  Biso   1.000  C
  C81      1.0000 0.53980  0.21940  0.53900  Biso   1.000  C
  C82      1.0000 0.78060  0.46020  0.96100  Biso   1.000  C
  C83      1.0000 0.40740  0.22050  0.57570  Biso   1.000  C
  C84      1.0000 0.77950  0.59260  0.92430  Biso   1.000  C
  C85      1.0000 0.34100  0.10310  0.59624  Biso   1.000  C
  C86      1.0000 0.89690  0.65900  0.90376  Biso   1.000  C
  C87      1.0000 0.54350  0.98110  0.54607  Biso   1.000  C
  C88      1.0000 0.01890  0.45650  0.95393  Biso   1.000  C
  C89      1.0000 0.41230  0.98410  0.57991  Biso   1.000  C
  C90      1.0000 0.01590  0.58770  0.92009  Biso   1.000  C
  H61      1.0000 0.68780  0.10080  0.50120  Biso   1.000  H
  H62      1.0000 0.89920  0.31220  0.99880  Biso   1.000  H
  H63      1.0000 0.57860  0.30110  0.52810  Biso   1.000  H
  H64      1.0000 0.69890  0.42140  0.97190  Biso   1.000  H
  H65      1.0000 0.36880  0.30520  0.58810  Biso   1.000  H
  H66      1.0000 0.69480  0.63120  0.91190  Biso   1.000  H
  H67      1.0000 0.25600  0.09930  0.61460  Biso   1.000  H
  H68      1.0000 0.90070  0.74400  0.88540  Biso   1.000  H
  O27      1.0000 0.80130  0.26312  0.37951  Biso   1.000  O
  O28      1.0000 0.73688  0.19870  0.12049  Biso   1.000  O
  N43      1.0000 0.85160  0.38030  0.40786  Biso   1.000  N
  N44      1.0000 0.61970  0.14840  0.09214  Biso   1.000  N
  N45      1.0000 0.77110  0.48080  0.43202  Biso   1.000  N
  N46      1.0000 0.51920  0.22890  0.06798  Biso   1.000  N
  N47      1.0000 0.84900  0.58190  0.46011  Biso   1.000  N
  N48      1.0000 0.41810  0.15100  0.03989  Biso   1.000  N
  C91      1.0000 0.10240  0.61010  0.47578  Biso   1.000  C
  C92      1.0000 0.38990  0.89760  0.02422  Biso   1.000  C
  C93      1.0000 0.21940  0.53980  0.46100  Biso   1.000  C
  C94      1.0000 0.46020  0.78060  0.03900  Biso   1.000  C
  C95      1.0000 0.22050  0.40740  0.42430  Biso   1.000  C
  C96      1.0000 0.59260  0.77950  0.07570  Biso   1.000  C
  C97      1.0000 0.10310  0.34100  0.40376  Biso   1.000  C
  C98      1.0000 0.65900  0.89690  0.09624  Biso   1.000  C
  C99      1.0000 0.98110  0.54350  0.45393  Biso   1.000  C
  C100     1.0000 0.45650  0.01890  0.04607  Biso   1.000  C
  C101     1.0000 0.98410  0.41230  0.42009  Biso   1.000  C
  C102     1.0000 0.58770  0.01590  0.07991  Biso   1.000  C
  H69      1.0000 0.10080  0.68780  0.49880  Biso   1.000  H
  H70      1.0000 0.31220  0.89920  0.00120  Biso   1.000  H
  H71      1.0000 0.30110  0.57860  0.47190  Biso   1.000  H
  H72      1.0000 0.42140  0.69890  0.02810  Biso   1.000  H
  H73      1.0000 0.30520  0.36880  0.41190  Biso   1.000  H
  H74      1.0000 0.63120  0.69480  0.08810  Biso   1.000  H
  H75      1.0000 0.09930  0.25600  0.38540  Biso   1.000  H
  H76      1.0000 0.74400  0.90070  0.11460  Biso   1.000  H
  Cu7      1.0000 0.24239  0.75761  0.75000  Biso   1.000  Cu
  Cu8      1.0000 0.75761  0.24239  0.25000  Biso   1.000  Cu
  O29      1.0000 0.40600  0.59580  0.78330  Biso   1.000  O
  O30      1.0000 0.40420  0.59400  0.71670  Biso   1.000  O
  O31      1.0000 0.59400  0.40420  0.28330  Biso   1.000  O
  O32      1.0000 0.59580  0.40600  0.21670  Biso   1.000  O
  C103     1.0000 0.49070  0.50930  0.75000  Biso   1.000  C
  C104     1.0000 0.50930  0.49070  0.25000  Biso   1.000  C
