data_image0
_cell_length_a       10.24
_cell_length_b       10.755
_cell_length_c       11.553
_cell_angle_alpha    75.07
_cell_angle_beta     80.79
_cell_angle_gamma    70.77

_symmetry_space_group_name_H-M    "P 1"
_symmetry_int_tables_number       1

loop_
  _symmetry_equiv_pos_as_xyz
  'x, y, z'

loop_
  _atom_site_label
  _atom_site_occupancy
  _atom_site_fract_x
  _atom_site_fract_y
  _atom_site_fract_z
  _atom_site_thermal_displace_type
  _atom_site_B_iso_or_equiv
  _atom_site_type_symbol
  Cu1      1.0000 0.49128  0.56945  0.20455  Biso   1.000  Cu
  Cu2      1.0000 0.50872  0.43055  0.79545  Biso   1.000  Cu
  O1       1.0000 0.46390  0.20660  0.28650  Biso   1.000  O
  O2       1.0000 0.53610  0.79340  0.71350  Biso   1.000  O
  O3       1.0000 0.26730  0.40110  0.20180  Biso   1.000  O
  O4       1.0000 0.73270  0.59890  0.79820  Biso   1.000  O
  H1       1.0000 0.28930  0.46650  0.16030  Biso   1.000  H
  H2       1.0000 0.71070  0.53350  0.83970  Biso   1.000  H
  O5       1.0000 0.41610  0.44010  0.32700  Biso   1.000  O
  O6       1.0000 0.58390  0.55990  0.67300  Biso   1.000  O
  O7       1.0000 0.35790  0.56570  0.86030  Biso   1.000  O
  O8       1.0000 0.64210  0.43430  0.13970  Biso   1.000  O
  O9       1.0000 0.37760  0.78080  0.89850  Biso   1.000  O
  O10      1.0000 0.62240  0.21920  0.10150  Biso   1.000  O
  H3       1.0000 0.42800  0.77040  0.83680  Biso   1.000  H
  H4       1.0000 0.57200  0.22960  0.16320  Biso   1.000  H
  O11      1.0000 0.33740  0.60390  0.07270  Biso   1.000  O
  O12      1.0000 0.66260  0.39610  0.92730  Biso   1.000  O
  N1       1.0000 0.39030  0.71270  0.29740  Biso   1.000  N
  N2       1.0000 0.60970  0.28730  0.70260  Biso   1.000  N
  N3       1.0000 0.57980  0.71420  0.12150  Biso   1.000  N
  N4       1.0000 0.42020  0.28580  0.87850  Biso   1.000  N
  P1       1.0000 0.35970  0.33560  0.30770  Biso   1.000  P
  P2       1.0000 0.64030  0.66440  0.69230  Biso   1.000  P
  P3       1.0000 0.31230  0.66530  0.94220  Biso   1.000  P
  P4       1.0000 0.68770  0.33470  0.05780  Biso   1.000  P
  C1       1.0000 0.24000  0.29060  0.42990  Biso   1.000  C
  C2       1.0000 0.76000  0.70940  0.57010  Biso   1.000  C
  H5       1.0000 0.20650  0.22450  0.41030  Biso   1.000  H
  H6       1.0000 0.79350  0.77550  0.58970  Biso   1.000  H
  H7       1.0000 0.29190  0.24550  0.50010  Biso   1.000  H
  H8       1.0000 0.70810  0.75450  0.49990  Biso   1.000  H
  C3       1.0000 0.11570  0.39870  0.46570  Biso   1.000  C
  C4       1.0000 0.88430  0.60130  0.53430  Biso   1.000  C
  C5       1.0000 0.99340  0.43740  0.41100  Biso   1.000  C
  C6       1.0000 0.00660  0.56260  0.58900  Biso   1.000  C
  C7       1.0000 0.87720  0.53770  0.44510  Biso   1.000  C
  C8       1.0000 0.12280  0.46230  0.55490  Biso   1.000  C
  C9       1.0000 0.74530  0.58150  0.38210  Biso   1.000  C
  C10      1.0000 0.25470  0.41850  0.61790  Biso   1.000  C
  H9       1.0000 0.75730  0.52830  0.32380  Biso   1.000  H
  H10      1.0000 0.24270  0.47170  0.67620  Biso   1.000  H
  H11      1.0000 0.72520  0.67510  0.34240  Biso   1.000  H
  H12      1.0000 0.27480  0.32490  0.65760  Biso   1.000  H
  H13      1.0000 0.66980  0.56880  0.44010  Biso   1.000  H
  H14      1.0000 0.33020  0.43120  0.55990  Biso   1.000  H
  C11      1.0000 0.98150  0.37380  0.31100  Biso   1.000  C
  C12      1.0000 0.01850  0.62620  0.68900  Biso   1.000  C
  H15      1.0000 0.06780  0.30690  0.29670  Biso   1.000  H
  H16      1.0000 0.93220  0.69310  0.70330  Biso   1.000  H
  H17      1.0000 0.96040  0.44230  0.23890  Biso   1.000  H
  H18      1.0000 0.03960  0.55770  0.76110  Biso   1.000  H
  H19      1.0000 0.90880  0.33210  0.33450  Biso   1.000  H
  H20      1.0000 0.09120  0.66790  0.66550  Biso   1.000  H
  C13      1.0000 0.10320  0.99030  0.75140  Biso   1.000  C
  C14      1.0000 0.89680  0.00970  0.24860  Biso   1.000  C
  H21      1.0000 0.14210  0.89850  0.74280  Biso   1.000  H
  H22      1.0000 0.85790  0.10150  0.25720  Biso   1.000  H
  H23      1.0000 0.17350  0.03500  0.72870  Biso   1.000  H
  H24      1.0000 0.82650  0.96500  0.27130  Biso   1.000  H
  H25      1.0000 0.02840  0.03610  0.70050  Biso   1.000  H
  H26      1.0000 0.97160  0.96390  0.29950  Biso   1.000  H
  C15      1.0000 0.04890  0.99230  0.88130  Biso   1.000  C
  C16      1.0000 0.95110  0.00770  0.11870  Biso   1.000  C
  C17      1.0000 0.06240  0.87400  0.96830  Biso   1.000  C
  C18      1.0000 0.93760  0.12600  0.03170  Biso   1.000  C
  C19      1.0000 0.01310  0.88090  0.08640  Biso   1.000  C
  C20      1.0000 0.98690  0.11910  0.91360  Biso   1.000  C
  C21      1.0000 0.02040  0.75180  0.18130  Biso   1.000  C
  C22      1.0000 0.97960  0.24820  0.81870  Biso   1.000  C
  H27      1.0000 0.06470  0.67530  0.14570  Biso   1.000  H
  H28      1.0000 0.93530  0.32470  0.85430  Biso   1.000  H
  H29      1.0000 0.92820  0.75080  0.21350  Biso   1.000  H
  H30      1.0000 0.07180  0.24920  0.78650  Biso   1.000  H
  H31      1.0000 0.07290  0.74770  0.24470  Biso   1.000  H
  H32      1.0000 0.92710  0.25230  0.75530  Biso   1.000  H
  C23      1.0000 0.12700  0.73880  0.93260  Biso   1.000  C
  C24      1.0000 0.87300  0.26120  0.06740  Biso   1.000  C
  H33      1.0000 0.10730  0.74990  0.85050  Biso   1.000  H
  H34      1.0000 0.89270  0.25010  0.14950  Biso   1.000  H
  H35      1.0000 0.08170  0.67530  0.98340  Biso   1.000  H
  H36      1.0000 0.91830  0.32470  0.01660  Biso   1.000  H
  C25      1.0000 0.29650  0.70040  0.38880  Biso   1.000  C
  C26      1.0000 0.70350  0.29960  0.61120  Biso   1.000  C
  H37      1.0000 0.27020  0.62200  0.40930  Biso   1.000  H
  H38      1.0000 0.72980  0.37800  0.59070  Biso   1.000  H
  C27      1.0000 0.23600  0.79620  0.45470  Biso   1.000  C
  C28      1.0000 0.76400  0.20380  0.54530  Biso   1.000  C
  H39      1.0000 0.16250  0.78930  0.51240  Biso   1.000  H
  H40      1.0000 0.83750  0.21070  0.48760  Biso   1.000  H
  C29      1.0000 0.28900  0.90560  0.43180  Biso   1.000  C
  C30      1.0000 0.71100  0.09440  0.56820  Biso   1.000  C
  H41      1.0000 0.25910  0.96660  0.48180  Biso   1.000  H
  H42      1.0000 0.74090  0.03340  0.51820  Biso   1.000  H
  C31      1.0000 0.38540  0.92340  0.33570  Biso   1.000  C
  C32      1.0000 0.61460  0.07660  0.66430  Biso   1.000  C
  H43      1.0000 0.41640  0.99900  0.31540  Biso   1.000  H
  H44      1.0000 0.58360  0.00100  0.68460  Biso   1.000  H
  C33      1.0000 0.43390  0.82120  0.27020  Biso   1.000  C
  C34      1.0000 0.56610  0.17880  0.72980  Biso   1.000  C
  C35      1.0000 0.53830  0.82730  0.16990  Biso   1.000  C
  C36      1.0000 0.46170  0.17270  0.83010  Biso   1.000  C
  C37      1.0000 0.59410  0.92920  0.12320  Biso   1.000  C
  C38      1.0000 0.40590  0.07080  0.87680  Biso   1.000  C
  H45      1.0000 0.56550  0.00460  0.15680  Biso   1.000  H
  H46      1.0000 0.43450  0.99540  0.84320  Biso   1.000  H
  C39      1.0000 0.69100  0.92350  0.02820  Biso   1.000  C
  C40      1.0000 0.30900  0.07650  0.97180  Biso   1.000  C
  H47      1.0000 0.72830  0.99430  0.99630  Biso   1.000  H
  H48      1.0000 0.27170  0.00570  0.00370  Biso   1.000  H
  C41      1.0000 0.73340  0.80940  0.97940  Biso   1.000  C
  C42      1.0000 0.26660  0.19060  0.02060  Biso   1.000  C
  H49      1.0000 0.79810  0.80280  0.91310  Biso   1.000  H
  H50      1.0000 0.20190  0.19720  0.08690  Biso   1.000  H
  C43      1.0000 0.67640  0.70670  0.03250  Biso   1.000  C
  C44      1.0000 0.32360  0.29330  0.96750  Biso   1.000  C
  H51      1.0000 0.70840  0.62790  0.00350  Biso   1.000  H
  H52      1.0000 0.29160  0.37210  0.99650  Biso   1.000  H
