data_image0
_cell_length_a       5.288
_cell_length_b       9.675
_cell_length_c       9.925
_cell_angle_alpha    110.38
_cell_angle_beta     100.48
_cell_angle_gamma    92.37

_symmetry_space_group_name_H-M    "P 1"
_symmetry_int_tables_number       1

loop_
  _symmetry_equiv_pos_as_xyz
  'x, y, z'

loop_
  _atom_site_label
  _atom_site_occupancy
  _atom_site_fract_x
  _atom_site_fract_y
  _atom_site_fract_z
  _atom_site_thermal_displace_type
  _atom_site_B_iso_or_equiv
  _atom_site_type_symbol
  Cu1      1.0000 0.22585  0.00555  0.12777  Biso   1.000  Cu
  Cu2      1.0000 0.77415  0.99445  0.87223  Biso   1.000  Cu
  N1       1.0000 0.36150  0.85624  0.20879  Biso   1.000  N
  N2       1.0000 0.63850  0.14376  0.79121  Biso   1.000  N
  N3       1.0000 0.05704  0.13574  0.02837  Biso   1.000  N
  N4       1.0000 0.94296  0.86426  0.97163  Biso   1.000  N
  N5       1.0000 0.07974  0.26940  0.07836  Biso   1.000  N
  N6       1.0000 0.92026  0.73060  0.92164  Biso   1.000  N
  N7       1.0000 0.10625  0.39475  0.12312  Biso   1.000  N
  N8       1.0000 0.89375  0.60525  0.87688  Biso   1.000  N
  N9       1.0000 0.54724  0.14539  0.20966  Biso   1.000  N
  N10      1.0000 0.45276  0.85461  0.79034  Biso   1.000  N
  N11      1.0000 0.74944  0.11653  0.25986  Biso   1.000  N
  N12      1.0000 0.25056  0.88347  0.74014  Biso   1.000  N
  N13      1.0000 0.95320  0.09417  0.30939  Biso   1.000  N
  N14      1.0000 0.04680  0.90583  0.69061  Biso   1.000  N
  C1       1.0000 0.33595  0.85307  0.33834  Biso   1.000  C
  C2       1.0000 0.66405  0.14693  0.66166  Biso   1.000  C
  C3       1.0000 0.45506  0.75975  0.39928  Biso   1.000  C
  C4       1.0000 0.54494  0.24025  0.60072  Biso   1.000  C
  C5       1.0000 0.60971  0.66160  0.32718  Biso   1.000  C
  C6       1.0000 0.39029  0.33840  0.67282  Biso   1.000  C
  C7       1.0000 0.62930  0.66125  0.19131  Biso   1.000  C
  C8       1.0000 0.37070  0.33875  0.80869  Biso   1.000  C
  C9       1.0000 0.50411  0.75826  0.13422  Biso   1.000  C
  C10      1.0000 0.49589  0.24174  0.86578  Biso   1.000  C
  C11      1.0000 0.74366  0.55813  0.39272  Biso   1.000  C
  C12      1.0000 0.25634  0.44187  0.60728  Biso   1.000  C
  H1       1.0000 0.21617  0.92884  0.39852  Biso   1.000  H
  H2       1.0000 0.78383  0.07116  0.60148  Biso   1.000  H
  H3       1.0000 0.42841  0.76308  0.50566  Biso   1.000  H
  H4       1.0000 0.57159  0.23692  0.49434  Biso   1.000  H
  H5       1.0000 0.74376  0.58411  0.12809  Biso   1.000  H
  H6       1.0000 0.25624  0.41589  0.87191  Biso   1.000  H
  H7       1.0000 0.52149  0.75466  0.02633  Biso   1.000  H
  H8       1.0000 0.47851  0.24534  0.97367  Biso   1.000  H
  H9       1.0000 0.85363  0.49042  0.31807  Biso   1.000  H
  H10      1.0000 0.14637  0.50958  0.68193  Biso   1.000  H
  H11      1.0000 0.60133  0.48760  0.41173  Biso   1.000  H
  H12      1.0000 0.39867  0.51240  0.58827  Biso   1.000  H
  H13      1.0000 0.87253  0.62265  0.49575  Biso   1.000  H
  H14      1.0000 0.12747  0.37735  0.50425  Biso   1.000  H
