data_image0
_cell_length_a       14.717
_cell_length_b       14.717
_cell_length_c       15.169
_cell_angle_alpha    90
_cell_angle_beta     90
_cell_angle_gamma    120

_symmetry_space_group_name_H-M    "P 1"
_symmetry_int_tables_number       1

loop_
  _symmetry_equiv_pos_as_xyz
  'x, y, z'

loop_
  _atom_site_label
  _atom_site_occupancy
  _atom_site_fract_x
  _atom_site_fract_y
  _atom_site_fract_z
  _atom_site_thermal_displace_type
  _atom_site_B_iso_or_equiv
  _atom_site_type_symbol
  Gd1      1.0000 0.66670  0.33330  0.75000  Biso   1.000  Gd
  Gd2      1.0000 0.33330  0.66660  0.75000  Biso   1.000  Gd
  Gd3      1.0000 0.33330  0.66670  0.25000  Biso   1.000  Gd
  Gd4      1.0000 0.66670  0.33340  0.25000  Biso   1.000  Gd
  Cu1      1.0000 0.50000  0.00000  0.00000  Biso   1.000  Cu
  Cu2      1.0000 0.00000  0.50000  0.00000  Biso   1.000  Cu
  Cu3      1.0000 0.50000  0.50000  0.00000  Biso   1.000  Cu
  Cu4      1.0000 0.00000  0.50000  0.50000  Biso   1.000  Cu
  Cu5      1.0000 0.50000  0.00000  0.50000  Biso   1.000  Cu
  Cu6      1.0000 0.50000  0.50000  0.50000  Biso   1.000  Cu
  O1       1.0000 0.80590  0.41894  0.64342  Biso   1.000  O
  O2       1.0000 0.58106  0.38696  0.64342  Biso   1.000  O
  O3       1.0000 0.61304  0.19410  0.64342  Biso   1.000  O
  O4       1.0000 0.41894  0.61304  0.64342  Biso   1.000  O
  O5       1.0000 0.38696  0.80590  0.64342  Biso   1.000  O
  O6       1.0000 0.41894  0.80590  0.85658  Biso   1.000  O
  O7       1.0000 0.38696  0.58106  0.85658  Biso   1.000  O
  O8       1.0000 0.19410  0.61304  0.85658  Biso   1.000  O
  O9       1.0000 0.58106  0.19410  0.85658  Biso   1.000  O
  O10      1.0000 0.61304  0.41894  0.85658  Biso   1.000  O
  O11      1.0000 0.80590  0.38696  0.85658  Biso   1.000  O
  O12      1.0000 0.19410  0.58106  0.64342  Biso   1.000  O
  O13      1.0000 0.19410  0.58106  0.35658  Biso   1.000  O
  O14      1.0000 0.41894  0.61304  0.35658  Biso   1.000  O
  O15      1.0000 0.38696  0.80590  0.35658  Biso   1.000  O
  O16      1.0000 0.58106  0.38696  0.35658  Biso   1.000  O
  O17      1.0000 0.61304  0.19410  0.35658  Biso   1.000  O
  O18      1.0000 0.58106  0.19410  0.14342  Biso   1.000  O
  O19      1.0000 0.61304  0.41894  0.14342  Biso   1.000  O
  O20      1.0000 0.80590  0.38696  0.14342  Biso   1.000  O
  O21      1.0000 0.41894  0.80590  0.14342  Biso   1.000  O
  O22      1.0000 0.38696  0.58106  0.14342  Biso   1.000  O
  O23      1.0000 0.19410  0.61304  0.14342  Biso   1.000  O
  O24      1.0000 0.80590  0.41894  0.35658  Biso   1.000  O
  O25      1.0000 0.94890  0.55860  0.59000  Biso   1.000  O
  O26      1.0000 0.44140  0.39030  0.59000  Biso   1.000  O
  O27      1.0000 0.60970  0.05110  0.59000  Biso   1.000  O
  O28      1.0000 0.55860  0.60970  0.59000  Biso   1.000  O
  O29      1.0000 0.39030  0.94890  0.59000  Biso   1.000  O
  O30      1.0000 0.55860  0.94890  0.91000  Biso   1.000  O
  O31      1.0000 0.39030  0.44140  0.91000  Biso   1.000  O
  O32      1.0000 0.05110  0.60970  0.91000  Biso   1.000  O
  O33      1.0000 0.44140  0.05110  0.91000  Biso   1.000  O
  O34      1.0000 0.60970  0.55860  0.91000  Biso   1.000  O
  O35      1.0000 0.94890  0.39030  0.91000  Biso   1.000  O
  O36      1.0000 0.05110  0.44140  0.59000  Biso   1.000  O
  O37      1.0000 0.05110  0.44140  0.41000  Biso   1.000  O
  O38      1.0000 0.55860  0.60970  0.41000  Biso   1.000  O
  O39      1.0000 0.39030  0.94890  0.41000  Biso   1.000  O
  O40      1.0000 0.44140  0.39030  0.41000  Biso   1.000  O
  O41      1.0000 0.60970  0.05110  0.41000  Biso   1.000  O
  O42      1.0000 0.44140  0.05110  0.09000  Biso   1.000  O
  O43      1.0000 0.60970  0.55860  0.09000  Biso   1.000  O
  O44      1.0000 0.94890  0.39030  0.09000  Biso   1.000  O
  O45      1.0000 0.55860  0.94890  0.09000  Biso   1.000  O
  O46      1.0000 0.39030  0.44140  0.09000  Biso   1.000  O
  O47      1.0000 0.05110  0.60970  0.09000  Biso   1.000  O
  O48      1.0000 0.94890  0.55860  0.41000  Biso   1.000  O
  O49      1.0000 0.23591  0.47180  0.25000  Biso   1.000  O
  O50      1.0000 0.52820  0.76411  0.25000  Biso   1.000  O
  O51      1.0000 0.23589  0.76409  0.25000  Biso   1.000  O
  O52      1.0000 0.47180  0.23589  0.25000  Biso   1.000  O
  O53      1.0000 0.76411  0.23591  0.25000  Biso   1.000  O
  O54      1.0000 0.76411  0.52820  0.25000  Biso   1.000  O
  O55      1.0000 0.76409  0.52820  0.75000  Biso   1.000  O
  O56      1.0000 0.47180  0.23589  0.75000  Biso   1.000  O
  O57      1.0000 0.76411  0.23591  0.75000  Biso   1.000  O
  O58      1.0000 0.52820  0.76411  0.75000  Biso   1.000  O
  O59      1.0000 0.23589  0.76409  0.75000  Biso   1.000  O
  O60      1.0000 0.23589  0.47180  0.75000  Biso   1.000  O
  C1       1.0000 0.87040  0.51510  0.63900  Biso   1.000  C
  C2       1.0000 0.48490  0.35530  0.63900  Biso   1.000  C
  C3       1.0000 0.64470  0.12960  0.63900  Biso   1.000  C
  C4       1.0000 0.51510  0.64470  0.63900  Biso   1.000  C
  C5       1.0000 0.35530  0.87040  0.63900  Biso   1.000  C
  C6       1.0000 0.51510  0.87040  0.86100  Biso   1.000  C
  C7       1.0000 0.35530  0.48490  0.86100  Biso   1.000  C
  C8       1.0000 0.12960  0.64470  0.86100  Biso   1.000  C
  C9       1.0000 0.48490  0.12960  0.86100  Biso   1.000  C
  C10      1.0000 0.64470  0.51510  0.86100  Biso   1.000  C
  C11      1.0000 0.87040  0.35530  0.86100  Biso   1.000  C
  C12      1.0000 0.12960  0.48490  0.63900  Biso   1.000  C
  C13      1.0000 0.12960  0.48490  0.36100  Biso   1.000  C
  C14      1.0000 0.51510  0.64470  0.36100  Biso   1.000  C
  C15      1.0000 0.35530  0.87040  0.36100  Biso   1.000  C
  C16      1.0000 0.48490  0.35530  0.36100  Biso   1.000  C
  C17      1.0000 0.64470  0.12960  0.36100  Biso   1.000  C
  C18      1.0000 0.48490  0.12960  0.13900  Biso   1.000  C
  C19      1.0000 0.64470  0.51510  0.13900  Biso   1.000  C
  C20      1.0000 0.87040  0.35530  0.13900  Biso   1.000  C
  C21      1.0000 0.51510  0.87040  0.13900  Biso   1.000  C
  C22      1.0000 0.35530  0.48490  0.13900  Biso   1.000  C
  C23      1.0000 0.12960  0.64470  0.13900  Biso   1.000  C
  C24      1.0000 0.87040  0.51510  0.36100  Biso   1.000  C
  C25      1.0000 0.14760  0.41230  0.30330  Biso   1.000  C
  C26      1.0000 0.58770  0.73530  0.30330  Biso   1.000  C
  C27      1.0000 0.26470  0.85240  0.30330  Biso   1.000  C
  C28      1.0000 0.41230  0.26470  0.30330  Biso   1.000  C
  C29      1.0000 0.73530  0.14760  0.30330  Biso   1.000  C
  C30      1.0000 0.41230  0.14760  0.19670  Biso   1.000  C
  C31      1.0000 0.73530  0.58770  0.19670  Biso   1.000  C
  C32      1.0000 0.85240  0.26470  0.19670  Biso   1.000  C
  C33      1.0000 0.58770  0.85240  0.19670  Biso   1.000  C
  C34      1.0000 0.26470  0.41230  0.19670  Biso   1.000  C
  C35      1.0000 0.14760  0.73530  0.19670  Biso   1.000  C
  C36      1.0000 0.85240  0.58770  0.30330  Biso   1.000  C
  C37      1.0000 0.85240  0.58770  0.69670  Biso   1.000  C
  C38      1.0000 0.41230  0.26470  0.69670  Biso   1.000  C
  C39      1.0000 0.73530  0.14760  0.69670  Biso   1.000  C
  C40      1.0000 0.58770  0.73530  0.69670  Biso   1.000  C
  C41      1.0000 0.26470  0.85240  0.69670  Biso   1.000  C
  C42      1.0000 0.58770  0.85240  0.80330  Biso   1.000  C
  C43      1.0000 0.26470  0.41230  0.80330  Biso   1.000  C
  C44      1.0000 0.14760  0.73530  0.80330  Biso   1.000  C
  C45      1.0000 0.41230  0.14760  0.80330  Biso   1.000  C
  C46      1.0000 0.73530  0.58770  0.80330  Biso   1.000  C
  C47      1.0000 0.85240  0.26470  0.80330  Biso   1.000  C
  C48      1.0000 0.14760  0.41230  0.69670  Biso   1.000  C
  H1       1.0000 0.20570  0.36450  0.16040  Biso   1.000  H
  H2       1.0000 0.63550  0.84120  0.16040  Biso   1.000  H
  H3       1.0000 0.15880  0.79430  0.16040  Biso   1.000  H
  H4       1.0000 0.36450  0.15880  0.16040  Biso   1.000  H
  H5       1.0000 0.84120  0.20570  0.16040  Biso   1.000  H
  H6       1.0000 0.36450  0.20570  0.33960  Biso   1.000  H
  H7       1.0000 0.84120  0.63550  0.33960  Biso   1.000  H
  H8       1.0000 0.79430  0.15880  0.33960  Biso   1.000  H
  H9       1.0000 0.63550  0.79430  0.33960  Biso   1.000  H
  H10      1.0000 0.15880  0.36450  0.33960  Biso   1.000  H
  H11      1.0000 0.20570  0.84120  0.33960  Biso   1.000  H
  H12      1.0000 0.79430  0.63550  0.16040  Biso   1.000  H
  H13      1.0000 0.79430  0.63550  0.83960  Biso   1.000  H
  H14      1.0000 0.36450  0.15880  0.83960  Biso   1.000  H
  H15      1.0000 0.84120  0.20570  0.83960  Biso   1.000  H
  H16      1.0000 0.63550  0.84120  0.83960  Biso   1.000  H
  H17      1.0000 0.15880  0.79430  0.83960  Biso   1.000  H
  H18      1.0000 0.63550  0.79430  0.66040  Biso   1.000  H
  H19      1.0000 0.15880  0.36450  0.66040  Biso   1.000  H
  H20      1.0000 0.20570  0.84120  0.66040  Biso   1.000  H
  H21      1.0000 0.36450  0.20570  0.66040  Biso   1.000  H
  H22      1.0000 0.84120  0.63550  0.66040  Biso   1.000  H
  H23      1.0000 0.79430  0.15880  0.66040  Biso   1.000  H
  H24      1.0000 0.20570  0.36450  0.83960  Biso   1.000  H
  H25      1.0000 0.28480  0.37120  0.23330  Biso   1.000  H
  H26      1.0000 0.62880  0.91360  0.23330  Biso   1.000  H
  H27      1.0000 0.08640  0.71520  0.23330  Biso   1.000  H
  H28      1.0000 0.37120  0.08640  0.23330  Biso   1.000  H
  H29      1.0000 0.91360  0.28480  0.23330  Biso   1.000  H
  H30      1.0000 0.37120  0.28480  0.26670  Biso   1.000  H
  H31      1.0000 0.91360  0.62880  0.26670  Biso   1.000  H
  H32      1.0000 0.71520  0.08640  0.26670  Biso   1.000  H
  H33      1.0000 0.62880  0.71520  0.26670  Biso   1.000  H
  H34      1.0000 0.08640  0.37120  0.26670  Biso   1.000  H
  H35      1.0000 0.28480  0.91360  0.26670  Biso   1.000  H
  H36      1.0000 0.71520  0.62880  0.23330  Biso   1.000  H
  H37      1.0000 0.71520  0.62880  0.76670  Biso   1.000  H
  H38      1.0000 0.37120  0.08640  0.76670  Biso   1.000  H
  H39      1.0000 0.91360  0.28480  0.76670  Biso   1.000  H
  H40      1.0000 0.62880  0.91360  0.76670  Biso   1.000  H
  H41      1.0000 0.08640  0.71520  0.76670  Biso   1.000  H
  H42      1.0000 0.62880  0.71520  0.73330  Biso   1.000  H
  H43      1.0000 0.08640  0.37120  0.73330  Biso   1.000  H
  H44      1.0000 0.28480  0.91360  0.73330  Biso   1.000  H
  H45      1.0000 0.37120  0.28480  0.73330  Biso   1.000  H
  H46      1.0000 0.91360  0.62880  0.73330  Biso   1.000  H
  H47      1.0000 0.71520  0.08640  0.73330  Biso   1.000  H
  H48      1.0000 0.28480  0.37120  0.76670  Biso   1.000  H
  O61      1.0000 0.84060  0.52040  0.00000  Biso   1.000  O
  O62      1.0000 0.47960  0.32020  0.00000  Biso   1.000  O
  O63      1.0000 0.67980  0.15940  0.00000  Biso   1.000  O
  O64      1.0000 0.52040  0.67980  0.00000  Biso   1.000  O
  O65      1.0000 0.32020  0.84060  0.00000  Biso   1.000  O
  O66      1.0000 0.52040  0.84060  0.50000  Biso   1.000  O
  O67      1.0000 0.32020  0.47960  0.50000  Biso   1.000  O
  O68      1.0000 0.15940  0.67980  0.50000  Biso   1.000  O
  O69      1.0000 0.47960  0.15940  0.50000  Biso   1.000  O
  O70      1.0000 0.67980  0.52040  0.50000  Biso   1.000  O
  O71      1.0000 0.84060  0.32020  0.50000  Biso   1.000  O
  O72      1.0000 0.15940  0.47960  0.00000  Biso   1.000  O
  H49      1.0000 0.81800  0.47200  0.04400  Biso   1.000  H
  H50      1.0000 0.52800  0.34600  0.04400  Biso   1.000  H
  H51      1.0000 0.65400  0.18200  0.04400  Biso   1.000  H
  H52      1.0000 0.47200  0.65400  0.04400  Biso   1.000  H
  H53      1.0000 0.34600  0.81800  0.04400  Biso   1.000  H
  H54      1.0000 0.47200  0.81800  0.45600  Biso   1.000  H
  H55      1.0000 0.34600  0.52800  0.45600  Biso   1.000  H
  H56      1.0000 0.18200  0.65400  0.45600  Biso   1.000  H
  H57      1.0000 0.52800  0.18200  0.45600  Biso   1.000  H
  H58      1.0000 0.65400  0.47200  0.45600  Biso   1.000  H
  H59      1.0000 0.81800  0.34600  0.45600  Biso   1.000  H
  H60      1.0000 0.18200  0.52800  0.04400  Biso   1.000  H
  H61      1.0000 0.18200  0.52800  0.95600  Biso   1.000  H
  H62      1.0000 0.47200  0.65400  0.95600  Biso   1.000  H
  H63      1.0000 0.34600  0.81800  0.95600  Biso   1.000  H
  H64      1.0000 0.52800  0.34600  0.95600  Biso   1.000  H
  H65      1.0000 0.65400  0.18200  0.95600  Biso   1.000  H
  H66      1.0000 0.52800  0.18200  0.54400  Biso   1.000  H
  H67      1.0000 0.65400  0.47200  0.54400  Biso   1.000  H
  H68      1.0000 0.81800  0.34600  0.54400  Biso   1.000  H
  H69      1.0000 0.47200  0.81800  0.54400  Biso   1.000  H
  H70      1.0000 0.34600  0.52800  0.54400  Biso   1.000  H
  H71      1.0000 0.18200  0.65400  0.54400  Biso   1.000  H
  H72      1.0000 0.81800  0.47200  0.95600  Biso   1.000  H
  O73      1.0000 0.27200  0.14900  0.00000  Biso   1.000  O
  O74      1.0000 0.85100  0.12300  0.00000  Biso   1.000  O
  O75      1.0000 0.87700  0.72800  0.00000  Biso   1.000  O
  O76      1.0000 0.14900  0.87700  0.00000  Biso   1.000  O
  O77      1.0000 0.12300  0.27200  0.00000  Biso   1.000  O
  O78      1.0000 0.14900  0.27200  0.50000  Biso   1.000  O
  O79      1.0000 0.12300  0.85100  0.50000  Biso   1.000  O
  O80      1.0000 0.72800  0.87700  0.50000  Biso   1.000  O
  O81      1.0000 0.85100  0.72800  0.50000  Biso   1.000  O
  O82      1.0000 0.87700  0.14900  0.50000  Biso   1.000  O
  O83      1.0000 0.27200  0.12300  0.50000  Biso   1.000  O
  O84      1.0000 0.72800  0.85100  0.00000  Biso   1.000  O
  O85      1.0000 0.13600  0.15600  0.32400  Biso   1.000  O
  O86      1.0000 0.84400  0.98000  0.32400  Biso   1.000  O
  O87      1.0000 0.02000  0.86400  0.32400  Biso   1.000  O
  O88      1.0000 0.15600  0.02000  0.32400  Biso   1.000  O
  O89      1.0000 0.98000  0.13600  0.32400  Biso   1.000  O
  O90      1.0000 0.15600  0.13600  0.17600  Biso   1.000  O
  O91      1.0000 0.98000  0.84400  0.17600  Biso   1.000  O
  O92      1.0000 0.86400  0.02000  0.17600  Biso   1.000  O
  O93      1.0000 0.84400  0.86400  0.17600  Biso   1.000  O
  O94      1.0000 0.02000  0.15600  0.17600  Biso   1.000  O
  O95      1.0000 0.13600  0.98000  0.17600  Biso   1.000  O
  O96      1.0000 0.86400  0.84400  0.32400  Biso   1.000  O
  O97      1.0000 0.86400  0.84400  0.67600  Biso   1.000  O
  O98      1.0000 0.15600  0.02000  0.67600  Biso   1.000  O
  O99      1.0000 0.98000  0.13600  0.67600  Biso   1.000  O
  O100     1.0000 0.84400  0.98000  0.67600  Biso   1.000  O
  O101     1.0000 0.02000  0.86400  0.67600  Biso   1.000  O
  O102     1.0000 0.84400  0.86400  0.82400  Biso   1.000  O
  O103     1.0000 0.02000  0.15600  0.82400  Biso   1.000  O
  O104     1.0000 0.13600  0.98000  0.82400  Biso   1.000  O
  O105     1.0000 0.15600  0.13600  0.82400  Biso   1.000  O
  O106     1.0000 0.98000  0.84400  0.82400  Biso   1.000  O
  O107     1.0000 0.86400  0.02000  0.82400  Biso   1.000  O
  O108     1.0000 0.13600  0.15600  0.67600  Biso   1.000  O
  O109     1.0000 0.25670  0.19690  0.03150  Biso   1.000  O
  O110     1.0000 0.80310  0.05980  0.03150  Biso   1.000  O
  O111     1.0000 0.94020  0.74330  0.03150  Biso   1.000  O
  O112     1.0000 0.19690  0.94020  0.03150  Biso   1.000  O
  O113     1.0000 0.05980  0.25670  0.03150  Biso   1.000  O
  O114     1.0000 0.19690  0.25670  0.46850  Biso   1.000  O
  O115     1.0000 0.05980  0.80310  0.46850  Biso   1.000  O
  O116     1.0000 0.74330  0.94020  0.46850  Biso   1.000  O
  O117     1.0000 0.80310  0.74330  0.46850  Biso   1.000  O
  O118     1.0000 0.94020  0.19690  0.46850  Biso   1.000  O
  O119     1.0000 0.25670  0.05980  0.46850  Biso   1.000  O
  O120     1.0000 0.74330  0.80310  0.03150  Biso   1.000  O
  O121     1.0000 0.74330  0.80310  0.96850  Biso   1.000  O
  O122     1.0000 0.19690  0.94020  0.96850  Biso   1.000  O
  O123     1.0000 0.05980  0.25670  0.96850  Biso   1.000  O
  O124     1.0000 0.80310  0.05980  0.96850  Biso   1.000  O
  O125     1.0000 0.94020  0.74330  0.96850  Biso   1.000  O
  O126     1.0000 0.80310  0.74330  0.53150  Biso   1.000  O
  O127     1.0000 0.94020  0.19690  0.53150  Biso   1.000  O
  O128     1.0000 0.25670  0.05980  0.53150  Biso   1.000  O
  O129     1.0000 0.19690  0.25670  0.53150  Biso   1.000  O
  O130     1.0000 0.05980  0.80310  0.53150  Biso   1.000  O
  O131     1.0000 0.74330  0.94020  0.53150  Biso   1.000  O
  O132     1.0000 0.25670  0.19690  0.96850  Biso   1.000  O
  O133     1.0000 0.20800  0.22400  0.00000  Biso   1.000  O
  O134     1.0000 0.77600  0.98400  0.00000  Biso   1.000  O
  O135     1.0000 0.01600  0.79200  0.00000  Biso   1.000  O
  O136     1.0000 0.22400  0.01600  0.00000  Biso   1.000  O
  O137     1.0000 0.98400  0.20800  0.00000  Biso   1.000  O
  O138     1.0000 0.22400  0.20800  0.50000  Biso   1.000  O
  O139     1.0000 0.98400  0.77600  0.50000  Biso   1.000  O
  O140     1.0000 0.79200  0.01600  0.50000  Biso   1.000  O
  O141     1.0000 0.77600  0.79200  0.50000  Biso   1.000  O
  O142     1.0000 0.01600  0.22400  0.50000  Biso   1.000  O
  O143     1.0000 0.20800  0.98400  0.50000  Biso   1.000  O
  O144     1.0000 0.79200  0.77600  0.00000  Biso   1.000  O
  O145     1.0000 0.15100  0.15100  0.25000  Biso   1.000  O
  O146     1.0000 0.84900  0.00000  0.25000  Biso   1.000  O
  O147     1.0000 1.00000  0.84900  0.25000  Biso   1.000  O
  O148     1.0000 0.15100  0.00000  0.25000  Biso   1.000  O
  O149     1.0000 0.00000  0.15100  0.25000  Biso   1.000  O
  O150     1.0000 0.84900  0.84900  0.25000  Biso   1.000  O
  O151     1.0000 0.84900  0.84900  0.75000  Biso   1.000  O
  O152     1.0000 0.15100  0.00000  0.75000  Biso   1.000  O
  O153     1.0000 0.00000  0.15100  0.75000  Biso   1.000  O
  O154     1.0000 0.84900  0.00000  0.75000  Biso   1.000  O
  O155     1.0000 1.00000  0.84900  0.75000  Biso   1.000  O
  O156     1.0000 0.15100  0.15100  0.75000  Biso   1.000  O
  O157     1.0000 0.15000  0.10100  0.37900  Biso   1.000  O
  O158     1.0000 0.89900  0.04900  0.37900  Biso   1.000  O
  O159     1.0000 0.95100  0.85000  0.37900  Biso   1.000  O
  O160     1.0000 0.10100  0.95100  0.37900  Biso   1.000  O
  O161     1.0000 0.04900  0.15000  0.37900  Biso   1.000  O
  O162     1.0000 0.10100  0.15000  0.12100  Biso   1.000  O
  O163     1.0000 0.04900  0.89900  0.12100  Biso   1.000  O
  O164     1.0000 0.85000  0.95100  0.12100  Biso   1.000  O
  O165     1.0000 0.89900  0.85000  0.12100  Biso   1.000  O
  O166     1.0000 0.95100  0.10100  0.12100  Biso   1.000  O
  O167     1.0000 0.15000  0.04900  0.12100  Biso   1.000  O
  O168     1.0000 0.85000  0.89900  0.37900  Biso   1.000  O
  O169     1.0000 0.85000  0.89900  0.62100  Biso   1.000  O
  O170     1.0000 0.10100  0.95100  0.62100  Biso   1.000  O
  O171     1.0000 0.04900  0.15000  0.62100  Biso   1.000  O
  O172     1.0000 0.89900  0.04900  0.62100  Biso   1.000  O
  O173     1.0000 0.95100  0.85000  0.62100  Biso   1.000  O
  O174     1.0000 0.89900  0.85000  0.87900  Biso   1.000  O
  O175     1.0000 0.95100  0.10100  0.87900  Biso   1.000  O
  O176     1.0000 0.15000  0.04900  0.87900  Biso   1.000  O
  O177     1.0000 0.10100  0.15000  0.87900  Biso   1.000  O
  O178     1.0000 0.04900  0.89900  0.87900  Biso   1.000  O
  O179     1.0000 0.85000  0.95100  0.87900  Biso   1.000  O
  O180     1.0000 0.15000  0.10100  0.62100  Biso   1.000  O
