data_image0
_cell_length_a       14.595
_cell_length_b       14.595
_cell_length_c       15.267
_cell_angle_alpha    90
_cell_angle_beta     90
_cell_angle_gamma    120

_symmetry_space_group_name_H-M    "P 1"
_symmetry_int_tables_number       1

loop_
  _symmetry_equiv_pos_as_xyz
  'x, y, z'

loop_
  _atom_site_label
  _atom_site_occupancy
  _atom_site_fract_x
  _atom_site_fract_y
  _atom_site_fract_z
  _atom_site_thermal_displace_type
  _atom_site_B_iso_or_equiv
  _atom_site_type_symbol
  Y1       1.0000 0.66670  0.33330  0.75000  Biso   1.000  Y
  Y2       1.0000 0.33330  0.66660  0.75000  Biso   1.000  Y
  Y3       1.0000 0.66660  0.33330  0.25000  Biso   1.000  Y
  Y4       1.0000 0.33330  0.66670  0.25000  Biso   1.000  Y
  Cu1      1.0000 0.50000  0.00000  0.00000  Biso   1.000  Cu
  Cu2      1.0000 0.00000  0.50000  0.00000  Biso   1.000  Cu
  Cu3      1.0000 0.50000  0.50000  0.00000  Biso   1.000  Cu
  Cu4      1.0000 0.50000  0.00000  0.50000  Biso   1.000  Cu
  Cu5      1.0000 0.50000  0.50000  0.50000  Biso   1.000  Cu
  Cu6      1.0000 0.00000  0.50000  0.50000  Biso   1.000  Cu
  O1       1.0000 0.80400  0.41630  0.64505  Biso   1.000  O
  O2       1.0000 0.58370  0.38770  0.64505  Biso   1.000  O
  O3       1.0000 0.61230  0.19600  0.64505  Biso   1.000  O
  O4       1.0000 0.41630  0.61230  0.64505  Biso   1.000  O
  O5       1.0000 0.38770  0.80400  0.64505  Biso   1.000  O
  O6       1.0000 0.61230  0.41630  0.14505  Biso   1.000  O
  O7       1.0000 0.80400  0.38770  0.14505  Biso   1.000  O
  O8       1.0000 0.41630  0.80400  0.14505  Biso   1.000  O
  O9       1.0000 0.38770  0.58370  0.14505  Biso   1.000  O
  O10      1.0000 0.19600  0.61230  0.14505  Biso   1.000  O
  O11      1.0000 0.80400  0.41630  0.35495  Biso   1.000  O
  O12      1.0000 0.41630  0.80400  0.85495  Biso   1.000  O
  O13      1.0000 0.19600  0.58370  0.35495  Biso   1.000  O
  O14      1.0000 0.41630  0.61230  0.35495  Biso   1.000  O
  O15      1.0000 0.38770  0.80400  0.35495  Biso   1.000  O
  O16      1.0000 0.58370  0.38770  0.35495  Biso   1.000  O
  O17      1.0000 0.61230  0.19600  0.35495  Biso   1.000  O
  O18      1.0000 0.38770  0.58370  0.85495  Biso   1.000  O
  O19      1.0000 0.19600  0.61230  0.85495  Biso   1.000  O
  O20      1.0000 0.58370  0.19600  0.85495  Biso   1.000  O
  O21      1.0000 0.61230  0.41630  0.85495  Biso   1.000  O
  O22      1.0000 0.80400  0.38770  0.85495  Biso   1.000  O
  O23      1.0000 0.19600  0.58370  0.64505  Biso   1.000  O
  O24      1.0000 0.58370  0.19600  0.14505  Biso   1.000  O
  O25      1.0000 0.94640  0.55690  0.58950  Biso   1.000  O
  O26      1.0000 0.44310  0.38950  0.58950  Biso   1.000  O
  O27      1.0000 0.61050  0.05360  0.58950  Biso   1.000  O
  O28      1.0000 0.55690  0.61050  0.58950  Biso   1.000  O
  O29      1.0000 0.38950  0.94640  0.58950  Biso   1.000  O
  O30      1.0000 0.61050  0.55690  0.08950  Biso   1.000  O
  O31      1.0000 0.94640  0.38950  0.08950  Biso   1.000  O
  O32      1.0000 0.55690  0.94640  0.08950  Biso   1.000  O
  O33      1.0000 0.38950  0.44310  0.08950  Biso   1.000  O
  O34      1.0000 0.05360  0.61050  0.08950  Biso   1.000  O
  O35      1.0000 0.94640  0.55690  0.41050  Biso   1.000  O
  O36      1.0000 0.55690  0.94640  0.91050  Biso   1.000  O
  O37      1.0000 0.05360  0.44310  0.41050  Biso   1.000  O
  O38      1.0000 0.55690  0.61050  0.41050  Biso   1.000  O
  O39      1.0000 0.38950  0.94640  0.41050  Biso   1.000  O
  O40      1.0000 0.44310  0.38950  0.41050  Biso   1.000  O
  O41      1.0000 0.61050  0.05360  0.41050  Biso   1.000  O
  O42      1.0000 0.38950  0.44310  0.91050  Biso   1.000  O
  O43      1.0000 0.05360  0.61050  0.91050  Biso   1.000  O
  O44      1.0000 0.44310  0.05360  0.91050  Biso   1.000  O
  O45      1.0000 0.61050  0.55690  0.91050  Biso   1.000  O
  O46      1.0000 0.94640  0.38950  0.91050  Biso   1.000  O
  O47      1.0000 0.05360  0.44310  0.58950  Biso   1.000  O
  O48      1.0000 0.44310  0.05360  0.08950  Biso   1.000  O
  O49      1.0000 0.23621  0.47240  0.25000  Biso   1.000  O
  O50      1.0000 0.52760  0.76381  0.25000  Biso   1.000  O
  O51      1.0000 0.23619  0.76379  0.25000  Biso   1.000  O
  O52      1.0000 0.47240  0.23619  0.25000  Biso   1.000  O
  O53      1.0000 0.76381  0.23621  0.25000  Biso   1.000  O
  O54      1.0000 0.23619  0.47240  0.75000  Biso   1.000  O
  O55      1.0000 0.23621  0.76381  0.75000  Biso   1.000  O
  O56      1.0000 0.47240  0.23621  0.75000  Biso   1.000  O
  O57      1.0000 0.76381  0.52760  0.75000  Biso   1.000  O
  O58      1.0000 0.76379  0.23619  0.75000  Biso   1.000  O
  O59      1.0000 0.52760  0.76381  0.75000  Biso   1.000  O
  O60      1.0000 0.76381  0.52760  0.25000  Biso   1.000  O
  C1       1.0000 0.86890  0.51370  0.63890  Biso   1.000  C
  C2       1.0000 0.48630  0.35520  0.63890  Biso   1.000  C
  C3       1.0000 0.64480  0.13110  0.63890  Biso   1.000  C
  C4       1.0000 0.51370  0.64480  0.63890  Biso   1.000  C
  C5       1.0000 0.35520  0.86890  0.63890  Biso   1.000  C
  C6       1.0000 0.64480  0.51370  0.13890  Biso   1.000  C
  C7       1.0000 0.86890  0.35520  0.13890  Biso   1.000  C
  C8       1.0000 0.51370  0.86890  0.13890  Biso   1.000  C
  C9       1.0000 0.35520  0.48630  0.13890  Biso   1.000  C
  C10      1.0000 0.13110  0.64480  0.13890  Biso   1.000  C
  C11      1.0000 0.86890  0.51370  0.36110  Biso   1.000  C
  C12      1.0000 0.51370  0.86890  0.86110  Biso   1.000  C
  C13      1.0000 0.13110  0.48630  0.36110  Biso   1.000  C
  C14      1.0000 0.51370  0.64480  0.36110  Biso   1.000  C
  C15      1.0000 0.35520  0.86890  0.36110  Biso   1.000  C
  C16      1.0000 0.48630  0.35520  0.36110  Biso   1.000  C
  C17      1.0000 0.64480  0.13110  0.36110  Biso   1.000  C
  C18      1.0000 0.35520  0.48630  0.86110  Biso   1.000  C
  C19      1.0000 0.13110  0.64480  0.86110  Biso   1.000  C
  C20      1.0000 0.48630  0.13110  0.86110  Biso   1.000  C
  C21      1.0000 0.64480  0.51370  0.86110  Biso   1.000  C
  C22      1.0000 0.86890  0.35520  0.86110  Biso   1.000  C
  C23      1.0000 0.13110  0.48630  0.63890  Biso   1.000  C
  C24      1.0000 0.48630  0.13110  0.13890  Biso   1.000  C
  C25      1.0000 0.14950  0.41300  0.30360  Biso   1.000  C
  C26      1.0000 0.58700  0.73650  0.30360  Biso   1.000  C
  C27      1.0000 0.26350  0.85050  0.30360  Biso   1.000  C
  C28      1.0000 0.41300  0.26350  0.30360  Biso   1.000  C
  C29      1.0000 0.73650  0.14950  0.30360  Biso   1.000  C
  C30      1.0000 0.26350  0.41300  0.80360  Biso   1.000  C
  C31      1.0000 0.14950  0.73650  0.80360  Biso   1.000  C
  C32      1.0000 0.41300  0.14950  0.80360  Biso   1.000  C
  C33      1.0000 0.73650  0.58700  0.80360  Biso   1.000  C
  C34      1.0000 0.85050  0.26350  0.80360  Biso   1.000  C
  C35      1.0000 0.14950  0.41300  0.69640  Biso   1.000  C
  C36      1.0000 0.41300  0.14950  0.19640  Biso   1.000  C
  C37      1.0000 0.85050  0.58700  0.69640  Biso   1.000  C
  C38      1.0000 0.41300  0.26350  0.69640  Biso   1.000  C
  C39      1.0000 0.73650  0.14950  0.69640  Biso   1.000  C
  C40      1.0000 0.58700  0.73650  0.69640  Biso   1.000  C
  C41      1.0000 0.26350  0.85050  0.69640  Biso   1.000  C
  C42      1.0000 0.73650  0.58700  0.19640  Biso   1.000  C
  C43      1.0000 0.85050  0.26350  0.19640  Biso   1.000  C
  C44      1.0000 0.58700  0.85050  0.19640  Biso   1.000  C
  C45      1.0000 0.26350  0.41300  0.19640  Biso   1.000  C
  C46      1.0000 0.14950  0.73650  0.19640  Biso   1.000  C
  C47      1.0000 0.85050  0.58700  0.30360  Biso   1.000  C
  C48      1.0000 0.58700  0.85050  0.80360  Biso   1.000  C
  H1       1.0000 0.20350  0.36580  0.16040  Biso   1.000  H
  H2       1.0000 0.63420  0.83770  0.16040  Biso   1.000  H
  H3       1.0000 0.16230  0.79650  0.16040  Biso   1.000  H
  H4       1.0000 0.36580  0.16230  0.16040  Biso   1.000  H
  H5       1.0000 0.83770  0.20350  0.16040  Biso   1.000  H
  H6       1.0000 0.16230  0.36580  0.66040  Biso   1.000  H
  H7       1.0000 0.20350  0.83770  0.66040  Biso   1.000  H
  H8       1.0000 0.36580  0.20350  0.66040  Biso   1.000  H
  H9       1.0000 0.83770  0.63420  0.66040  Biso   1.000  H
  H10      1.0000 0.79650  0.16230  0.66040  Biso   1.000  H
  H11      1.0000 0.20350  0.36580  0.83960  Biso   1.000  H
  H12      1.0000 0.36580  0.20350  0.33960  Biso   1.000  H
  H13      1.0000 0.79650  0.63420  0.83960  Biso   1.000  H
  H14      1.0000 0.36580  0.16230  0.83960  Biso   1.000  H
  H15      1.0000 0.83770  0.20350  0.83960  Biso   1.000  H
  H16      1.0000 0.63420  0.83770  0.83960  Biso   1.000  H
  H17      1.0000 0.16230  0.79650  0.83960  Biso   1.000  H
  H18      1.0000 0.83770  0.63420  0.33960  Biso   1.000  H
  H19      1.0000 0.79650  0.16230  0.33960  Biso   1.000  H
  H20      1.0000 0.63420  0.79650  0.33960  Biso   1.000  H
  H21      1.0000 0.16230  0.36580  0.33960  Biso   1.000  H
  H22      1.0000 0.20350  0.83770  0.33960  Biso   1.000  H
  H23      1.0000 0.79650  0.63420  0.16040  Biso   1.000  H
  H24      1.0000 0.63420  0.79650  0.66040  Biso   1.000  H
  H25      1.0000 0.28320  0.37050  0.23200  Biso   1.000  H
  H26      1.0000 0.62950  0.91270  0.23200  Biso   1.000  H
  H27      1.0000 0.08730  0.71680  0.23200  Biso   1.000  H
  H28      1.0000 0.37050  0.08730  0.23200  Biso   1.000  H
  H29      1.0000 0.91270  0.28320  0.23200  Biso   1.000  H
  H30      1.0000 0.08730  0.37050  0.73200  Biso   1.000  H
  H31      1.0000 0.28320  0.91270  0.73200  Biso   1.000  H
  H32      1.0000 0.37050  0.28320  0.73200  Biso   1.000  H
  H33      1.0000 0.91270  0.62950  0.73200  Biso   1.000  H
  H34      1.0000 0.71680  0.08730  0.73200  Biso   1.000  H
  H35      1.0000 0.28320  0.37050  0.76800  Biso   1.000  H
  H36      1.0000 0.37050  0.28320  0.26800  Biso   1.000  H
  H37      1.0000 0.71680  0.62950  0.76800  Biso   1.000  H
  H38      1.0000 0.37050  0.08730  0.76800  Biso   1.000  H
  H39      1.0000 0.91270  0.28320  0.76800  Biso   1.000  H
  H40      1.0000 0.62950  0.91270  0.76800  Biso   1.000  H
  H41      1.0000 0.08730  0.71680  0.76800  Biso   1.000  H
  H42      1.0000 0.91270  0.62950  0.26800  Biso   1.000  H
  H43      1.0000 0.71680  0.08730  0.26800  Biso   1.000  H
  H44      1.0000 0.62950  0.71680  0.26800  Biso   1.000  H
  H45      1.0000 0.08730  0.37050  0.26800  Biso   1.000  H
  H46      1.0000 0.28320  0.91270  0.26800  Biso   1.000  H
  H47      1.0000 0.71680  0.62950  0.23200  Biso   1.000  H
  H48      1.0000 0.62950  0.71680  0.73200  Biso   1.000  H
  O61      1.0000 0.83840  0.51840  0.00000  Biso   1.000  O
  O62      1.0000 0.48160  0.32000  0.00000  Biso   1.000  O
  O63      1.0000 0.68000  0.16160  0.00000  Biso   1.000  O
  O64      1.0000 0.51840  0.68000  0.00000  Biso   1.000  O
  O65      1.0000 0.32000  0.83840  0.00000  Biso   1.000  O
  O66      1.0000 0.68000  0.51840  0.50000  Biso   1.000  O
  O67      1.0000 0.83840  0.32000  0.50000  Biso   1.000  O
  O68      1.0000 0.51840  0.83840  0.50000  Biso   1.000  O
  O69      1.0000 0.32000  0.48160  0.50000  Biso   1.000  O
  O70      1.0000 0.16160  0.68000  0.50000  Biso   1.000  O
  O71      1.0000 0.16160  0.48160  0.00000  Biso   1.000  O
  O72      1.0000 0.48160  0.16160  0.50000  Biso   1.000  O
  H49      1.0000 0.81100  0.46400  0.04700  Biso   1.000  H
  H50      1.0000 0.53600  0.34700  0.04700  Biso   1.000  H
  H51      1.0000 0.65300  0.18900  0.04700  Biso   1.000  H
  H52      1.0000 0.46400  0.65300  0.04700  Biso   1.000  H
  H53      1.0000 0.34700  0.81100  0.04700  Biso   1.000  H
  H54      1.0000 0.65300  0.46400  0.54700  Biso   1.000  H
  H55      1.0000 0.81100  0.34700  0.54700  Biso   1.000  H
  H56      1.0000 0.46400  0.81100  0.54700  Biso   1.000  H
  H57      1.0000 0.34700  0.53600  0.54700  Biso   1.000  H
  H58      1.0000 0.18900  0.65300  0.54700  Biso   1.000  H
  H59      1.0000 0.81100  0.46400  0.95300  Biso   1.000  H
  H60      1.0000 0.46400  0.81100  0.45300  Biso   1.000  H
  H61      1.0000 0.18900  0.53600  0.95300  Biso   1.000  H
  H62      1.0000 0.46400  0.65300  0.95300  Biso   1.000  H
  H63      1.0000 0.34700  0.81100  0.95300  Biso   1.000  H
  H64      1.0000 0.53600  0.34700  0.95300  Biso   1.000  H
  H65      1.0000 0.65300  0.18900  0.95300  Biso   1.000  H
  H66      1.0000 0.34700  0.53600  0.45300  Biso   1.000  H
  H67      1.0000 0.18900  0.65300  0.45300  Biso   1.000  H
  H68      1.0000 0.53600  0.18900  0.45300  Biso   1.000  H
  H69      1.0000 0.65300  0.46400  0.45300  Biso   1.000  H
  H70      1.0000 0.81100  0.34700  0.45300  Biso   1.000  H
  H71      1.0000 0.18900  0.53600  0.04700  Biso   1.000  H
  H72      1.0000 0.53600  0.18900  0.54700  Biso   1.000  H
  O73      1.0000 0.86300  0.72300  0.00000  Biso   1.000  O
  O74      1.0000 0.27700  0.14000  0.00000  Biso   1.000  O
  O75      1.0000 0.86000  0.13700  0.00000  Biso   1.000  O
  O76      1.0000 0.72300  0.86000  0.00000  Biso   1.000  O
  O77      1.0000 0.14000  0.86300  0.00000  Biso   1.000  O
  O78      1.0000 0.86000  0.72300  0.50000  Biso   1.000  O
  O79      1.0000 0.86300  0.14000  0.50000  Biso   1.000  O
  O80      1.0000 0.72300  0.86300  0.50000  Biso   1.000  O
  O81      1.0000 0.14000  0.27700  0.50000  Biso   1.000  O
  O82      1.0000 0.13700  0.86000  0.50000  Biso   1.000  O
  O83      1.0000 0.13700  0.27700  0.00000  Biso   1.000  O
  O84      1.0000 0.27700  0.13700  0.50000  Biso   1.000  O
  O85      1.0000 0.97700  0.84200  0.17900  Biso   1.000  O
  O86      1.0000 0.15800  0.13500  0.17900  Biso   1.000  O
  O87      1.0000 0.86500  0.02300  0.17900  Biso   1.000  O
  O88      1.0000 0.84200  0.86500  0.17900  Biso   1.000  O
  O89      1.0000 0.13500  0.97700  0.17900  Biso   1.000  O
  O90      1.0000 0.86500  0.84200  0.67900  Biso   1.000  O
  O91      1.0000 0.97700  0.13500  0.67900  Biso   1.000  O
  O92      1.0000 0.84200  0.97700  0.67900  Biso   1.000  O
  O93      1.0000 0.13500  0.15800  0.67900  Biso   1.000  O
  O94      1.0000 0.02300  0.86500  0.67900  Biso   1.000  O
  O95      1.0000 0.97700  0.84200  0.82100  Biso   1.000  O
  O96      1.0000 0.84200  0.97700  0.32100  Biso   1.000  O
  O97      1.0000 0.02300  0.15800  0.82100  Biso   1.000  O
  O98      1.0000 0.84200  0.86500  0.82100  Biso   1.000  O
  O99      1.0000 0.13500  0.97700  0.82100  Biso   1.000  O
  O100     1.0000 0.15800  0.13500  0.82100  Biso   1.000  O
  O101     1.0000 0.86500  0.02300  0.82100  Biso   1.000  O
  O102     1.0000 0.13500  0.15800  0.32100  Biso   1.000  O
  O103     1.0000 0.02300  0.86500  0.32100  Biso   1.000  O
  O104     1.0000 0.15800  0.02300  0.32100  Biso   1.000  O
  O105     1.0000 0.86500  0.84200  0.32100  Biso   1.000  O
  O106     1.0000 0.97700  0.13500  0.32100  Biso   1.000  O
  O107     1.0000 0.02300  0.15800  0.17900  Biso   1.000  O
  O108     1.0000 0.15800  0.02300  0.67900  Biso   1.000  O
  O109     1.0000 0.94200  0.84800  0.37000  Biso   1.000  O
  O110     1.0000 0.15200  0.09400  0.37000  Biso   1.000  O
  O111     1.0000 0.90600  0.05800  0.37000  Biso   1.000  O
  O112     1.0000 0.84800  0.90600  0.37000  Biso   1.000  O
  O113     1.0000 0.09400  0.94200  0.37000  Biso   1.000  O
  O114     1.0000 0.90600  0.84800  0.87000  Biso   1.000  O
  O115     1.0000 0.94200  0.09400  0.87000  Biso   1.000  O
  O116     1.0000 0.84800  0.94200  0.87000  Biso   1.000  O
  O117     1.0000 0.09400  0.15200  0.87000  Biso   1.000  O
  O118     1.0000 0.05800  0.90600  0.87000  Biso   1.000  O
  O119     1.0000 0.94200  0.84800  0.63000  Biso   1.000  O
  O120     1.0000 0.84800  0.94200  0.13000  Biso   1.000  O
  O121     1.0000 0.05800  0.15200  0.63000  Biso   1.000  O
  O122     1.0000 0.84800  0.90600  0.63000  Biso   1.000  O
  O123     1.0000 0.09400  0.94200  0.63000  Biso   1.000  O
  O124     1.0000 0.15200  0.09400  0.63000  Biso   1.000  O
  O125     1.0000 0.90600  0.05800  0.63000  Biso   1.000  O
  O126     1.0000 0.09400  0.15200  0.13000  Biso   1.000  O
  O127     1.0000 0.05800  0.90600  0.13000  Biso   1.000  O
  O128     1.0000 0.15200  0.05800  0.13000  Biso   1.000  O
  O129     1.0000 0.90600  0.84800  0.13000  Biso   1.000  O
  O130     1.0000 0.94200  0.09400  0.13000  Biso   1.000  O
  O131     1.0000 0.05800  0.15200  0.37000  Biso   1.000  O
  O132     1.0000 0.15200  0.05800  0.87000  Biso   1.000  O
  O133     1.0000 0.95300  0.75700  0.05400  Biso   1.000  O
  O134     1.0000 0.24300  0.19600  0.05400  Biso   1.000  O
  O135     1.0000 0.80400  0.04700  0.05400  Biso   1.000  O
  O136     1.0000 0.75700  0.80400  0.05400  Biso   1.000  O
  O137     1.0000 0.19600  0.95300  0.05400  Biso   1.000  O
  O138     1.0000 0.80400  0.75700  0.55400  Biso   1.000  O
  O139     1.0000 0.95300  0.19600  0.55400  Biso   1.000  O
  O140     1.0000 0.75700  0.95300  0.55400  Biso   1.000  O
  O141     1.0000 0.19600  0.24300  0.55400  Biso   1.000  O
  O142     1.0000 0.04700  0.80400  0.55400  Biso   1.000  O
  O143     1.0000 0.95300  0.75700  0.94600  Biso   1.000  O
  O144     1.0000 0.75700  0.95300  0.44600  Biso   1.000  O
  O145     1.0000 0.04700  0.24300  0.94600  Biso   1.000  O
  O146     1.0000 0.75700  0.80400  0.94600  Biso   1.000  O
  O147     1.0000 0.19600  0.95300  0.94600  Biso   1.000  O
  O148     1.0000 0.24300  0.19600  0.94600  Biso   1.000  O
  O149     1.0000 0.80400  0.04700  0.94600  Biso   1.000  O
  O150     1.0000 0.19600  0.24300  0.44600  Biso   1.000  O
  O151     1.0000 0.04700  0.80400  0.44600  Biso   1.000  O
  O152     1.0000 0.24300  0.04700  0.44600  Biso   1.000  O
  O153     1.0000 0.80400  0.75700  0.44600  Biso   1.000  O
  O154     1.0000 0.95300  0.19600  0.44600  Biso   1.000  O
  O155     1.0000 0.04700  0.24300  0.05400  Biso   1.000  O
  O156     1.0000 0.24300  0.04700  0.55400  Biso   1.000  O
  O157     1.0000 0.02200  0.79200  0.00000  Biso   1.000  O
  O158     1.0000 0.20800  0.23000  0.00000  Biso   1.000  O
  O159     1.0000 0.77000  0.97800  0.00000  Biso   1.000  O
  O160     1.0000 0.79200  0.77000  0.00000  Biso   1.000  O
  O161     1.0000 0.23000  0.02200  0.00000  Biso   1.000  O
  O162     1.0000 0.77000  0.79200  0.50000  Biso   1.000  O
  O163     1.0000 0.02200  0.23000  0.50000  Biso   1.000  O
  O164     1.0000 0.79200  0.02200  0.50000  Biso   1.000  O
  O165     1.0000 0.23000  0.20800  0.50000  Biso   1.000  O
  O166     1.0000 0.97800  0.77000  0.50000  Biso   1.000  O
  O167     1.0000 0.97800  0.20800  0.00000  Biso   1.000  O
  O168     1.0000 0.20800  0.97800  0.50000  Biso   1.000  O
  O169     1.0000 0.91900  0.73400  0.00000  Biso   1.000  O
  O170     1.0000 0.26600  0.18500  0.00000  Biso   1.000  O
  O171     1.0000 0.81500  0.08100  0.00000  Biso   1.000  O
  O172     1.0000 0.73400  0.81500  0.00000  Biso   1.000  O
  O173     1.0000 0.18500  0.91900  0.00000  Biso   1.000  O
  O174     1.0000 0.81500  0.73400  0.50000  Biso   1.000  O
  O175     1.0000 0.91900  0.18500  0.50000  Biso   1.000  O
  O176     1.0000 0.73400  0.91900  0.50000  Biso   1.000  O
  O177     1.0000 0.18500  0.26600  0.50000  Biso   1.000  O
  O178     1.0000 0.08100  0.81500  0.50000  Biso   1.000  O
  O179     1.0000 0.08100  0.26600  0.00000  Biso   1.000  O
  O180     1.0000 0.26600  0.08100  0.50000  Biso   1.000  O
  O181     1.0000 0.00000  0.84500  0.25000  Biso   1.000  O
  O182     1.0000 0.15500  0.15500  0.25000  Biso   1.000  O
  O183     1.0000 0.84500  0.00000  0.25000  Biso   1.000  O
  O184     1.0000 0.84500  0.84500  0.25000  Biso   1.000  O
  O185     1.0000 0.15500  0.00000  0.25000  Biso   1.000  O
  O186     1.0000 0.84500  0.84500  0.75000  Biso   1.000  O
  O187     1.0000 0.00000  0.15500  0.75000  Biso   1.000  O
  O188     1.0000 0.84500  0.00000  0.75000  Biso   1.000  O
  O189     1.0000 0.15500  0.15500  0.75000  Biso   1.000  O
  O190     1.0000 0.00000  0.84500  0.75000  Biso   1.000  O
  O191     1.0000 0.15500  0.00000  0.75000  Biso   1.000  O
  O192     1.0000 0.00000  0.15500  0.25000  Biso   1.000  O
