data_image0
_cell_length_a       15.199
_cell_length_b       15.199
_cell_length_c       14.584
_cell_angle_alpha    90
_cell_angle_beta     90
_cell_angle_gamma    120

_symmetry_space_group_name_H-M    "P 1"
_symmetry_int_tables_number       1

loop_
  _symmetry_equiv_pos_as_xyz
  'x, y, z'

loop_
  _atom_site_label
  _atom_site_occupancy
  _atom_site_fract_x
  _atom_site_fract_y
  _atom_site_fract_z
  _atom_site_thermal_displace_type
  _atom_site_B_iso_or_equiv
  _atom_site_type_symbol
  Pr1      1.0000 0.66670  0.33330  0.75000  Biso   1.000  Pr
  Pr2      1.0000 0.33330  0.66660  0.75000  Biso   1.000  Pr
  Pr3      1.0000 0.66660  0.33330  0.25000  Biso   1.000  Pr
  Pr4      1.0000 0.33330  0.66670  0.25000  Biso   1.000  Pr
  Cu1      1.0000 0.50000  0.00000  0.00000  Biso   1.000  Cu
  Cu2      1.0000 0.00000  0.50000  0.00000  Biso   1.000  Cu
  Cu3      1.0000 0.50000  0.50000  0.00000  Biso   1.000  Cu
  Cu4      1.0000 0.50000  0.00000  0.50000  Biso   1.000  Cu
  Cu5      1.0000 0.50000  0.50000  0.50000  Biso   1.000  Cu
  Cu6      1.0000 0.00000  0.50000  0.50000  Biso   1.000  Cu
  O1       1.0000 0.80800  0.42290  0.64070  Biso   1.000  O
  O2       1.0000 0.57710  0.38510  0.64070  Biso   1.000  O
  O3       1.0000 0.61490  0.19200  0.64070  Biso   1.000  O
  O4       1.0000 0.42290  0.61490  0.64070  Biso   1.000  O
  O5       1.0000 0.38510  0.80800  0.64070  Biso   1.000  O
  O6       1.0000 0.61490  0.42290  0.14070  Biso   1.000  O
  O7       1.0000 0.80800  0.38510  0.14070  Biso   1.000  O
  O8       1.0000 0.42290  0.80800  0.14070  Biso   1.000  O
  O9       1.0000 0.38510  0.57710  0.14070  Biso   1.000  O
  O10      1.0000 0.19200  0.61490  0.14070  Biso   1.000  O
  O11      1.0000 0.80800  0.42290  0.35930  Biso   1.000  O
  O12      1.0000 0.42290  0.80800  0.85930  Biso   1.000  O
  O13      1.0000 0.19200  0.57710  0.35930  Biso   1.000  O
  O14      1.0000 0.42290  0.61490  0.35930  Biso   1.000  O
  O15      1.0000 0.38510  0.80800  0.35930  Biso   1.000  O
  O16      1.0000 0.57710  0.38510  0.35930  Biso   1.000  O
  O17      1.0000 0.61490  0.19200  0.35930  Biso   1.000  O
  O18      1.0000 0.38510  0.57710  0.85930  Biso   1.000  O
  O19      1.0000 0.19200  0.61490  0.85930  Biso   1.000  O
  O20      1.0000 0.57710  0.19200  0.85930  Biso   1.000  O
  O21      1.0000 0.61490  0.42290  0.85930  Biso   1.000  O
  O22      1.0000 0.80800  0.38510  0.85930  Biso   1.000  O
  O23      1.0000 0.19200  0.57710  0.64070  Biso   1.000  O
  O24      1.0000 0.57710  0.19200  0.14070  Biso   1.000  O
  O25      1.0000 0.95170  0.55800  0.59360  Biso   1.000  O
  O26      1.0000 0.44200  0.39370  0.59360  Biso   1.000  O
  O27      1.0000 0.60630  0.04830  0.59360  Biso   1.000  O
  O28      1.0000 0.55800  0.60630  0.59360  Biso   1.000  O
  O29      1.0000 0.39370  0.95170  0.59360  Biso   1.000  O
  O30      1.0000 0.60630  0.55800  0.09360  Biso   1.000  O
  O31      1.0000 0.95170  0.39370  0.09360  Biso   1.000  O
  O32      1.0000 0.55800  0.95170  0.09360  Biso   1.000  O
  O33      1.0000 0.39370  0.44200  0.09360  Biso   1.000  O
  O34      1.0000 0.04830  0.60630  0.09360  Biso   1.000  O
  O35      1.0000 0.95170  0.55800  0.40640  Biso   1.000  O
  O36      1.0000 0.55800  0.95170  0.90640  Biso   1.000  O
  O37      1.0000 0.04830  0.44200  0.40640  Biso   1.000  O
  O38      1.0000 0.55800  0.60630  0.40640  Biso   1.000  O
  O39      1.0000 0.39370  0.95170  0.40640  Biso   1.000  O
  O40      1.0000 0.44200  0.39370  0.40640  Biso   1.000  O
  O41      1.0000 0.60630  0.04830  0.40640  Biso   1.000  O
  O42      1.0000 0.39370  0.44200  0.90640  Biso   1.000  O
  O43      1.0000 0.04830  0.60630  0.90640  Biso   1.000  O
  O44      1.0000 0.44200  0.04830  0.90640  Biso   1.000  O
  O45      1.0000 0.60630  0.55800  0.90640  Biso   1.000  O
  O46      1.0000 0.95170  0.39370  0.90640  Biso   1.000  O
  O47      1.0000 0.04830  0.44200  0.59360  Biso   1.000  O
  O48      1.0000 0.44200  0.04830  0.09360  Biso   1.000  O
  O49      1.0000 0.23619  0.47240  0.25000  Biso   1.000  O
  O50      1.0000 0.52760  0.76379  0.25000  Biso   1.000  O
  O51      1.0000 0.23621  0.76381  0.25000  Biso   1.000  O
  O52      1.0000 0.47240  0.23621  0.25000  Biso   1.000  O
  O53      1.0000 0.76379  0.23619  0.25000  Biso   1.000  O
  O54      1.0000 0.23621  0.47240  0.75000  Biso   1.000  O
  O55      1.0000 0.23619  0.76379  0.75000  Biso   1.000  O
  O56      1.0000 0.47240  0.23619  0.75000  Biso   1.000  O
  O57      1.0000 0.76379  0.52760  0.75000  Biso   1.000  O
  O58      1.0000 0.76381  0.23621  0.75000  Biso   1.000  O
  O59      1.0000 0.52760  0.76379  0.75000  Biso   1.000  O
  O60      1.0000 0.76379  0.52760  0.25000  Biso   1.000  O
  C1       1.0000 0.87250  0.51550  0.64020  Biso   1.000  C
  C2       1.0000 0.48450  0.35700  0.64020  Biso   1.000  C
  C3       1.0000 0.64300  0.12750  0.64020  Biso   1.000  C
  C4       1.0000 0.51550  0.64300  0.64020  Biso   1.000  C
  C5       1.0000 0.35700  0.87250  0.64020  Biso   1.000  C
  C6       1.0000 0.64300  0.51550  0.14020  Biso   1.000  C
  C7       1.0000 0.87250  0.35700  0.14020  Biso   1.000  C
  C8       1.0000 0.51550  0.87250  0.14020  Biso   1.000  C
  C9       1.0000 0.35700  0.48450  0.14020  Biso   1.000  C
  C10      1.0000 0.12750  0.64300  0.14020  Biso   1.000  C
  C11      1.0000 0.87250  0.51550  0.35980  Biso   1.000  C
  C12      1.0000 0.51550  0.87250  0.85980  Biso   1.000  C
  C13      1.0000 0.12750  0.48450  0.35980  Biso   1.000  C
  C14      1.0000 0.51550  0.64300  0.35980  Biso   1.000  C
  C15      1.0000 0.35700  0.87250  0.35980  Biso   1.000  C
  C16      1.0000 0.48450  0.35700  0.35980  Biso   1.000  C
  C17      1.0000 0.64300  0.12750  0.35980  Biso   1.000  C
  C18      1.0000 0.35700  0.48450  0.85980  Biso   1.000  C
  C19      1.0000 0.12750  0.64300  0.85980  Biso   1.000  C
  C20      1.0000 0.48450  0.12750  0.85980  Biso   1.000  C
  C21      1.0000 0.64300  0.51550  0.85980  Biso   1.000  C
  C22      1.0000 0.87250  0.35700  0.85980  Biso   1.000  C
  C23      1.0000 0.12750  0.48450  0.64020  Biso   1.000  C
  C24      1.0000 0.48450  0.12750  0.14020  Biso   1.000  C
  C25      1.0000 0.14560  0.41470  0.29950  Biso   1.000  C
  C26      1.0000 0.58530  0.73090  0.29950  Biso   1.000  C
  C27      1.0000 0.26910  0.85440  0.29950  Biso   1.000  C
  C28      1.0000 0.41470  0.26910  0.29950  Biso   1.000  C
  C29      1.0000 0.73090  0.14560  0.29950  Biso   1.000  C
  C30      1.0000 0.26910  0.41470  0.79950  Biso   1.000  C
  C31      1.0000 0.14560  0.73090  0.79950  Biso   1.000  C
  C32      1.0000 0.41470  0.14560  0.79950  Biso   1.000  C
  C33      1.0000 0.73090  0.58530  0.79950  Biso   1.000  C
  C34      1.0000 0.85440  0.26910  0.79950  Biso   1.000  C
  C35      1.0000 0.14560  0.41470  0.70050  Biso   1.000  C
  C36      1.0000 0.41470  0.14560  0.20050  Biso   1.000  C
  C37      1.0000 0.85440  0.58530  0.70050  Biso   1.000  C
  C38      1.0000 0.41470  0.26910  0.70050  Biso   1.000  C
  C39      1.0000 0.73090  0.14560  0.70050  Biso   1.000  C
  C40      1.0000 0.58530  0.73090  0.70050  Biso   1.000  C
  C41      1.0000 0.26910  0.85440  0.70050  Biso   1.000  C
  C42      1.0000 0.73090  0.58530  0.20050  Biso   1.000  C
  C43      1.0000 0.85440  0.26910  0.20050  Biso   1.000  C
  C44      1.0000 0.58530  0.85440  0.20050  Biso   1.000  C
  C45      1.0000 0.26910  0.41470  0.20050  Biso   1.000  C
  C46      1.0000 0.14560  0.73090  0.20050  Biso   1.000  C
  C47      1.0000 0.85440  0.58530  0.29950  Biso   1.000  C
  C48      1.0000 0.58530  0.85440  0.79950  Biso   1.000  C
  H1       1.0000 0.21390  0.36460  0.16320  Biso   1.000  H
  H2       1.0000 0.63540  0.84930  0.16320  Biso   1.000  H
  H3       1.0000 0.15070  0.78610  0.16320  Biso   1.000  H
  H4       1.0000 0.36460  0.15070  0.16320  Biso   1.000  H
  H5       1.0000 0.84930  0.21390  0.16320  Biso   1.000  H
  H6       1.0000 0.15070  0.36460  0.66320  Biso   1.000  H
  H7       1.0000 0.21390  0.84930  0.66320  Biso   1.000  H
  H8       1.0000 0.36460  0.21390  0.66320  Biso   1.000  H
  H9       1.0000 0.84930  0.63540  0.66320  Biso   1.000  H
  H10      1.0000 0.78610  0.15070  0.66320  Biso   1.000  H
  H11      1.0000 0.21390  0.36460  0.83680  Biso   1.000  H
  H12      1.0000 0.36460  0.21390  0.33680  Biso   1.000  H
  H13      1.0000 0.78610  0.63540  0.83680  Biso   1.000  H
  H14      1.0000 0.36460  0.15070  0.83680  Biso   1.000  H
  H15      1.0000 0.84930  0.21390  0.83680  Biso   1.000  H
  H16      1.0000 0.63540  0.84930  0.83680  Biso   1.000  H
  H17      1.0000 0.15070  0.78610  0.83680  Biso   1.000  H
  H18      1.0000 0.84930  0.63540  0.33680  Biso   1.000  H
  H19      1.0000 0.78610  0.15070  0.33680  Biso   1.000  H
  H20      1.0000 0.63540  0.78610  0.33680  Biso   1.000  H
  H21      1.0000 0.15070  0.36460  0.33680  Biso   1.000  H
  H22      1.0000 0.21390  0.84930  0.33680  Biso   1.000  H
  H23      1.0000 0.78610  0.63540  0.16320  Biso   1.000  H
  H24      1.0000 0.63540  0.78610  0.66320  Biso   1.000  H
  H25      1.0000 0.29000  0.37920  0.24260  Biso   1.000  H
  H26      1.0000 0.62080  0.91080  0.24260  Biso   1.000  H
  H27      1.0000 0.08920  0.71000  0.24260  Biso   1.000  H
  H28      1.0000 0.37920  0.08920  0.24260  Biso   1.000  H
  H29      1.0000 0.91080  0.29000  0.24260  Biso   1.000  H
  H30      1.0000 0.08920  0.37920  0.74260  Biso   1.000  H
  H31      1.0000 0.29000  0.91080  0.74260  Biso   1.000  H
  H32      1.0000 0.37920  0.29000  0.74260  Biso   1.000  H
  H33      1.0000 0.91080  0.62080  0.74260  Biso   1.000  H
  H34      1.0000 0.71000  0.08920  0.74260  Biso   1.000  H
  H35      1.0000 0.29000  0.37920  0.75740  Biso   1.000  H
  H36      1.0000 0.37920  0.29000  0.25740  Biso   1.000  H
  H37      1.0000 0.71000  0.62080  0.75740  Biso   1.000  H
  H38      1.0000 0.37920  0.08920  0.75740  Biso   1.000  H
  H39      1.0000 0.91080  0.29000  0.75740  Biso   1.000  H
  H40      1.0000 0.62080  0.91080  0.75740  Biso   1.000  H
  H41      1.0000 0.08920  0.71000  0.75740  Biso   1.000  H
  H42      1.0000 0.91080  0.62080  0.25740  Biso   1.000  H
  H43      1.0000 0.71000  0.08920  0.25740  Biso   1.000  H
  H44      1.0000 0.62080  0.71000  0.25740  Biso   1.000  H
  H45      1.0000 0.08920  0.37920  0.25740  Biso   1.000  H
  H46      1.0000 0.29000  0.91080  0.25740  Biso   1.000  H
  H47      1.0000 0.71000  0.62080  0.24260  Biso   1.000  H
  H48      1.0000 0.62080  0.71000  0.74260  Biso   1.000  H
  O61      1.0000 0.84470  0.52450  0.00000  Biso   1.000  O
  O62      1.0000 0.47550  0.32020  0.00000  Biso   1.000  O
  O63      1.0000 0.67980  0.15530  0.00000  Biso   1.000  O
  O64      1.0000 0.52450  0.67980  0.00000  Biso   1.000  O
  O65      1.0000 0.32020  0.84470  0.00000  Biso   1.000  O
  O66      1.0000 0.67980  0.52450  0.50000  Biso   1.000  O
  O67      1.0000 0.84470  0.32020  0.50000  Biso   1.000  O
  O68      1.0000 0.52450  0.84470  0.50000  Biso   1.000  O
  O69      1.0000 0.32020  0.47550  0.50000  Biso   1.000  O
  O70      1.0000 0.15530  0.67980  0.50000  Biso   1.000  O
  O71      1.0000 0.15530  0.47550  0.00000  Biso   1.000  O
  O72      1.0000 0.47550  0.15530  0.50000  Biso   1.000  O
  H49      1.0000 0.82100  0.47600  0.04600  Biso   1.000  H
  H50      1.0000 0.52400  0.34500  0.04600  Biso   1.000  H
  H51      1.0000 0.65500  0.17900  0.04600  Biso   1.000  H
  H52      1.0000 0.47600  0.65500  0.04600  Biso   1.000  H
  H53      1.0000 0.34500  0.82100  0.04600  Biso   1.000  H
  H54      1.0000 0.65500  0.47600  0.54600  Biso   1.000  H
  H55      1.0000 0.82100  0.34500  0.54600  Biso   1.000  H
  H56      1.0000 0.47600  0.82100  0.54600  Biso   1.000  H
  H57      1.0000 0.34500  0.52400  0.54600  Biso   1.000  H
  H58      1.0000 0.17900  0.65500  0.54600  Biso   1.000  H
  H59      1.0000 0.82100  0.47600  0.95400  Biso   1.000  H
  H60      1.0000 0.47600  0.82100  0.45400  Biso   1.000  H
  H61      1.0000 0.17900  0.52400  0.95400  Biso   1.000  H
  H62      1.0000 0.47600  0.65500  0.95400  Biso   1.000  H
  H63      1.0000 0.34500  0.82100  0.95400  Biso   1.000  H
  H64      1.0000 0.52400  0.34500  0.95400  Biso   1.000  H
  H65      1.0000 0.65500  0.17900  0.95400  Biso   1.000  H
  H66      1.0000 0.34500  0.52400  0.45400  Biso   1.000  H
  H67      1.0000 0.17900  0.65500  0.45400  Biso   1.000  H
  H68      1.0000 0.52400  0.17900  0.45400  Biso   1.000  H
  H69      1.0000 0.65500  0.47600  0.45400  Biso   1.000  H
  H70      1.0000 0.82100  0.34500  0.45400  Biso   1.000  H
  H71      1.0000 0.17900  0.52400  0.04600  Biso   1.000  H
  H72      1.0000 0.52400  0.17900  0.54600  Biso   1.000  H
  O73      1.0000 0.27500  0.15800  0.00000  Biso   1.000  O
  O74      1.0000 0.84200  0.11700  0.00000  Biso   1.000  O
  O75      1.0000 0.88300  0.72500  0.00000  Biso   1.000  O
  O76      1.0000 0.15800  0.88300  0.00000  Biso   1.000  O
  O77      1.0000 0.11700  0.27500  0.00000  Biso   1.000  O
  O78      1.0000 0.88300  0.15800  0.50000  Biso   1.000  O
  O79      1.0000 0.27500  0.11700  0.50000  Biso   1.000  O
  O80      1.0000 0.15800  0.27500  0.50000  Biso   1.000  O
  O81      1.0000 0.11700  0.84200  0.50000  Biso   1.000  O
  O82      1.0000 0.72500  0.88300  0.50000  Biso   1.000  O
  O83      1.0000 0.72500  0.84200  0.00000  Biso   1.000  O
  O84      1.0000 0.84200  0.72500  0.50000  Biso   1.000  O
  O85      1.0000 0.84400  0.85600  0.28400  Biso   1.000  O
  O86      1.0000 0.14400  0.98800  0.28400  Biso   1.000  O
  O87      1.0000 0.01200  0.15600  0.28400  Biso   1.000  O
  O88      1.0000 0.85600  0.01200  0.28400  Biso   1.000  O
  O89      1.0000 0.98800  0.84400  0.28400  Biso   1.000  O
  O90      1.0000 0.01200  0.85600  0.78400  Biso   1.000  O
  O91      1.0000 0.84400  0.98800  0.78400  Biso   1.000  O
  O92      1.0000 0.85600  0.84400  0.78400  Biso   1.000  O
  O93      1.0000 0.98800  0.14400  0.78400  Biso   1.000  O
  O94      1.0000 0.15600  0.01200  0.78400  Biso   1.000  O
  O95      1.0000 0.84400  0.85600  0.71600  Biso   1.000  O
  O96      1.0000 0.85600  0.84400  0.21600  Biso   1.000  O
  O97      1.0000 0.15600  0.14400  0.71600  Biso   1.000  O
  O98      1.0000 0.85600  0.01200  0.71600  Biso   1.000  O
  O99      1.0000 0.98800  0.84400  0.71600  Biso   1.000  O
  O100     1.0000 0.14400  0.98800  0.71600  Biso   1.000  O
  O101     1.0000 0.01200  0.15600  0.71600  Biso   1.000  O
  O102     1.0000 0.98800  0.14400  0.21600  Biso   1.000  O
  O103     1.0000 0.15600  0.01200  0.21600  Biso   1.000  O
  O104     1.0000 0.14400  0.15600  0.21600  Biso   1.000  O
  O105     1.0000 0.01200  0.85600  0.21600  Biso   1.000  O
  O106     1.0000 0.84400  0.98800  0.21600  Biso   1.000  O
  O107     1.0000 0.15600  0.14400  0.28400  Biso   1.000  O
  O108     1.0000 0.14400  0.15600  0.78400  Biso   1.000  O
  O109     1.0000 0.84000  0.89000  0.38500  Biso   1.000  O
  O110     1.0000 0.11000  0.95000  0.38500  Biso   1.000  O
  O111     1.0000 0.05000  0.16000  0.38500  Biso   1.000  O
  O112     1.0000 0.89000  0.05000  0.38500  Biso   1.000  O
  O113     1.0000 0.95000  0.84000  0.38500  Biso   1.000  O
  O114     1.0000 0.05000  0.89000  0.88500  Biso   1.000  O
  O115     1.0000 0.84000  0.95000  0.88500  Biso   1.000  O
  O116     1.0000 0.89000  0.84000  0.88500  Biso   1.000  O
  O117     1.0000 0.95000  0.11000  0.88500  Biso   1.000  O
  O118     1.0000 0.16000  0.05000  0.88500  Biso   1.000  O
  O119     1.0000 0.84000  0.89000  0.61500  Biso   1.000  O
  O120     1.0000 0.89000  0.84000  0.11500  Biso   1.000  O
  O121     1.0000 0.16000  0.11000  0.61500  Biso   1.000  O
  O122     1.0000 0.89000  0.05000  0.61500  Biso   1.000  O
  O123     1.0000 0.95000  0.84000  0.61500  Biso   1.000  O
  O124     1.0000 0.11000  0.95000  0.61500  Biso   1.000  O
  O125     1.0000 0.05000  0.16000  0.61500  Biso   1.000  O
  O126     1.0000 0.95000  0.11000  0.11500  Biso   1.000  O
  O127     1.0000 0.16000  0.05000  0.11500  Biso   1.000  O
  O128     1.0000 0.11000  0.16000  0.11500  Biso   1.000  O
  O129     1.0000 0.05000  0.89000  0.11500  Biso   1.000  O
  O130     1.0000 0.84000  0.95000  0.11500  Biso   1.000  O
  O131     1.0000 0.16000  0.11000  0.38500  Biso   1.000  O
  O132     1.0000 0.11000  0.16000  0.88500  Biso   1.000  O
  O133     1.0000 0.26000  0.20500  0.96500  Biso   1.000  O
  O134     1.0000 0.79500  0.05500  0.96500  Biso   1.000  O
  O135     1.0000 0.94500  0.74000  0.96500  Biso   1.000  O
  O136     1.0000 0.20500  0.94500  0.96500  Biso   1.000  O
  O137     1.0000 0.05500  0.26000  0.96500  Biso   1.000  O
  O138     1.0000 0.94500  0.20500  0.46500  Biso   1.000  O
  O139     1.0000 0.26000  0.05500  0.46500  Biso   1.000  O
  O140     1.0000 0.20500  0.26000  0.46500  Biso   1.000  O
  O141     1.0000 0.05500  0.79500  0.46500  Biso   1.000  O
  O142     1.0000 0.74000  0.94500  0.46500  Biso   1.000  O
  O143     1.0000 0.26000  0.20500  0.03500  Biso   1.000  O
  O144     1.0000 0.20500  0.26000  0.53500  Biso   1.000  O
  O145     1.0000 0.74000  0.79500  0.03500  Biso   1.000  O
  O146     1.0000 0.20500  0.94500  0.03500  Biso   1.000  O
  O147     1.0000 0.05500  0.26000  0.03500  Biso   1.000  O
  O148     1.0000 0.79500  0.05500  0.03500  Biso   1.000  O
  O149     1.0000 0.94500  0.74000  0.03500  Biso   1.000  O
  O150     1.0000 0.05500  0.79500  0.53500  Biso   1.000  O
  O151     1.0000 0.74000  0.94500  0.53500  Biso   1.000  O
  O152     1.0000 0.79500  0.74000  0.53500  Biso   1.000  O
  O153     1.0000 0.94500  0.20500  0.53500  Biso   1.000  O
  O154     1.0000 0.26000  0.05500  0.53500  Biso   1.000  O
  O155     1.0000 0.74000  0.79500  0.96500  Biso   1.000  O
  O156     1.0000 0.79500  0.74000  0.46500  Biso   1.000  O
  O157     1.0000 0.22300  0.23100  0.00000  Biso   1.000  O
  O158     1.0000 0.76900  0.99200  0.00000  Biso   1.000  O
  O159     1.0000 0.00800  0.77700  0.00000  Biso   1.000  O
  O160     1.0000 0.23100  0.00800  0.00000  Biso   1.000  O
  O161     1.0000 0.99200  0.22300  0.00000  Biso   1.000  O
  O162     1.0000 0.00800  0.23100  0.50000  Biso   1.000  O
  O163     1.0000 0.22300  0.99200  0.50000  Biso   1.000  O
  O164     1.0000 0.23100  0.22300  0.50000  Biso   1.000  O
  O165     1.0000 0.99200  0.76900  0.50000  Biso   1.000  O
  O166     1.0000 0.77700  0.00800  0.50000  Biso   1.000  O
  O167     1.0000 0.77700  0.76900  0.00000  Biso   1.000  O
  O168     1.0000 0.76900  0.77700  0.50000  Biso   1.000  O
  O169     1.0000 0.82800  0.96900  0.32800  Biso   1.000  O
  O170     1.0000 0.03100  0.85900  0.32800  Biso   1.000  O
  O171     1.0000 0.14100  0.17200  0.32800  Biso   1.000  O
  O172     1.0000 0.96900  0.14100  0.32800  Biso   1.000  O
  O173     1.0000 0.85900  0.82800  0.32800  Biso   1.000  O
  O174     1.0000 0.14100  0.96900  0.82800  Biso   1.000  O
  O175     1.0000 0.82800  0.85900  0.82800  Biso   1.000  O
  O176     1.0000 0.96900  0.82800  0.82800  Biso   1.000  O
  O177     1.0000 0.85900  0.03100  0.82800  Biso   1.000  O
  O178     1.0000 0.17200  0.14100  0.82800  Biso   1.000  O
  O179     1.0000 0.82800  0.96900  0.67200  Biso   1.000  O
  O180     1.0000 0.96900  0.82800  0.17200  Biso   1.000  O
  O181     1.0000 0.17200  0.03100  0.67200  Biso   1.000  O
  O182     1.0000 0.96900  0.14100  0.67200  Biso   1.000  O
  O183     1.0000 0.85900  0.82800  0.67200  Biso   1.000  O
  O184     1.0000 0.03100  0.85900  0.67200  Biso   1.000  O
  O185     1.0000 0.14100  0.17200  0.67200  Biso   1.000  O
  O186     1.0000 0.85900  0.03100  0.17200  Biso   1.000  O
  O187     1.0000 0.17200  0.14100  0.17200  Biso   1.000  O
  O188     1.0000 0.03100  0.17200  0.17200  Biso   1.000  O
  O189     1.0000 0.14100  0.96900  0.17200  Biso   1.000  O
  O190     1.0000 0.82800  0.85900  0.17200  Biso   1.000  O
  O191     1.0000 0.17200  0.03100  0.32800  Biso   1.000  O
  O192     1.0000 0.03100  0.17200  0.82800  Biso   1.000  O
  O193     1.0000 0.00000  0.00000  0.50000  Biso   1.000  O
  O194     1.0000 0.00000  0.00000  0.00000  Biso   1.000  O
