data_image0
_cell_length_a       8.4769
_cell_length_b       18.5949
_cell_length_c       22.2123
_cell_angle_alpha    90
_cell_angle_beta     90
_cell_angle_gamma    90

_symmetry_space_group_name_H-M    "P 1"
_symmetry_int_tables_number       1

loop_
  _symmetry_equiv_pos_as_xyz
  'x, y, z'

loop_
  _atom_site_label
  _atom_site_occupancy
  _atom_site_fract_x
  _atom_site_fract_y
  _atom_site_fract_z
  _atom_site_thermal_displace_type
  _atom_site_B_iso_or_equiv
  _atom_site_type_symbol
  C1       1.0000 0.19100  0.54763  0.25121  Biso   1.000  C
  C2       1.0000 0.30900  0.45237  0.75121  Biso   1.000  C
  C3       1.0000 0.69100  0.95237  0.74879  Biso   1.000  C
  C4       1.0000 0.80900  0.04763  0.24879  Biso   1.000  C
  C5       1.0000 0.33400  0.57433  0.23119  Biso   1.000  C
  C6       1.0000 0.16600  0.42567  0.73119  Biso   1.000  C
  C7       1.0000 0.83400  0.92567  0.76881  Biso   1.000  C
  C8       1.0000 0.66600  0.07433  0.26881  Biso   1.000  C
  C9       1.0000 0.43720  0.51493  0.22941  Biso   1.000  C
  C10      1.0000 0.06280  0.48507  0.72941  Biso   1.000  C
  C11      1.0000 0.93720  0.98507  0.77059  Biso   1.000  C
  C12      1.0000 0.56280  0.01493  0.27059  Biso   1.000  C
  C13      1.0000 0.03810  0.58502  0.26297  Biso   1.000  C
  C14      1.0000 0.46190  0.41498  0.76297  Biso   1.000  C
  C15      1.0000 0.53810  0.91498  0.73703  Biso   1.000  C
  C16      1.0000 0.96190  0.08502  0.23703  Biso   1.000  C
  H1       1.0000 0.96090  0.56940  0.23420  Biso   1.000  H
  H2       1.0000 0.53910  0.43060  0.73420  Biso   1.000  H
  H3       1.0000 0.46090  0.93060  0.76580  Biso   1.000  H
  H4       1.0000 0.03910  0.06940  0.26580  Biso   1.000  H
  H5       1.0000 0.05270  0.63600  0.25950  Biso   1.000  H
  H6       1.0000 0.44730  0.36400  0.75950  Biso   1.000  H
  H7       1.0000 0.55270  0.86400  0.74050  Biso   1.000  H
  H8       1.0000 0.94730  0.13600  0.24050  Biso   1.000  H
  H9       1.0000 0.00230  0.57370  0.30290  Biso   1.000  H
  H10      1.0000 0.49770  0.42630  0.80290  Biso   1.000  H
  H11      1.0000 0.50230  0.92630  0.69710  Biso   1.000  H
  H12      1.0000 0.99770  0.07370  0.19710  Biso   1.000  H
  C17      1.0000 0.60600  0.51634  0.21004  Biso   1.000  C
  C18      1.0000 0.89400  0.48366  0.71004  Biso   1.000  C
  C19      1.0000 0.10600  0.98366  0.78996  Biso   1.000  C
  C20      1.0000 0.39400  0.01634  0.28996  Biso   1.000  C
  H13      1.0000 0.67090  0.49670  0.24140  Biso   1.000  H
  H14      1.0000 0.82910  0.50330  0.74140  Biso   1.000  H
  H15      1.0000 0.17090  0.00330  0.75860  Biso   1.000  H
  H16      1.0000 0.32910  0.99670  0.25860  Biso   1.000  H
  H17      1.0000 0.63720  0.56510  0.20210  Biso   1.000  H
  H18      1.0000 0.86280  0.43490  0.70210  Biso   1.000  H
  H19      1.0000 0.13720  0.93490  0.79790  Biso   1.000  H
  H20      1.0000 0.36280  0.06510  0.29790  Biso   1.000  H
  H21      1.0000 0.61820  0.48820  0.17410  Biso   1.000  H
  H22      1.0000 0.88180  0.51180  0.67410  Biso   1.000  H
  H23      1.0000 0.11820  0.01180  0.82590  Biso   1.000  H
  H24      1.0000 0.38180  0.98820  0.32590  Biso   1.000  H
  C21      1.0000 0.30450  0.68611  0.16649  Biso   1.000  C
  C22      1.0000 0.19550  0.31389  0.66649  Biso   1.000  C
  C23      1.0000 0.80450  0.81389  0.83351  Biso   1.000  C
  C24      1.0000 0.69550  0.18611  0.33351  Biso   1.000  C
  C25      1.0000 0.37230  0.64856  0.21394  Biso   1.000  C
  C26      1.0000 0.12770  0.35144  0.71394  Biso   1.000  C
  C27      1.0000 0.87230  0.85144  0.78606  Biso   1.000  C
  C28      1.0000 0.62770  0.14856  0.28606  Biso   1.000  C
  C29      1.0000 0.48070  0.69613  0.24108  Biso   1.000  C
  C30      1.0000 0.01930  0.30387  0.74108  Biso   1.000  C
  C31      1.0000 0.98070  0.80387  0.75892  Biso   1.000  C
  C32      1.0000 0.51930  0.19613  0.25892  Biso   1.000  C
  C33      1.0000 0.19070  0.66305  0.11956  Biso   1.000  C
  C34      1.0000 0.30930  0.33695  0.61956  Biso   1.000  C
  C35      1.0000 0.69070  0.83695  0.88044  Biso   1.000  C
  C36      1.0000 0.80930  0.16305  0.38044  Biso   1.000  C
  H25      1.0000 0.08930  0.68390  0.12770  Biso   1.000  H
  H26      1.0000 0.41070  0.31610  0.62770  Biso   1.000  H
  H27      1.0000 0.58930  0.81610  0.87230  Biso   1.000  H
  H28      1.0000 0.91070  0.18390  0.37230  Biso   1.000  H
  H29      1.0000 0.18210  0.61160  0.11980  Biso   1.000  H
  H30      1.0000 0.31790  0.38840  0.61980  Biso   1.000  H
  H31      1.0000 0.68210  0.88840  0.88020  Biso   1.000  H
  H32      1.0000 0.81790  0.11160  0.38020  Biso   1.000  H
  H33      1.0000 0.22710  0.67870  0.08080  Biso   1.000  H
  H34      1.0000 0.27290  0.32130  0.58080  Biso   1.000  H
  H35      1.0000 0.72710  0.82130  0.91920  Biso   1.000  H
  H36      1.0000 0.77290  0.17870  0.41920  Biso   1.000  H
  C37      1.0000 0.58440  0.68512  0.29434  Biso   1.000  C
  C38      1.0000 0.91560  0.31488  0.79434  Biso   1.000  C
  C39      1.0000 0.08440  0.81488  0.70566  Biso   1.000  C
  C40      1.0000 0.41560  0.18512  0.20566  Biso   1.000  C
  H37      1.0000 0.67900  0.71300  0.28970  Biso   1.000  H
  H38      1.0000 0.82100  0.28700  0.78970  Biso   1.000  H
  H39      1.0000 0.17900  0.78700  0.71030  Biso   1.000  H
  H40      1.0000 0.32100  0.21300  0.21030  Biso   1.000  H
  H41      1.0000 0.61120  0.63510  0.29760  Biso   1.000  H
  H42      1.0000 0.88880  0.36490  0.79760  Biso   1.000  H
  H43      1.0000 0.11120  0.86490  0.70240  Biso   1.000  H
  H44      1.0000 0.38880  0.13510  0.20240  Biso   1.000  H
  H45      1.0000 0.53000  0.70010  0.33010  Biso   1.000  H
  H46      1.0000 0.97000  0.29990  0.83010  Biso   1.000  H
  H47      1.0000 0.03000  0.79990  0.66990  Biso   1.000  H
  H48      1.0000 0.47000  0.20010  0.16990  Biso   1.000  H
  C41      1.0000 0.81020  0.35358  0.14845  Biso   1.000  C
  C42      1.0000 0.68980  0.64642  0.64845  Biso   1.000  C
  C43      1.0000 0.31020  0.14642  0.85155  Biso   1.000  C
  C44      1.0000 0.18980  0.85358  0.35155  Biso   1.000  C
  C45      1.0000 0.69380  0.35297  0.10458  Biso   1.000  C
  C46      1.0000 0.80620  0.64703  0.60458  Biso   1.000  C
  C47      1.0000 0.19380  0.14703  0.89542  Biso   1.000  C
  C48      1.0000 0.30620  0.85297  0.39542  Biso   1.000  C
  C49      1.0000 0.55000  0.35381  0.13659  Biso   1.000  C
  C50      1.0000 0.95000  0.64619  0.63659  Biso   1.000  C
  C51      1.0000 0.05000  0.14619  0.86341  Biso   1.000  C
  C52      1.0000 0.45000  0.85381  0.36341  Biso   1.000  C
  C53      1.0000 0.98620  0.35219  0.14401  Biso   1.000  C
  C54      1.0000 0.51380  0.64781  0.64401  Biso   1.000  C
  C55      1.0000 0.48620  0.14781  0.85599  Biso   1.000  C
  C56      1.0000 0.01380  0.85219  0.35599  Biso   1.000  C
  H49      1.0000 0.03110  0.36310  0.18260  Biso   1.000  H
  H50      1.0000 0.46890  0.63690  0.68260  Biso   1.000  H
  H51      1.0000 0.53110  0.13690  0.81740  Biso   1.000  H
  H52      1.0000 0.96890  0.86310  0.31740  Biso   1.000  H
  H53      1.0000 0.02040  0.38730  0.11510  Biso   1.000  H
  H54      1.0000 0.47960  0.61270  0.61510  Biso   1.000  H
  H55      1.0000 0.52040  0.11270  0.88490  Biso   1.000  H
  H56      1.0000 0.97960  0.88730  0.38490  Biso   1.000  H
  H57      1.0000 0.02010  0.30530  0.13140  Biso   1.000  H
  H58      1.0000 0.47990  0.69470  0.63140  Biso   1.000  H
  H59      1.0000 0.52010  0.19470  0.86860  Biso   1.000  H
  H60      1.0000 0.97990  0.80530  0.36860  Biso   1.000  H
  C57      1.0000 0.38680  0.35501  0.11212  Biso   1.000  C
  C58      1.0000 0.11320  0.64499  0.61212  Biso   1.000  C
  C59      1.0000 0.88680  0.14499  0.88788  Biso   1.000  C
  C60      1.0000 0.61320  0.85501  0.38788  Biso   1.000  C
  H61      1.0000 0.35070  0.30660  0.10610  Biso   1.000  H
  H62      1.0000 0.14930  0.69340  0.60610  Biso   1.000  H
  H63      1.0000 0.85070  0.19340  0.89390  Biso   1.000  H
  H64      1.0000 0.64930  0.80660  0.39390  Biso   1.000  H
  H65      1.0000 0.38600  0.38020  0.07440  Biso   1.000  H
  H66      1.0000 0.11400  0.61980  0.57440  Biso   1.000  H
  H67      1.0000 0.88600  0.11980  0.92560  Biso   1.000  H
  H68      1.0000 0.61400  0.88020  0.42560  Biso   1.000  H
  H69      1.0000 0.31830  0.37910  0.14000  Biso   1.000  H
  H70      1.0000 0.18170  0.62090  0.64000  Biso   1.000  H
  H71      1.0000 0.81830  0.12090  0.86000  Biso   1.000  H
  H72      1.0000 0.68170  0.87910  0.36000  Biso   1.000  H
  C61      1.0000 0.77120  0.40993  0.00450  Biso   1.000  C
  C62      1.0000 0.72880  0.59007  0.50450  Biso   1.000  C
  C63      1.0000 0.27120  0.09007  0.99550  Biso   1.000  C
  C64      1.0000 0.22880  0.90993  0.49550  Biso   1.000  C
  C65      1.0000 0.71190  0.35425  0.03877  Biso   1.000  C
  C66      1.0000 0.78810  0.64575  0.53877  Biso   1.000  C
  C67      1.0000 0.21190  0.14575  0.96123  Biso   1.000  C
  C68      1.0000 0.28810  0.85425  0.46123  Biso   1.000  C
  C69      1.0000 0.66480  0.30164  0.99668  Biso   1.000  C
  C70      1.0000 0.83520  0.69836  0.49668  Biso   1.000  C
  C71      1.0000 0.16480  0.19836  0.00332  Biso   1.000  C
  C72      1.0000 0.33520  0.80164  0.50332  Biso   1.000  C
  C73      1.0000 0.83670  0.48166  0.02243  Biso   1.000  C
  C74      1.0000 0.66330  0.51834  0.52243  Biso   1.000  C
  C75      1.0000 0.33670  0.01834  0.97757  Biso   1.000  C
  C76      1.0000 0.16330  0.98166  0.47757  Biso   1.000  C
  H73      1.0000 0.94780  0.48280  0.01420  Biso   1.000  H
  H74      1.0000 0.55220  0.51720  0.51420  Biso   1.000  H
  H75      1.0000 0.44780  0.01720  0.98580  Biso   1.000  H
  H76      1.0000 0.05220  0.98280  0.48580  Biso   1.000  H
  H77      1.0000 0.81940  0.48920  0.06470  Biso   1.000  H
  H78      1.0000 0.68060  0.51080  0.56470  Biso   1.000  H
  H79      1.0000 0.31940  0.01080  0.93530  Biso   1.000  H
  H80      1.0000 0.18060  0.98920  0.43530  Biso   1.000  H
  H81      1.0000 0.78490  0.51890  0.99990  Biso   1.000  H
  H82      1.0000 0.71510  0.48110  0.49990  Biso   1.000  H
  H83      1.0000 0.28490  0.98110  0.00010  Biso   1.000  H
  H84      1.0000 0.21510  0.01890  0.50010  Biso   1.000  H
  C77      1.0000 0.59500  0.22941  0.01002  Biso   1.000  C
  C78      1.0000 0.90500  0.77059  0.51002  Biso   1.000  C
  C79      1.0000 0.09500  0.27059  0.98998  Biso   1.000  C
  C80      1.0000 0.40500  0.72941  0.48998  Biso   1.000  C
  H85      1.0000 0.48560  0.22930  0.99880  Biso   1.000  H
  H86      1.0000 0.01440  0.77070  0.49880  Biso   1.000  H
  H87      1.0000 0.98560  0.27070  0.00120  Biso   1.000  H
  H88      1.0000 0.51440  0.72930  0.50120  Biso   1.000  H
  H89      1.0000 0.60440  0.21950  0.05230  Biso   1.000  H
  H90      1.0000 0.89560  0.78050  0.55230  Biso   1.000  H
  H91      1.0000 0.10440  0.28050  0.94770  Biso   1.000  H
  H92      1.0000 0.39560  0.71950  0.44770  Biso   1.000  H
  H93      1.0000 0.65010  0.19320  0.98750  Biso   1.000  H
  H94      1.0000 0.84990  0.80680  0.48750  Biso   1.000  H
  H95      1.0000 0.15010  0.30680  0.01250  Biso   1.000  H
  H96      1.0000 0.34990  0.69320  0.51250  Biso   1.000  H
  C81      1.0000 0.57180  0.45432  0.36467  Biso   1.000  C
  C82      1.0000 0.92820  0.54568  0.86467  Biso   1.000  C
  C83      1.0000 0.07180  0.04568  0.63533  Biso   1.000  C
  C84      1.0000 0.42820  0.95432  0.13533  Biso   1.000  C
  C85      1.0000 0.41510  0.47177  0.39411  Biso   1.000  C
  C86      1.0000 0.08490  0.52823  0.89411  Biso   1.000  C
  C87      1.0000 0.91510  0.02823  0.60589  Biso   1.000  C
  C88      1.0000 0.58490  0.97177  0.10589  Biso   1.000  C
  C89      1.0000 0.36430  0.54320  0.39428  Biso   1.000  C
  C90      1.0000 0.13570  0.45680  0.89428  Biso   1.000  C
  C91      1.0000 0.86430  0.95680  0.60572  Biso   1.000  C
  C92      1.0000 0.63570  0.04320  0.10572  Biso   1.000  C
  H97      1.0000 0.43110  0.57900  0.37990  Biso   1.000  H
  H98      1.0000 0.06890  0.42100  0.87990  Biso   1.000  H
  H99      1.0000 0.93110  0.92100  0.62010  Biso   1.000  H
  H100     1.0000 0.56890  0.07900  0.12010  Biso   1.000  H
  C93      1.0000 0.21600  0.56178  0.41547  Biso   1.000  C
  C94      1.0000 0.28400  0.43822  0.91547  Biso   1.000  C
  C95      1.0000 0.71600  0.93822  0.58453  Biso   1.000  C
  C96      1.0000 0.78400  0.06178  0.08453  Biso   1.000  C
  H101     1.0000 0.18330  0.60950  0.41520  Biso   1.000  H
  H102     1.0000 0.31670  0.39050  0.91520  Biso   1.000  H
  H103     1.0000 0.68330  0.89050  0.58480  Biso   1.000  H
  H104     1.0000 0.81670  0.10950  0.08480  Biso   1.000  H
  C97      1.0000 0.11700  0.50829  0.43713  Biso   1.000  C
  C98      1.0000 0.38300  0.49171  0.93713  Biso   1.000  C
  C99      1.0000 0.61700  0.99171  0.56287  Biso   1.000  C
  C100     1.0000 0.88300  0.00829  0.06287  Biso   1.000  C
  H105     1.0000 0.01640  0.52000  0.45060  Biso   1.000  H
  H106     1.0000 0.48360  0.48000  0.95060  Biso   1.000  H
  H107     1.0000 0.51640  0.98000  0.54940  Biso   1.000  H
  H108     1.0000 0.98360  0.02000  0.04940  Biso   1.000  H
  C101     1.0000 0.16750  0.43755  0.43870  Biso   1.000  C
  C102     1.0000 0.33250  0.56245  0.93870  Biso   1.000  C
  C103     1.0000 0.66750  0.06245  0.56130  Biso   1.000  C
  C104     1.0000 0.83250  0.93755  0.06130  Biso   1.000  C
  H109     1.0000 0.10080  0.40240  0.45420  Biso   1.000  H
  H110     1.0000 0.39920  0.59760  0.95420  Biso   1.000  H
  H111     1.0000 0.60080  0.09760  0.54580  Biso   1.000  H
  H112     1.0000 0.89920  0.90240  0.04580  Biso   1.000  H
  C105     1.0000 0.31690  0.41777  0.41743  Biso   1.000  C
  C106     1.0000 0.18310  0.58223  0.91743  Biso   1.000  C
  C107     1.0000 0.81690  0.08223  0.58257  Biso   1.000  C
  C108     1.0000 0.68310  0.91777  0.08257  Biso   1.000  C
  C109     1.0000 0.36240  0.34050  0.42447  Biso   1.000  C
  C110     1.0000 0.13760  0.65950  0.92447  Biso   1.000  C
  C111     1.0000 0.86240  0.15950  0.57553  Biso   1.000  C
  C112     1.0000 0.63760  0.84050  0.07553  Biso   1.000  C
  C113     1.0000 0.47020  0.31941  0.46844  Biso   1.000  C
  C114     1.0000 0.02980  0.68059  0.96844  Biso   1.000  C
  C115     1.0000 0.97020  0.18059  0.53156  Biso   1.000  C
  C116     1.0000 0.52980  0.81941  0.03156  Biso   1.000  C
  H113     1.0000 0.52430  0.35440  0.49010  Biso   1.000  H
  H114     1.0000 0.97570  0.64560  0.99010  Biso   1.000  H
  H115     1.0000 0.02430  0.14560  0.50990  Biso   1.000  H
  H116     1.0000 0.47570  0.85440  0.00990  Biso   1.000  H
  C117     1.0000 0.49850  0.24728  0.48055  Biso   1.000  C
  C118     1.0000 0.00150  0.75272  0.98055  Biso   1.000  C
  C119     1.0000 0.99850  0.25272  0.51945  Biso   1.000  C
  C120     1.0000 0.50150  0.74728  0.01945  Biso   1.000  C
  H117     1.0000 0.57230  0.23430  0.50960  Biso   1.000  H
  H118     1.0000 0.92770  0.76570  0.00960  Biso   1.000  H
  H119     1.0000 0.07230  0.26570  0.49040  Biso   1.000  H
  H120     1.0000 0.42770  0.73430  0.99040  Biso   1.000  H
  C121     1.0000 0.41620  0.19452  0.44917  Biso   1.000  C
  C122     1.0000 0.08380  0.80548  0.94917  Biso   1.000  C
  C123     1.0000 0.91620  0.30548  0.55083  Biso   1.000  C
  C124     1.0000 0.58380  0.69452  0.05083  Biso   1.000  C
  H121     1.0000 0.43280  0.14620  0.45790  Biso   1.000  H
  H122     1.0000 0.06720  0.85380  0.95790  Biso   1.000  H
  H123     1.0000 0.93280  0.35380  0.54210  Biso   1.000  H
  H124     1.0000 0.56720  0.64620  0.04210  Biso   1.000  H
  C125     1.0000 0.30970  0.21411  0.40500  Biso   1.000  C
  C126     1.0000 0.19030  0.78589  0.90500  Biso   1.000  C
  C127     1.0000 0.80970  0.28589  0.59500  Biso   1.000  C
  C128     1.0000 0.69030  0.71411  0.09500  Biso   1.000  C
  H125     1.0000 0.25580  0.17880  0.38360  Biso   1.000  H
  H126     1.0000 0.24420  0.82120  0.88360  Biso   1.000  H
  H127     1.0000 0.75580  0.32120  0.61640  Biso   1.000  H
  H128     1.0000 0.74420  0.67880  0.11640  Biso   1.000  H
  C129     1.0000 0.28240  0.28676  0.39223  Biso   1.000  C
  C130     1.0000 0.21760  0.71324  0.89223  Biso   1.000  C
  C131     1.0000 0.78240  0.21324  0.60777  Biso   1.000  C
  C132     1.0000 0.71760  0.78676  0.10777  Biso   1.000  C
  C133     1.0000 0.16670  0.30689  0.34366  Biso   1.000  C
  C134     1.0000 0.33330  0.69311  0.84366  Biso   1.000  C
  C135     1.0000 0.66670  0.19311  0.65634  Biso   1.000  C
  C136     1.0000 0.83330  0.80689  0.15634  Biso   1.000  C
  N1       1.0000 0.36060  0.45569  0.24779  Biso   1.000  N
  N2       1.0000 0.13940  0.54431  0.74779  Biso   1.000  N
  N3       1.0000 0.86060  0.04431  0.75221  Biso   1.000  N
  N4       1.0000 0.63940  0.95569  0.25221  Biso   1.000  N
  N5       1.0000 0.21100  0.47715  0.26041  Biso   1.000  N
  N6       1.0000 0.28900  0.52285  0.76041  Biso   1.000  N
  N7       1.0000 0.71100  0.02285  0.73959  Biso   1.000  N
  N8       1.0000 0.78900  0.97715  0.23959  Biso   1.000  N
  N9       1.0000 0.47670  0.75916  0.21217  Biso   1.000  N
  N10      1.0000 0.02330  0.24084  0.71217  Biso   1.000  N
  N11      1.0000 0.97670  0.74084  0.78783  Biso   1.000  N
  N12      1.0000 0.52330  0.25916  0.28783  Biso   1.000  N
  N13      1.0000 0.36890  0.75221  0.16779  Biso   1.000  N
  N14      1.0000 0.13110  0.24779  0.66779  Biso   1.000  N
  N15      1.0000 0.86890  0.74779  0.83221  Biso   1.000  N
  N16      1.0000 0.63110  0.25221  0.33221  Biso   1.000  N
  N17      1.0000 0.57820  0.35532  0.19579  Biso   1.000  N
  N18      1.0000 0.92180  0.64468  0.69579  Biso   1.000  N
  N19      1.0000 0.07820  0.14468  0.80421  Biso   1.000  N
  N20      1.0000 0.42180  0.85532  0.30421  Biso   1.000  N
  N21      1.0000 0.73830  0.35361  0.20199  Biso   1.000  N
  N22      1.0000 0.76170  0.64639  0.70199  Biso   1.000  N
  N23      1.0000 0.23830  0.14639  0.79801  Biso   1.000  N
  N24      1.0000 0.26170  0.85361  0.29801  Biso   1.000  N
  N25      1.0000 0.69410  0.32247  0.94027  Biso   1.000  N
  N26      1.0000 0.80590  0.67753  0.44027  Biso   1.000  N
  N27      1.0000 0.19410  0.17753  0.05973  Biso   1.000  N
  N28      1.0000 0.30590  0.82247  0.55973  Biso   1.000  N
  N29      1.0000 0.75990  0.38889  0.94665  Biso   1.000  N
  N30      1.0000 0.74010  0.61111  0.44665  Biso   1.000  N
  N31      1.0000 0.25990  0.11111  0.05335  Biso   1.000  N
  N32      1.0000 0.24010  0.88889  0.55335  Biso   1.000  N
  O1       1.0000 0.58477  0.39328  0.33989  Biso   1.000  O
  O2       1.0000 0.91523  0.60672  0.83989  Biso   1.000  O
  O3       1.0000 0.08477  0.10672  0.66011  Biso   1.000  O
  O4       1.0000 0.41523  0.89328  0.16011  Biso   1.000  O
  O5       1.0000 0.67830  0.50074  0.36419  Biso   1.000  O
  O6       1.0000 0.82170  0.49926  0.86419  Biso   1.000  O
  O7       1.0000 0.17830  0.99926  0.63581  Biso   1.000  O
  O8       1.0000 0.32170  0.00074  0.13581  Biso   1.000  O
  O9       1.0000 0.22013  0.33616  0.29591  Biso   1.000  O
  O10      1.0000 0.27987  0.66384  0.79591  Biso   1.000  O
  O11      1.0000 0.72013  0.16384  0.70409  Biso   1.000  O
  O12      1.0000 0.77987  0.83616  0.20409  Biso   1.000  O
  O13      1.0000 0.02430  0.29602  0.35307  Biso   1.000  O
  O14      1.0000 0.47570  0.70398  0.85307  Biso   1.000  O
  O15      1.0000 0.52430  0.20398  0.64693  Biso   1.000  O
  O16      1.0000 0.97570  0.79602  0.14693  Biso   1.000  O
  Cu1      1.0000 0.43449  0.35557  0.26675  Biso   1.000  Cu
  Cu2      1.0000 0.06551  0.64443  0.76675  Biso   1.000  Cu
  Cu3      1.0000 0.93449  0.14443  0.73325  Biso   1.000  Cu
  Cu4      1.0000 0.56551  0.85557  0.23325  Biso   1.000  Cu
  H129     1.0000 0.14900  0.44890  0.27360  Biso   1.000  H
  H130     1.0000 0.35100  0.55110  0.77360  Biso   1.000  H
  H131     1.0000 0.64900  0.05110  0.72640  Biso   1.000  H
  H132     1.0000 0.85100  0.94890  0.22640  Biso   1.000  H
  H133     1.0000 0.35200  0.78610  0.14580  Biso   1.000  H
  H134     1.0000 0.14800  0.21390  0.64580  Biso   1.000  H
  H135     1.0000 0.85200  0.71390  0.85420  Biso   1.000  H
  H136     1.0000 0.64800  0.28610  0.35420  Biso   1.000  H
  H137     1.0000 0.77900  0.36320  0.23390  Biso   1.000  H
  H138     1.0000 0.72100  0.63680  0.73390  Biso   1.000  H
  H139     1.0000 0.27900  0.13680  0.76610  Biso   1.000  H
  H140     1.0000 0.22100  0.86320  0.26610  Biso   1.000  H
  H141     1.0000 0.77900  0.41280  0.91710  Biso   1.000  H
  H142     1.0000 0.72100  0.58720  0.41710  Biso   1.000  H
  H143     1.0000 0.27900  0.08720  0.08290  Biso   1.000  H
  H144     1.0000 0.22100  0.91280  0.58290  Biso   1.000  H
  O17      1.0000 0.91280  0.41532  0.29709  Biso   1.000  O
  O18      1.0000 0.58720  0.58468  0.79709  Biso   1.000  O
  O19      1.0000 0.41280  0.08468  0.70291  Biso   1.000  O
  O20      1.0000 0.08720  0.91532  0.20291  Biso   1.000  O
  H145     1.0000 0.93200  0.37770  0.31660  Biso   1.000  H
  H146     1.0000 0.56800  0.62230  0.81660  Biso   1.000  H
  H147     1.0000 0.43200  0.12230  0.68340  Biso   1.000  H
  H148     1.0000 0.06800  0.87770  0.18340  Biso   1.000  H
  H149     1.0000 0.85600  0.44050  0.32090  Biso   1.000  H
  H150     1.0000 0.64400  0.55950  0.82090  Biso   1.000  H
  H151     1.0000 0.35600  0.05950  0.67910  Biso   1.000  H
  H152     1.0000 0.14400  0.94050  0.17910  Biso   1.000  H
