data_image0
_cell_length_a       10.2372
_cell_length_b       18.9029
_cell_length_c       25.5159
_cell_angle_alpha    90
_cell_angle_beta     90
_cell_angle_gamma    90

_symmetry_space_group_name_H-M    "P 1"
_symmetry_int_tables_number       1

loop_
  _symmetry_equiv_pos_as_xyz
  'x, y, z'

loop_
  _atom_site_label
  _atom_site_occupancy
  _atom_site_fract_x
  _atom_site_fract_y
  _atom_site_fract_z
  _atom_site_thermal_displace_type
  _atom_site_B_iso_or_equiv
  _atom_site_type_symbol
  H1       1.0000 0.89200  0.33150  0.45740  Biso   1.000  H
  H2       1.0000 0.60800  0.66850  0.95740  Biso   1.000  H
  H3       1.0000 0.10800  0.83150  0.04260  Biso   1.000  H
  H4       1.0000 0.39200  0.16850  0.54260  Biso   1.000  H
  H5       1.0000 0.10800  0.66850  0.54260  Biso   1.000  H
  H6       1.0000 0.39200  0.33150  0.04260  Biso   1.000  H
  H7       1.0000 0.89200  0.16850  0.95740  Biso   1.000  H
  H8       1.0000 0.60800  0.83150  0.45740  Biso   1.000  H
  H9       1.0000 0.28600  0.28830  0.39990  Biso   1.000  H
  H10      1.0000 0.21400  0.71170  0.89990  Biso   1.000  H
  H11      1.0000 0.71400  0.78830  0.10010  Biso   1.000  H
  H12      1.0000 0.78600  0.21170  0.60010  Biso   1.000  H
  H13      1.0000 0.71400  0.71170  0.60010  Biso   1.000  H
  H14      1.0000 0.78600  0.28830  0.10010  Biso   1.000  H
  H15      1.0000 0.28600  0.21170  0.89990  Biso   1.000  H
  H16      1.0000 0.21400  0.78830  0.39990  Biso   1.000  H
  C1       1.0000 0.12570  0.13041  0.60337  Biso   1.000  C
  C2       1.0000 0.37430  0.86959  0.10337  Biso   1.000  C
  C3       1.0000 0.87430  0.63041  0.89663  Biso   1.000  C
  C4       1.0000 0.62570  0.36959  0.39663  Biso   1.000  C
  C5       1.0000 0.87430  0.86959  0.39663  Biso   1.000  C
  C6       1.0000 0.62570  0.13041  0.89663  Biso   1.000  C
  C7       1.0000 0.12570  0.36959  0.10337  Biso   1.000  C
  C8       1.0000 0.37430  0.63041  0.60337  Biso   1.000  C
  H17      1.0000 0.10130  0.17630  0.61490  Biso   1.000  H
  H18      1.0000 0.39870  0.82370  0.11490  Biso   1.000  H
  H19      1.0000 0.89870  0.67630  0.88510  Biso   1.000  H
  H20      1.0000 0.60130  0.32370  0.38510  Biso   1.000  H
  H21      1.0000 0.89870  0.82370  0.38510  Biso   1.000  H
  H22      1.0000 0.60130  0.17630  0.88510  Biso   1.000  H
  H23      1.0000 0.10130  0.32370  0.11490  Biso   1.000  H
  H24      1.0000 0.39870  0.67630  0.61490  Biso   1.000  H
  C9       1.0000 0.16650  0.08070  0.64060  Biso   1.000  C
  C10      1.0000 0.33350  0.91930  0.14060  Biso   1.000  C
  C11      1.0000 0.83350  0.58070  0.85940  Biso   1.000  C
  C12      1.0000 0.66650  0.41930  0.35940  Biso   1.000  C
  C13      1.0000 0.83350  0.91930  0.35940  Biso   1.000  C
  C14      1.0000 0.66650  0.08070  0.85940  Biso   1.000  C
  C15      1.0000 0.16650  0.41930  0.14060  Biso   1.000  C
  C16      1.0000 0.33350  0.58070  0.64060  Biso   1.000  C
  H25      1.0000 0.17020  0.09320  0.67660  Biso   1.000  H
  H26      1.0000 0.32980  0.90680  0.17660  Biso   1.000  H
  H27      1.0000 0.82980  0.59320  0.82340  Biso   1.000  H
  H28      1.0000 0.67020  0.40680  0.32340  Biso   1.000  H
  H29      1.0000 0.82980  0.90680  0.32340  Biso   1.000  H
  H30      1.0000 0.67020  0.09320  0.82340  Biso   1.000  H
  H31      1.0000 0.17020  0.40680  0.17660  Biso   1.000  H
  H32      1.0000 0.32980  0.59320  0.67660  Biso   1.000  H
  C17      1.0000 0.20090  0.01438  0.62490  Biso   1.000  C
  C18      1.0000 0.29910  0.98562  0.12490  Biso   1.000  C
  C19      1.0000 0.79910  0.51438  0.87510  Biso   1.000  C
  C20      1.0000 0.70090  0.48562  0.37510  Biso   1.000  C
  C21      1.0000 0.79910  0.98562  0.37510  Biso   1.000  C
  C22      1.0000 0.70090  0.01438  0.87510  Biso   1.000  C
  C23      1.0000 0.20090  0.48562  0.12490  Biso   1.000  C
  C24      1.0000 0.29910  0.51438  0.62490  Biso   1.000  C
  H33      1.0000 0.22860  0.98040  0.64990  Biso   1.000  H
  H34      1.0000 0.27140  0.01960  0.14990  Biso   1.000  H
  H35      1.0000 0.77140  0.48040  0.85010  Biso   1.000  H
  H36      1.0000 0.72860  0.51960  0.35010  Biso   1.000  H
  H37      1.0000 0.77140  0.01960  0.35010  Biso   1.000  H
  H38      1.0000 0.72860  0.98040  0.85010  Biso   1.000  H
  H39      1.0000 0.22860  0.51960  0.14990  Biso   1.000  H
  H40      1.0000 0.27140  0.48040  0.64990  Biso   1.000  H
  C25      1.0000 0.19510  0.99660  0.57168  Biso   1.000  C
  C26      1.0000 0.30490  0.00340  0.07168  Biso   1.000  C
  C27      1.0000 0.80490  0.49660  0.92832  Biso   1.000  C
  C28      1.0000 0.69510  0.50340  0.42832  Biso   1.000  C
  C29      1.0000 0.80490  0.00340  0.42832  Biso   1.000  C
  C30      1.0000 0.69510  0.99660  0.92832  Biso   1.000  C
  C31      1.0000 0.19510  0.50340  0.07168  Biso   1.000  C
  C32      1.0000 0.30490  0.49660  0.57168  Biso   1.000  C
  C33      1.0000 0.22930  0.92884  0.55001  Biso   1.000  C
  C34      1.0000 0.27070  0.07116  0.05001  Biso   1.000  C
  C35      1.0000 0.77070  0.42884  0.94999  Biso   1.000  C
  C36      1.0000 0.72930  0.57116  0.44999  Biso   1.000  C
  C37      1.0000 0.77070  0.07116  0.44999  Biso   1.000  C
  C38      1.0000 0.72930  0.92884  0.94999  Biso   1.000  C
  C39      1.0000 0.22930  0.57116  0.05001  Biso   1.000  C
  C40      1.0000 0.27070  0.42884  0.55001  Biso   1.000  C
  H41      1.0000 0.25700  0.89220  0.57290  Biso   1.000  H
  H42      1.0000 0.24300  0.10780  0.07290  Biso   1.000  H
  H43      1.0000 0.74300  0.39220  0.92710  Biso   1.000  H
  H44      1.0000 0.75700  0.60780  0.42710  Biso   1.000  H
  H45      1.0000 0.74300  0.10780  0.42710  Biso   1.000  H
  H46      1.0000 0.75700  0.89220  0.92710  Biso   1.000  H
  H47      1.0000 0.25700  0.60780  0.07290  Biso   1.000  H
  H48      1.0000 0.24300  0.39220  0.57290  Biso   1.000  H
  C41      1.0000 0.22310  0.91574  0.49829  Biso   1.000  C
  C42      1.0000 0.27690  0.08426  0.99829  Biso   1.000  C
  C43      1.0000 0.77690  0.41574  0.00171  Biso   1.000  C
  C44      1.0000 0.72310  0.58426  0.50171  Biso   1.000  C
  C45      1.0000 0.77690  0.08426  0.50171  Biso   1.000  C
  C46      1.0000 0.72310  0.91574  0.00171  Biso   1.000  C
  C47      1.0000 0.22310  0.58426  0.99829  Biso   1.000  C
  C48      1.0000 0.27690  0.41574  0.49829  Biso   1.000  C
  H49      1.0000 0.24700  0.87040  0.48540  Biso   1.000  H
  H50      1.0000 0.25300  0.12960  0.98540  Biso   1.000  H
  H51      1.0000 0.75300  0.37040  0.01460  Biso   1.000  H
  H52      1.0000 0.74700  0.62960  0.51460  Biso   1.000  H
  H53      1.0000 0.75300  0.12960  0.51460  Biso   1.000  H
  H54      1.0000 0.74700  0.87040  0.01460  Biso   1.000  H
  H55      1.0000 0.24700  0.62960  0.98540  Biso   1.000  H
  H56      1.0000 0.25300  0.37040  0.48540  Biso   1.000  H
  C49      1.0000 0.18090  0.96944  0.46219  Biso   1.000  C
  C50      1.0000 0.31910  0.03056  0.96219  Biso   1.000  C
  C51      1.0000 0.81910  0.46944  0.03781  Biso   1.000  C
  C52      1.0000 0.68090  0.53056  0.53781  Biso   1.000  C
  C53      1.0000 0.81910  0.03056  0.53781  Biso   1.000  C
  C54      1.0000 0.68090  0.96944  0.03781  Biso   1.000  C
  C55      1.0000 0.18090  0.53056  0.96219  Biso   1.000  C
  C56      1.0000 0.31910  0.46944  0.46219  Biso   1.000  C
  C57      1.0000 0.17320  0.96031  0.40787  Biso   1.000  C
  C58      1.0000 0.32680  0.03969  0.90787  Biso   1.000  C
  C59      1.0000 0.82680  0.46031  0.09213  Biso   1.000  C
  C60      1.0000 0.67320  0.53969  0.59213  Biso   1.000  C
  C61      1.0000 0.82680  0.03969  0.59213  Biso   1.000  C
  C62      1.0000 0.67320  0.96031  0.09213  Biso   1.000  C
  C63      1.0000 0.17320  0.53969  0.90787  Biso   1.000  C
  C64      1.0000 0.32680  0.46031  0.40787  Biso   1.000  C
  H57      1.0000 0.19480  0.91620  0.39230  Biso   1.000  H
  H58      1.0000 0.30520  0.08380  0.89230  Biso   1.000  H
  H59      1.0000 0.80520  0.41620  0.10770  Biso   1.000  H
  H60      1.0000 0.69480  0.58380  0.60770  Biso   1.000  H
  H61      1.0000 0.80520  0.08380  0.60770  Biso   1.000  H
  H62      1.0000 0.69480  0.91620  0.10770  Biso   1.000  H
  H63      1.0000 0.19480  0.58380  0.89230  Biso   1.000  H
  H64      1.0000 0.30520  0.41620  0.39230  Biso   1.000  H
  C65      1.0000 0.13370  0.01616  0.37752  Biso   1.000  C
  C66      1.0000 0.36630  0.98384  0.87752  Biso   1.000  C
  C67      1.0000 0.86630  0.51616  0.12248  Biso   1.000  C
  C68      1.0000 0.63370  0.48384  0.62248  Biso   1.000  C
  C69      1.0000 0.86630  0.98384  0.62248  Biso   1.000  C
  C70      1.0000 0.63370  0.01616  0.12248  Biso   1.000  C
  C71      1.0000 0.13370  0.48384  0.87752  Biso   1.000  C
  C72      1.0000 0.36630  0.51616  0.37752  Biso   1.000  C
  H65      1.0000 0.12820  0.01090  0.34060  Biso   1.000  H
  H66      1.0000 0.37180  0.98910  0.84060  Biso   1.000  H
  H67      1.0000 0.87180  0.51090  0.15940  Biso   1.000  H
  H68      1.0000 0.62820  0.48910  0.65940  Biso   1.000  H
  H69      1.0000 0.87180  0.98910  0.65940  Biso   1.000  H
  H70      1.0000 0.62820  0.01090  0.15940  Biso   1.000  H
  H71      1.0000 0.12820  0.48910  0.84060  Biso   1.000  H
  H72      1.0000 0.37180  0.51090  0.34060  Biso   1.000  H
  C73      1.0000 0.10160  0.08081  0.40063  Biso   1.000  C
  C74      1.0000 0.39840  0.91919  0.90063  Biso   1.000  C
  C75      1.0000 0.89840  0.58081  0.09937  Biso   1.000  C
  C76      1.0000 0.60160  0.41919  0.59937  Biso   1.000  C
  C77      1.0000 0.89840  0.91919  0.59937  Biso   1.000  C
  C78      1.0000 0.60160  0.08081  0.09937  Biso   1.000  C
  C79      1.0000 0.10160  0.41919  0.90063  Biso   1.000  C
  C80      1.0000 0.39840  0.58081  0.40063  Biso   1.000  C
  H73      1.0000 0.07420  0.11880  0.37890  Biso   1.000  H
  H74      1.0000 0.42580  0.88120  0.87890  Biso   1.000  H
  H75      1.0000 0.92580  0.61880  0.12110  Biso   1.000  H
  H76      1.0000 0.57420  0.38120  0.62110  Biso   1.000  H
  H77      1.0000 0.92580  0.88120  0.62110  Biso   1.000  H
  H78      1.0000 0.57420  0.11880  0.12110  Biso   1.000  H
  H79      1.0000 0.07420  0.38120  0.87890  Biso   1.000  H
  H80      1.0000 0.42580  0.61880  0.37890  Biso   1.000  H
  C81      1.0000 0.14740  0.03590  0.48222  Biso   1.000  C
  C82      1.0000 0.35260  0.96410  0.98222  Biso   1.000  C
  C83      1.0000 0.85260  0.53590  0.01778  Biso   1.000  C
  C84      1.0000 0.64740  0.46410  0.51778  Biso   1.000  C
  C85      1.0000 0.85260  0.96410  0.51778  Biso   1.000  C
  C86      1.0000 0.64740  0.03590  0.01778  Biso   1.000  C
  C87      1.0000 0.14740  0.46410  0.98222  Biso   1.000  C
  C88      1.0000 0.35260  0.53590  0.48222  Biso   1.000  C
  C89      1.0000 0.15410  0.04978  0.53712  Biso   1.000  C
  C90      1.0000 0.34590  0.95022  0.03712  Biso   1.000  C
  C91      1.0000 0.84590  0.54978  0.96288  Biso   1.000  C
  C92      1.0000 0.65410  0.45022  0.46288  Biso   1.000  C
  C93      1.0000 0.84590  0.95022  0.46288  Biso   1.000  C
  C94      1.0000 0.65410  0.04978  0.96288  Biso   1.000  C
  C95      1.0000 0.15410  0.45022  0.03712  Biso   1.000  C
  C96      1.0000 0.34590  0.54978  0.53712  Biso   1.000  C
  C97      1.0000 0.42080  0.14192  0.40387  Biso   1.000  C
  C98      1.0000 0.07920  0.85808  0.90387  Biso   1.000  C
  C99      1.0000 0.57920  0.64192  0.09613  Biso   1.000  C
  C100     1.0000 0.92080  0.35808  0.59613  Biso   1.000  C
  C101     1.0000 0.57920  0.85808  0.59613  Biso   1.000  C
  C102     1.0000 0.92080  0.14192  0.09613  Biso   1.000  C
  C103     1.0000 0.42080  0.35808  0.90387  Biso   1.000  C
  C104     1.0000 0.07920  0.64192  0.40387  Biso   1.000  C
  C105     1.0000 0.41260  0.14215  0.34932  Biso   1.000  C
  C106     1.0000 0.08740  0.85785  0.84932  Biso   1.000  C
  C107     1.0000 0.58740  0.64215  0.15068  Biso   1.000  C
  C108     1.0000 0.91260  0.35785  0.65068  Biso   1.000  C
  C109     1.0000 0.58740  0.85785  0.65068  Biso   1.000  C
  C110     1.0000 0.91260  0.14215  0.15068  Biso   1.000  C
  C111     1.0000 0.41260  0.35785  0.84932  Biso   1.000  C
  C112     1.0000 0.08740  0.64215  0.34932  Biso   1.000  C
  H81      1.0000 0.39060  0.18480  0.33170  Biso   1.000  H
  H82      1.0000 0.10940  0.81520  0.83170  Biso   1.000  H
  H83      1.0000 0.60940  0.68480  0.16830  Biso   1.000  H
  H84      1.0000 0.89060  0.31520  0.66830  Biso   1.000  H
  H85      1.0000 0.60940  0.81520  0.66830  Biso   1.000  H
  H86      1.0000 0.89060  0.18480  0.16830  Biso   1.000  H
  H87      1.0000 0.39060  0.31520  0.83170  Biso   1.000  H
  H88      1.0000 0.10940  0.68480  0.33170  Biso   1.000  H
  C113     1.0000 0.43610  0.08080  0.32012  Biso   1.000  C
  C114     1.0000 0.06390  0.91920  0.82012  Biso   1.000  C
  C115     1.0000 0.56390  0.58080  0.17988  Biso   1.000  C
  C116     1.0000 0.93610  0.41920  0.67988  Biso   1.000  C
  C117     1.0000 0.56390  0.91920  0.67988  Biso   1.000  C
  C118     1.0000 0.93610  0.08080  0.17988  Biso   1.000  C
  C119     1.0000 0.43610  0.41920  0.82012  Biso   1.000  C
  C120     1.0000 0.06390  0.58080  0.32012  Biso   1.000  C
  C121     1.0000 0.46620  0.01918  0.34722  Biso   1.000  C
  C122     1.0000 0.03380  0.98082  0.84722  Biso   1.000  C
  C123     1.0000 0.53380  0.51918  0.15278  Biso   1.000  C
  C124     1.0000 0.96620  0.48082  0.65278  Biso   1.000  C
  C125     1.0000 0.53380  0.98082  0.65278  Biso   1.000  C
  C126     1.0000 0.96620  0.01918  0.15278  Biso   1.000  C
  C127     1.0000 0.46620  0.48082  0.84722  Biso   1.000  C
  C128     1.0000 0.03380  0.51918  0.34722  Biso   1.000  C
  H89      1.0000 0.48210  0.97690  0.32810  Biso   1.000  H
  H90      1.0000 0.01790  0.02310  0.82810  Biso   1.000  H
  H91      1.0000 0.51790  0.47690  0.17190  Biso   1.000  H
  H92      1.0000 0.98210  0.52310  0.67190  Biso   1.000  H
  H93      1.0000 0.51790  0.02310  0.67190  Biso   1.000  H
  H94      1.0000 0.98210  0.97690  0.17190  Biso   1.000  H
  H95      1.0000 0.48210  0.52310  0.82810  Biso   1.000  H
  H96      1.0000 0.01790  0.47690  0.32810  Biso   1.000  H
  C129     1.0000 0.47350  0.01776  0.40106  Biso   1.000  C
  C130     1.0000 0.02650  0.98224  0.90106  Biso   1.000  C
  C131     1.0000 0.52650  0.51776  0.09894  Biso   1.000  C
  C132     1.0000 0.97350  0.48224  0.59894  Biso   1.000  C
  C133     1.0000 0.52650  0.98224  0.59894  Biso   1.000  C
  C134     1.0000 0.97350  0.01776  0.09894  Biso   1.000  C
  C135     1.0000 0.47350  0.48224  0.90106  Biso   1.000  C
  C136     1.0000 0.02650  0.51776  0.40106  Biso   1.000  C
  H97      1.0000 0.49390  0.97490  0.41860  Biso   1.000  H
  H98      1.0000 0.00610  0.02510  0.91860  Biso   1.000  H
  H99      1.0000 0.50610  0.47490  0.08140  Biso   1.000  H
  H100     1.0000 0.99390  0.52510  0.58140  Biso   1.000  H
  H101     1.0000 0.50610  0.02510  0.58140  Biso   1.000  H
  H102     1.0000 0.99390  0.97490  0.08140  Biso   1.000  H
  H103     1.0000 0.49390  0.52510  0.91860  Biso   1.000  H
  H104     1.0000 0.00610  0.47490  0.41860  Biso   1.000  H
  C137     1.0000 0.45110  0.07898  0.42963  Biso   1.000  C
  C138     1.0000 0.04890  0.92102  0.92963  Biso   1.000  C
  C139     1.0000 0.54890  0.57898  0.07037  Biso   1.000  C
  C140     1.0000 0.95110  0.42102  0.57037  Biso   1.000  C
  C141     1.0000 0.54890  0.92102  0.57037  Biso   1.000  C
  C142     1.0000 0.95110  0.07898  0.07037  Biso   1.000  C
  C143     1.0000 0.45110  0.42102  0.92963  Biso   1.000  C
  C144     1.0000 0.04890  0.57898  0.42963  Biso   1.000  C
  H105     1.0000 0.45650  0.07800  0.46680  Biso   1.000  H
  H106     1.0000 0.04350  0.92200  0.96680  Biso   1.000  H
  H107     1.0000 0.54350  0.57800  0.03320  Biso   1.000  H
  H108     1.0000 0.95650  0.42200  0.53320  Biso   1.000  H
  H109     1.0000 0.54350  0.92200  0.53320  Biso   1.000  H
  H110     1.0000 0.95650  0.07800  0.03320  Biso   1.000  H
  H111     1.0000 0.45650  0.42200  0.96680  Biso   1.000  H
  H112     1.0000 0.04350  0.57800  0.46680  Biso   1.000  H
  C145     1.0000 0.42620  0.08290  0.26065  Biso   1.000  C
  C146     1.0000 0.07380  0.91710  0.76065  Biso   1.000  C
  C147     1.0000 0.57380  0.58290  0.23935  Biso   1.000  C
  C148     1.0000 0.92620  0.41710  0.73935  Biso   1.000  C
  C149     1.0000 0.57380  0.91710  0.73935  Biso   1.000  C
  C150     1.0000 0.92620  0.08290  0.23935  Biso   1.000  C
  C151     1.0000 0.42620  0.41710  0.76065  Biso   1.000  C
  C152     1.0000 0.07380  0.58290  0.26065  Biso   1.000  C
  H113     1.0000 0.48730  0.04860  0.24550  Biso   1.000  H
  H114     1.0000 0.01270  0.95140  0.74550  Biso   1.000  H
  H115     1.0000 0.51270  0.54860  0.25450  Biso   1.000  H
  H116     1.0000 0.98730  0.45140  0.75450  Biso   1.000  H
  H117     1.0000 0.51270  0.95140  0.75450  Biso   1.000  H
  H118     1.0000 0.98730  0.04860  0.25450  Biso   1.000  H
  H119     1.0000 0.48730  0.45140  0.74550  Biso   1.000  H
  H120     1.0000 0.01270  0.54860  0.24550  Biso   1.000  H
  H121     1.0000 0.44790  0.13040  0.24810  Biso   1.000  H
  H122     1.0000 0.05210  0.86960  0.74810  Biso   1.000  H
  H123     1.0000 0.55210  0.63040  0.25190  Biso   1.000  H
  H124     1.0000 0.94790  0.36960  0.75190  Biso   1.000  H
  H125     1.0000 0.55210  0.86960  0.75190  Biso   1.000  H
  H126     1.0000 0.94790  0.13040  0.25190  Biso   1.000  H
  H127     1.0000 0.44790  0.36960  0.74810  Biso   1.000  H
  H128     1.0000 0.05210  0.63040  0.24810  Biso   1.000  H
  H129     1.0000 0.33690  0.07090  0.25000  Biso   1.000  H
  H130     1.0000 0.16310  0.92910  0.75000  Biso   1.000  H
  H131     1.0000 0.66310  0.57090  0.25000  Biso   1.000  H
  H132     1.0000 0.83690  0.42910  0.75000  Biso   1.000  H
  H133     1.0000 0.66310  0.92910  0.75000  Biso   1.000  H
  H134     1.0000 0.83690  0.07090  0.25000  Biso   1.000  H
  H135     1.0000 0.33690  0.42910  0.75000  Biso   1.000  H
  H136     1.0000 0.16310  0.57090  0.25000  Biso   1.000  H
  C153     1.0000 0.90330  0.28106  0.34468  Biso   1.000  C
  C154     1.0000 0.59670  0.71894  0.84468  Biso   1.000  C
  C155     1.0000 0.09670  0.78106  0.15532  Biso   1.000  C
  C156     1.0000 0.40330  0.21894  0.65532  Biso   1.000  C
  C157     1.0000 0.09670  0.71894  0.65532  Biso   1.000  C
  C158     1.0000 0.40330  0.28106  0.15532  Biso   1.000  C
  C159     1.0000 0.90330  0.21894  0.84468  Biso   1.000  C
  C160     1.0000 0.59670  0.78106  0.34468  Biso   1.000  C
  C161     1.0000 0.92520  0.32285  0.30194  Biso   1.000  C
  C162     1.0000 0.57480  0.67715  0.80194  Biso   1.000  C
  C163     1.0000 0.07480  0.82285  0.19806  Biso   1.000  C
  C164     1.0000 0.42520  0.17715  0.69806  Biso   1.000  C
  C165     1.0000 0.07480  0.67715  0.69806  Biso   1.000  C
  C166     1.0000 0.42520  0.32285  0.19806  Biso   1.000  C
  C167     1.0000 0.92520  0.17715  0.80194  Biso   1.000  C
  C168     1.0000 0.57480  0.82285  0.30194  Biso   1.000  C
  H137     1.0000 0.99590  0.35540  0.30200  Biso   1.000  H
  H138     1.0000 0.50410  0.64460  0.80200  Biso   1.000  H
  H139     1.0000 0.00410  0.85540  0.19800  Biso   1.000  H
  H140     1.0000 0.49590  0.14460  0.69800  Biso   1.000  H
  H141     1.0000 0.00410  0.64460  0.69800  Biso   1.000  H
  H142     1.0000 0.49590  0.35540  0.19800  Biso   1.000  H
  H143     1.0000 0.99590  0.14460  0.80200  Biso   1.000  H
  H144     1.0000 0.50410  0.85540  0.30200  Biso   1.000  H
  C169     1.0000 0.84310  0.31795  0.25761  Biso   1.000  C
  C170     1.0000 0.65690  0.68205  0.75761  Biso   1.000  C
  C171     1.0000 0.15690  0.81795  0.24239  Biso   1.000  C
  C172     1.0000 0.34310  0.18205  0.74239  Biso   1.000  C
  C173     1.0000 0.15690  0.68205  0.74239  Biso   1.000  C
  C174     1.0000 0.34310  0.31795  0.24239  Biso   1.000  C
  C175     1.0000 0.84310  0.18205  0.75761  Biso   1.000  C
  C176     1.0000 0.65690  0.81795  0.25761  Biso   1.000  C
  C177     1.0000 0.74280  0.26883  0.25831  Biso   1.000  C
  C178     1.0000 0.75720  0.73117  0.75831  Biso   1.000  C
  C179     1.0000 0.25720  0.76883  0.24169  Biso   1.000  C
  C180     1.0000 0.24280  0.23117  0.74169  Biso   1.000  C
  C181     1.0000 0.25720  0.73117  0.74169  Biso   1.000  C
  C182     1.0000 0.24280  0.26883  0.24169  Biso   1.000  C
  C183     1.0000 0.74280  0.23117  0.75831  Biso   1.000  C
  C184     1.0000 0.75720  0.76883  0.25831  Biso   1.000  C
  H145     1.0000 0.68870  0.26410  0.22830  Biso   1.000  H
  H146     1.0000 0.81130  0.73590  0.72830  Biso   1.000  H
  H147     1.0000 0.31130  0.76410  0.27170  Biso   1.000  H
  H148     1.0000 0.18870  0.23590  0.77170  Biso   1.000  H
  H149     1.0000 0.31130  0.73590  0.77170  Biso   1.000  H
  H150     1.0000 0.18870  0.26410  0.27170  Biso   1.000  H
  H151     1.0000 0.68870  0.23590  0.72830  Biso   1.000  H
  H152     1.0000 0.81130  0.76410  0.22830  Biso   1.000  H
  C185     1.0000 0.71960  0.22743  0.30045  Biso   1.000  C
  C186     1.0000 0.78040  0.77257  0.80045  Biso   1.000  C
  C187     1.0000 0.28040  0.72743  0.19955  Biso   1.000  C
  C188     1.0000 0.21960  0.27257  0.69955  Biso   1.000  C
  C189     1.0000 0.28040  0.77257  0.69955  Biso   1.000  C
  C190     1.0000 0.21960  0.22743  0.19955  Biso   1.000  C
  C191     1.0000 0.71960  0.27257  0.80045  Biso   1.000  C
  C192     1.0000 0.78040  0.72743  0.30045  Biso   1.000  C
  H153     1.0000 0.64900  0.19490  0.30020  Biso   1.000  H
  H154     1.0000 0.85100  0.80510  0.80020  Biso   1.000  H
  H155     1.0000 0.35100  0.69490  0.19980  Biso   1.000  H
  H156     1.0000 0.14900  0.30510  0.69980  Biso   1.000  H
  H157     1.0000 0.35100  0.80510  0.69980  Biso   1.000  H
  H158     1.0000 0.14900  0.19490  0.19980  Biso   1.000  H
  H159     1.0000 0.64900  0.30510  0.80020  Biso   1.000  H
  H160     1.0000 0.85100  0.69490  0.30020  Biso   1.000  H
  C193     1.0000 0.79960  0.23290  0.34379  Biso   1.000  C
  C194     1.0000 0.70040  0.76710  0.84379  Biso   1.000  C
  C195     1.0000 0.20040  0.73290  0.15621  Biso   1.000  C
  C196     1.0000 0.29960  0.26710  0.65621  Biso   1.000  C
  C197     1.0000 0.20040  0.76710  0.65621  Biso   1.000  C
  C198     1.0000 0.29960  0.23290  0.15621  Biso   1.000  C
  C199     1.0000 0.79960  0.26710  0.84379  Biso   1.000  C
  C200     1.0000 0.70040  0.73290  0.34379  Biso   1.000  C
  H161     1.0000 0.78410  0.20360  0.37340  Biso   1.000  H
  H162     1.0000 0.71590  0.79640  0.87340  Biso   1.000  H
  H163     1.0000 0.21590  0.70360  0.12660  Biso   1.000  H
  H164     1.0000 0.28410  0.29640  0.62660  Biso   1.000  H
  H165     1.0000 0.21590  0.79640  0.62660  Biso   1.000  H
  H166     1.0000 0.28410  0.20360  0.12660  Biso   1.000  H
  H167     1.0000 0.78410  0.29640  0.87340  Biso   1.000  H
  H168     1.0000 0.71590  0.70360  0.37340  Biso   1.000  H
  C201     1.0000 0.86590  0.36567  0.21234  Biso   1.000  C
  C202     1.0000 0.63410  0.63433  0.71234  Biso   1.000  C
  C203     1.0000 0.13410  0.86567  0.28766  Biso   1.000  C
  C204     1.0000 0.36590  0.13433  0.78766  Biso   1.000  C
  C205     1.0000 0.13410  0.63433  0.78766  Biso   1.000  C
  C206     1.0000 0.36590  0.36567  0.28766  Biso   1.000  C
  C207     1.0000 0.86590  0.13433  0.71234  Biso   1.000  C
  C208     1.0000 0.63410  0.86567  0.21234  Biso   1.000  C
  H169     1.0000 0.91080  0.33960  0.18450  Biso   1.000  H
  H170     1.0000 0.58920  0.66040  0.68450  Biso   1.000  H
  H171     1.0000 0.08920  0.83960  0.31550  Biso   1.000  H
  H172     1.0000 0.41080  0.16040  0.81550  Biso   1.000  H
  H173     1.0000 0.08920  0.66040  0.81550  Biso   1.000  H
  H174     1.0000 0.41080  0.33960  0.31550  Biso   1.000  H
  H175     1.0000 0.91080  0.16040  0.68450  Biso   1.000  H
  H176     1.0000 0.58920  0.83960  0.18450  Biso   1.000  H
  H177     1.0000 0.92000  0.40570  0.22350  Biso   1.000  H
  H178     1.0000 0.58000  0.59430  0.72350  Biso   1.000  H
  H179     1.0000 0.08000  0.90570  0.27650  Biso   1.000  H
  H180     1.0000 0.42000  0.09430  0.77650  Biso   1.000  H
  H181     1.0000 0.08000  0.59430  0.77650  Biso   1.000  H
  H182     1.0000 0.42000  0.40570  0.27650  Biso   1.000  H
  H183     1.0000 0.92000  0.09430  0.72350  Biso   1.000  H
  H184     1.0000 0.58000  0.90570  0.22350  Biso   1.000  H
  H185     1.0000 0.78200  0.38320  0.19920  Biso   1.000  H
  H186     1.0000 0.71800  0.61680  0.69920  Biso   1.000  H
  H187     1.0000 0.21800  0.88320  0.30080  Biso   1.000  H
  H188     1.0000 0.28200  0.11680  0.80080  Biso   1.000  H
  H189     1.0000 0.21800  0.61680  0.80080  Biso   1.000  H
  H190     1.0000 0.28200  0.38320  0.30080  Biso   1.000  H
  H191     1.0000 0.78200  0.11680  0.69920  Biso   1.000  H
  H192     1.0000 0.71800  0.88320  0.19920  Biso   1.000  H
  N1       1.0000 0.12011  0.11571  0.55296  Biso   1.000  N
  N2       1.0000 0.37989  0.88429  0.05296  Biso   1.000  N
  N3       1.0000 0.87989  0.61571  0.94704  Biso   1.000  N
  N4       1.0000 0.62011  0.38429  0.44704  Biso   1.000  N
  N5       1.0000 0.87989  0.88429  0.44704  Biso   1.000  N
  N6       1.0000 0.62011  0.11571  0.94704  Biso   1.000  N
  N7       1.0000 0.12011  0.38429  0.05296  Biso   1.000  N
  N8       1.0000 0.37989  0.61571  0.55296  Biso   1.000  N
  N9       1.0000 0.10806  0.09079  0.45184  Biso   1.000  N
  N10      1.0000 0.39194  0.90921  0.95184  Biso   1.000  N
  N11      1.0000 0.89194  0.59079  0.04816  Biso   1.000  N
  N12      1.0000 0.60806  0.40921  0.54816  Biso   1.000  N
  N13      1.0000 0.89194  0.90921  0.54816  Biso   1.000  N
  N14      1.0000 0.60806  0.09079  0.04816  Biso   1.000  N
  N15      1.0000 0.10806  0.40921  0.95184  Biso   1.000  N
  N16      1.0000 0.39194  0.59079  0.45184  Biso   1.000  N
  O1       1.0000 0.29618  0.20787  0.48375  Biso   1.000  O
  O2       1.0000 0.20382  0.79213  0.98375  Biso   1.000  O
  O3       1.0000 0.70382  0.70787  0.01625  Biso   1.000  O
  O4       1.0000 0.79618  0.29213  0.51625  Biso   1.000  O
  O5       1.0000 0.70382  0.79213  0.51625  Biso   1.000  O
  O6       1.0000 0.79618  0.20787  0.01625  Biso   1.000  O
  O7       1.0000 0.29618  0.29213  0.98375  Biso   1.000  O
  O8       1.0000 0.20382  0.70787  0.48375  Biso   1.000  O
  O9       1.0000 0.35158  0.27858  0.40206  Biso   1.000  O
  O10      1.0000 0.14842  0.72142  0.90206  Biso   1.000  O
  O11      1.0000 0.64842  0.77858  0.09794  Biso   1.000  O
  O12      1.0000 0.85158  0.22142  0.59794  Biso   1.000  O
  O13      1.0000 0.64842  0.72142  0.59794  Biso   1.000  O
  O14      1.0000 0.85158  0.27858  0.09794  Biso   1.000  O
  O15      1.0000 0.35158  0.22142  0.90206  Biso   1.000  O
  O16      1.0000 0.14842  0.77858  0.40206  Biso   1.000  O
  O17      1.0000 0.00577  0.22091  0.42922  Biso   1.000  O
  O18      1.0000 0.49423  0.77909  0.92922  Biso   1.000  O
  O19      1.0000 0.99423  0.72091  0.07078  Biso   1.000  O
  O20      1.0000 0.50577  0.27909  0.57078  Biso   1.000  O
  O21      1.0000 0.99423  0.77909  0.57078  Biso   1.000  O
  O22      1.0000 0.50577  0.22091  0.07078  Biso   1.000  O
  O23      1.0000 0.00577  0.27909  0.92922  Biso   1.000  O
  O24      1.0000 0.49423  0.72091  0.42922  Biso   1.000  O
  O25      1.0000 0.92210  0.34686  0.43695  Biso   1.000  O
  O26      1.0000 0.57790  0.65314  0.93695  Biso   1.000  O
  O27      1.0000 0.07790  0.84686  0.06305  Biso   1.000  O
  O28      1.0000 0.42210  0.15314  0.56305  Biso   1.000  O
  O29      1.0000 0.07790  0.65314  0.56305  Biso   1.000  O
  O30      1.0000 0.42210  0.34686  0.06305  Biso   1.000  O
  O31      1.0000 0.92210  0.15314  0.93695  Biso   1.000  O
  O32      1.0000 0.57790  0.84686  0.43695  Biso   1.000  O
  O33      1.0000 0.12818  0.32503  0.38762  Biso   1.000  O
  O34      1.0000 0.37182  0.67497  0.88762  Biso   1.000  O
  O35      1.0000 0.87182  0.82503  0.11238  Biso   1.000  O
  O36      1.0000 0.62818  0.17497  0.61238  Biso   1.000  O
  O37      1.0000 0.87182  0.67497  0.61238  Biso   1.000  O
  O38      1.0000 0.62818  0.32503  0.11238  Biso   1.000  O
  O39      1.0000 0.12818  0.17497  0.88762  Biso   1.000  O
  O40      1.0000 0.37182  0.82503  0.38762  Biso   1.000  O
  O41      1.0000 0.53084  0.24159  0.46192  Biso   1.000  O
  O42      1.0000 0.96916  0.75841  0.96192  Biso   1.000  O
  O43      1.0000 0.46916  0.74159  0.03808  Biso   1.000  O
  O44      1.0000 0.03084  0.25841  0.53808  Biso   1.000  O
  O45      1.0000 0.46916  0.75841  0.53808  Biso   1.000  O
  O46      1.0000 0.03084  0.24159  0.03808  Biso   1.000  O
  O47      1.0000 0.53084  0.25841  0.96192  Biso   1.000  O
  O48      1.0000 0.96916  0.74159  0.46192  Biso   1.000  O
  P1       1.0000 0.39670  0.22128  0.44164  Biso   1.000  P
  P2       1.0000 0.10330  0.77872  0.94164  Biso   1.000  P
  P3       1.0000 0.60330  0.72128  0.05836  Biso   1.000  P
  P4       1.0000 0.89670  0.27872  0.55836  Biso   1.000  P
  P5       1.0000 0.60330  0.77872  0.55836  Biso   1.000  P
  P6       1.0000 0.89670  0.22128  0.05836  Biso   1.000  P
  P7       1.0000 0.39670  0.27872  0.94164  Biso   1.000  P
  P8       1.0000 0.10330  0.72128  0.44164  Biso   1.000  P
  P9       1.0000 0.00018  0.29232  0.40294  Biso   1.000  P
  P10      1.0000 0.49982  0.70768  0.90294  Biso   1.000  P
  P11      1.0000 0.99982  0.79232  0.09706  Biso   1.000  P
  P12      1.0000 0.50018  0.20768  0.59706  Biso   1.000  P
  P13      1.0000 0.99982  0.70768  0.59706  Biso   1.000  P
  P14      1.0000 0.50018  0.29232  0.09706  Biso   1.000  P
  P15      1.0000 0.00018  0.20768  0.90294  Biso   1.000  P
  P16      1.0000 0.49982  0.79232  0.40294  Biso   1.000  P
  Cu1      1.0000 0.07891  0.18118  0.49232  Biso   1.000  Cu
  Cu2      1.0000 0.42109  0.81882  0.99232  Biso   1.000  Cu
  Cu3      1.0000 0.92109  0.68118  0.00768  Biso   1.000  Cu
  Cu4      1.0000 0.57891  0.31882  0.50768  Biso   1.000  Cu
  Cu5      1.0000 0.92109  0.81882  0.50768  Biso   1.000  Cu
  Cu6      1.0000 0.57891  0.18118  0.00768  Biso   1.000  Cu
  Cu7      1.0000 0.07891  0.31882  0.99232  Biso   1.000  Cu
  Cu8      1.0000 0.42109  0.68118  0.49232  Biso   1.000  Cu
