data_image0
_cell_length_a       13.4579
_cell_length_b       13.7234
_cell_length_c       16.3627
_cell_angle_alpha    109.33
_cell_angle_beta     90.691
_cell_angle_gamma    111.833

_symmetry_space_group_name_H-M    "P 1"
_symmetry_int_tables_number       1

loop_
  _symmetry_equiv_pos_as_xyz
  'x, y, z'

loop_
  _atom_site_label
  _atom_site_occupancy
  _atom_site_fract_x
  _atom_site_fract_y
  _atom_site_fract_z
  _atom_site_thermal_displace_type
  _atom_site_B_iso_or_equiv
  _atom_site_type_symbol
  C1       1.0000 0.27570  0.21010  0.55880  Biso   1.000  C
  C2       1.0000 0.72430  0.78990  0.44120  Biso   1.000  C
  H1       1.0000 0.26630  0.28210  0.58050  Biso   1.000  H
  H2       1.0000 0.73370  0.71790  0.41950  Biso   1.000  H
  H3       1.0000 0.33970  0.22120  0.52820  Biso   1.000  H
  H4       1.0000 0.66030  0.77880  0.47180  Biso   1.000  H
  C3       1.0000 0.29490  0.17820  0.63530  Biso   1.000  C
  C4       1.0000 0.70510  0.82180  0.36470  Biso   1.000  C
  H5       1.0000 0.30410  0.10610  0.61330  Biso   1.000  H
  H6       1.0000 0.69590  0.89390  0.38670  Biso   1.000  H
  H7       1.0000 0.23040  0.16650  0.66540  Biso   1.000  H
  H8       1.0000 0.76960  0.83350  0.33460  Biso   1.000  H
  C5       1.0000 0.39510  0.26810  0.70140  Biso   1.000  C
  C6       1.0000 0.60490  0.73190  0.29860  Biso   1.000  C
  H9       1.0000 0.38300  0.33800  0.72850  Biso   1.000  H
  H10      1.0000 0.61700  0.66200  0.27150  Biso   1.000  H
  H11      1.0000 0.45860  0.28550  0.67060  Biso   1.000  H
  H12      1.0000 0.54140  0.71450  0.32940  Biso   1.000  H
  C7       1.0000 0.41850  0.22630  0.77390  Biso   1.000  C
  C8       1.0000 0.58150  0.77370  0.22610  Biso   1.000  C
  H13      1.0000 0.36490  0.22750  0.81380  Biso   1.000  H
  H14      1.0000 0.63510  0.77250  0.18620  Biso   1.000  H
  H15      1.0000 0.49120  0.27570  0.80690  Biso   1.000  H
  H16      1.0000 0.50880  0.72430  0.19310  Biso   1.000  H
  H17      1.0000 0.41410  0.14920  0.74690  Biso   1.000  H
  H18      1.0000 0.58590  0.85080  0.25310  Biso   1.000  H
  C9       1.0000 0.14830  0.14910  0.42140  Biso   1.000  C
  C10      1.0000 0.85170  0.85090  0.57860  Biso   1.000  C
  H19      1.0000 0.15580  0.22830  0.44260  Biso   1.000  H
  H20      1.0000 0.84420  0.77170  0.55740  Biso   1.000  H
  H21      1.0000 0.07150  0.10030  0.39600  Biso   1.000  H
  H22      1.0000 0.92850  0.89970  0.60400  Biso   1.000  H
  C11      1.0000 0.21810  0.13220  0.35130  Biso   1.000  C
  C12      1.0000 0.78190  0.86780  0.64870  Biso   1.000  C
  H23      1.0000 0.29460  0.18240  0.37670  Biso   1.000  H
  H24      1.0000 0.70540  0.81760  0.62330  Biso   1.000  H
  H25      1.0000 0.21220  0.05360  0.33180  Biso   1.000  H
  H26      1.0000 0.78780  0.94640  0.66820  Biso   1.000  H
  C13      1.0000 0.18880  0.15510  0.27370  Biso   1.000  C
  C14      1.0000 0.81120  0.84490  0.72630  Biso   1.000  C
  H27      1.0000 0.19880  0.23490  0.29240  Biso   1.000  H
  H28      1.0000 0.80120  0.76510  0.70760  Biso   1.000  H
  H29      1.0000 0.11130  0.10790  0.24990  Biso   1.000  H
  H30      1.0000 0.88870  0.89210  0.75010  Biso   1.000  H
  C15      1.0000 0.25500  0.13180  0.20250  Biso   1.000  C
  C16      1.0000 0.74500  0.86820  0.79750  Biso   1.000  C
  H31      1.0000 0.32980  0.18850  0.22160  Biso   1.000  H
  H32      1.0000 0.67020  0.81150  0.77840  Biso   1.000  H
  H33      1.0000 0.22420  0.13490  0.14940  Biso   1.000  H
  H34      1.0000 0.77580  0.86510  0.85060  Biso   1.000  H
  H35      1.0000 0.25510  0.05680  0.19010  Biso   1.000  H
  H36      1.0000 0.74490  0.94320  0.80990  Biso   1.000  H
  N1       1.0000 0.17860  0.12230  0.49670  Biso   1.000  N
  N2       1.0000 0.82140  0.87770  0.50330  Biso   1.000  N
  H37      1.0000 0.12160  0.10880  0.52680  Biso   1.000  H
  H38      1.0000 0.87840  0.89120  0.47320  Biso   1.000  H
  H39      1.0000 0.18980  0.05760  0.47520  Biso   1.000  H
  H40      1.0000 0.81020  0.94240  0.52480  Biso   1.000  H
  C17      1.0000 0.53770  0.22220  0.05450  Biso   1.000  C
  C18      1.0000 0.46230  0.77780  0.94550  Biso   1.000  C
  H41      1.0000 0.51350  0.20680  0.10750  Biso   1.000  H
  H42      1.0000 0.48650  0.79320  0.89250  Biso   1.000  H
  H43      1.0000 0.48430  0.16330  0.00310  Biso   1.000  H
  H44      1.0000 0.51570  0.83670  0.99690  Biso   1.000  H
  C19      1.0000 0.54110  0.33480  0.06140  Biso   1.000  C
  C20      1.0000 0.45890  0.66520  0.93860  Biso   1.000  C
  H45      1.0000 0.56620  0.35050  0.00870  Biso   1.000  H
  H46      1.0000 0.43380  0.64950  0.99130  Biso   1.000  H
  H47      1.0000 0.59400  0.39350  0.11310  Biso   1.000  H
  H48      1.0000 0.40600  0.60650  0.88690  Biso   1.000  H
  C21      1.0000 0.43020  0.34140  0.06990  Biso   1.000  C
  C22      1.0000 0.56980  0.65860  0.93010  Biso   1.000  C
  H49      1.0000 0.40360  0.32290  0.12130  Biso   1.000  H
  H50      1.0000 0.59640  0.67710  0.87870  Biso   1.000  H
  H51      1.0000 0.37790  0.28500  0.01700  Biso   1.000  H
  H52      1.0000 0.62210  0.71500  0.98300  Biso   1.000  H
  C23      1.0000 0.43600  0.45980  0.08100  Biso   1.000  C
  C24      1.0000 0.56400  0.54020  0.91900  Biso   1.000  C
  H53      1.0000 0.48340  0.51500  0.13550  Biso   1.000  H
  H54      1.0000 0.51660  0.48500  0.86450  Biso   1.000  H
  H55      1.0000 0.36320  0.45970  0.08250  Biso   1.000  H
  H56      1.0000 0.63680  0.54030  0.91750  Biso   1.000  H
  H57      1.0000 0.46510  0.47970  0.03120  Biso   1.000  H
  H58      1.0000 0.53490  0.52030  0.96880  Biso   1.000  H
  C25      1.0000 0.64870  0.11070  0.04650  Biso   1.000  C
  C26      1.0000 0.35130  0.88930  0.95350  Biso   1.000  C
  H59      1.0000 0.59630  0.04650  0.99710  Biso   1.000  H
  H60      1.0000 0.40370  0.95350  0.00290  Biso   1.000  H
  H61      1.0000 0.62680  0.10050  0.10160  Biso   1.000  H
  H62      1.0000 0.37320  0.89950  0.89840  Biso   1.000  H
  C27      1.0000 0.76030  0.11060  0.03930  Biso   1.000  C
  C28      1.0000 0.23970  0.88940  0.96070  Biso   1.000  C
  H63      1.0000 0.81180  0.17100  0.09110  Biso   1.000  H
  H64      1.0000 0.18820  0.82900  0.90890  Biso   1.000  H
  H65      1.0000 0.78460  0.12660  0.98650  Biso   1.000  H
  H66      1.0000 0.21540  0.87340  0.01350  Biso   1.000  H
  C29      1.0000 0.76140  0.99760  0.03340  Biso   1.000  C
  C30      1.0000 0.23860  0.00240  0.96660  Biso   1.000  C
  H67      1.0000 0.70900  0.93730  0.98190  Biso   1.000  H
  H68      1.0000 0.29100  0.06270  0.01810  Biso   1.000  H
  H69      1.0000 0.73730  0.98220  0.08640  Biso   1.000  H
  H70      1.0000 0.26270  0.01780  0.91360  Biso   1.000  H
  C31      1.0000 0.87540  0.99400  0.02500  Biso   1.000  C
  C32      1.0000 0.12460  0.00600  0.97500  Biso   1.000  C
  H71      1.0000 0.89190  0.99020  0.96610  Biso   1.000  H
  H72      1.0000 0.10810  0.00980  0.03390  Biso   1.000  H
  H73      1.0000 0.87580  0.92750  0.03490  Biso   1.000  H
  H74      1.0000 0.12420  0.07250  0.96510  Biso   1.000  H
  H75      1.0000 0.93010  0.06210  0.06870  Biso   1.000  H
  H76      1.0000 0.06990  0.93790  0.93130  Biso   1.000  H
  N3       1.0000 0.64460  0.21670  0.04530  Biso   1.000  N
  N4       1.0000 0.35540  0.78330  0.95470  Biso   1.000  N
  H77      1.0000 0.69460  0.27560  0.08980  Biso   1.000  H
  H78      1.0000 0.30540  0.72440  0.91020  Biso   1.000  H
  H79      1.0000 0.66360  0.22490  0.99400  Biso   1.000  H
  H80      1.0000 0.33640  0.77510  0.00600  Biso   1.000  H
  C33      1.0000 0.03960  0.63990  0.10750  Biso   1.000  C
  C34      1.0000 0.96040  0.36010  0.89250  Biso   1.000  C
  H81      1.0000 0.97050  0.57460  0.07870  Biso   1.000  H
  H82      1.0000 0.02950  0.42540  0.92130  Biso   1.000  H
  H83      1.0000 0.08410  0.65380  0.06170  Biso   1.000  H
  H84      1.0000 0.91590  0.34620  0.93830  Biso   1.000  H
  C35      1.0000 0.01680  0.74300  0.15570  Biso   1.000  C
  C36      1.0000 0.98320  0.25700  0.84430  Biso   1.000  C
  H85      1.0000 0.99580  0.73860  0.21260  Biso   1.000  H
  H86      1.0000 0.00420  0.26140  0.78740  Biso   1.000  H
  H87      1.0000 0.08540  0.81020  0.16880  Biso   1.000  H
  H88      1.0000 0.91460  0.18980  0.83120  Biso   1.000  H
  C37      1.0000 0.93950  0.75980  0.11510  Biso   1.000  C
  C38      1.0000 0.06050  0.24020  0.88490  Biso   1.000  C
  H89      1.0000 0.95480  0.75370  0.05500  Biso   1.000  H
  H90      1.0000 0.04520  0.24630  0.94500  Biso   1.000  H
  H91      1.0000 0.94680  0.83800  0.14650  Biso   1.000  H
  H92      1.0000 0.05320  0.16200  0.85350  Biso   1.000  H
  C39      1.0000 0.82500  0.68310  0.10860  Biso   1.000  C
  C40      1.0000 0.17500  0.31690  0.89140  Biso   1.000  C
  H93      1.0000 0.81610  0.60500  0.07840  Biso   1.000  H
  H94      1.0000 0.18390  0.39500  0.92160  Biso   1.000  H
  H95      1.0000 0.77740  0.70110  0.07560  Biso   1.000  H
  H96      1.0000 0.22260  0.29890  0.92440  Biso   1.000  H
  H97      1.0000 0.80610  0.69280  0.16760  Biso   1.000  H
  H98      1.0000 0.19390  0.30720  0.83240  Biso   1.000  H
  C41      1.0000 0.12660  0.51690  0.12810  Biso   1.000  C
  C42      1.0000 0.87340  0.48310  0.87190  Biso   1.000  C
  H99      1.0000 0.18410  0.53650  0.09200  Biso   1.000  H
  H100     1.0000 0.81590  0.46350  0.90800  Biso   1.000  H
  H101     1.0000 0.06260  0.45210  0.08920  Biso   1.000  H
  H102     1.0000 0.93740  0.54790  0.91080  Biso   1.000  H
  C43      1.0000 0.17010  0.48250  0.20550  Biso   1.000  C
  C44      1.0000 0.82990  0.51750  0.79450  Biso   1.000  C
  C45      1.0000 0.18160  0.37740  0.16720  Biso   1.000  C
  C46      1.0000 0.81840  0.62260  0.83280  Biso   1.000  C
  C47      1.0000 0.07790  0.30200  0.17090  Biso   1.000  C
  C48      1.0000 0.92210  0.69800  0.82910  Biso   1.000  C
  H103     1.0000 0.05140  0.33680  0.22340  Biso   1.000  H
  H104     1.0000 0.94860  0.66320  0.77660  Biso   1.000  H
  H105     1.0000 0.08270  0.23300  0.17310  Biso   1.000  H
  H106     1.0000 0.91730  0.76700  0.82690  Biso   1.000  H
  H107     1.0000 0.02790  0.28260  0.11860  Biso   1.000  H
  H108     1.0000 0.97210  0.71740  0.88140  Biso   1.000  H
  N5       1.0000 0.09720  0.61460  0.16930  Biso   1.000  N
  N6       1.0000 0.90280  0.38540  0.83070  Biso   1.000  N
  H109     1.0000 0.05480  0.60080  0.21050  Biso   1.000  H
  H110     1.0000 0.94520  0.39920  0.78950  Biso   1.000  H
  H111     1.0000 0.15880  0.67650  0.19740  Biso   1.000  H
  H112     1.0000 0.84120  0.32350  0.80260  Biso   1.000  H
  C49      1.0000 0.42950  0.94210  0.21200  Biso   1.000  C
  C50      1.0000 0.57050  0.05790  0.78800  Biso   1.000  C
  C51      1.0000 0.33090  0.82990  0.18800  Biso   1.000  C
  C52      1.0000 0.66910  0.17010  0.81200  Biso   1.000  C
  C53      1.0000 0.49550  0.05830  0.51470  Biso   1.000  C
  C54      1.0000 0.50450  0.94170  0.48530  Biso   1.000  C
  C55      1.0000 0.13130  0.81440  0.39930  Biso   1.000  C
  C56      1.0000 0.86870  0.18560  0.60070  Biso   1.000  C
  C57      1.0000 0.01660  0.81600  0.40990  Biso   1.000  C
  C58      1.0000 0.98340  0.18400  0.59010  Biso   1.000  C
  C59      1.0000 0.85410  0.45340  0.21770  Biso   1.000  C
  C60      1.0000 0.14590  0.54660  0.78230  Biso   1.000  C
  C61      1.0000 0.77030  0.40320  0.27300  Biso   1.000  C
  C62      1.0000 0.22970  0.59680  0.72700  Biso   1.000  C
  C63      1.0000 0.98570  0.54230  0.53700  Biso   1.000  C
  C64      1.0000 0.01430  0.45770  0.46300  Biso   1.000  C
  O1       1.0000 0.45020  0.00310  0.29500  Biso   1.000  O
  O2       1.0000 0.54980  0.99690  0.70500  Biso   1.000  O
  O3       1.0000 0.27940  0.81480  0.25160  Biso   1.000  O
  O4       1.0000 0.72060  0.18520  0.74840  Biso   1.000  O
  O5       1.0000 0.47950  0.96690  0.15560  Biso   1.000  O
  O6       1.0000 0.52050  0.03310  0.84440  Biso   1.000  O
  O7       1.0000 0.30200  0.76000  0.11210  Biso   1.000  O
  O8       1.0000 0.69800  0.24000  0.88790  Biso   1.000  O
  O9       1.0000 0.20660  0.90890  0.40980  Biso   1.000  O
  O10      1.0000 0.79340  0.09110  0.59020  Biso   1.000  O
  O11      1.0000 0.00590  0.90550  0.42110  Biso   1.000  O
  O12      1.0000 0.99410  0.09450  0.57890  Biso   1.000  O
  O13      1.0000 0.13900  0.72290  0.38180  Biso   1.000  O
  O14      1.0000 0.86100  0.27710  0.61820  Biso   1.000  O
  O15      1.0000 0.93990  0.72490  0.40540  Biso   1.000  O
  O16      1.0000 0.06010  0.27510  0.59460  Biso   1.000  O
  O17      1.0000 0.42220  0.06470  0.47050  Biso   1.000  O
  O18      1.0000 0.57780  0.93530  0.52950  Biso   1.000  O
  O19      1.0000 0.55870  0.13520  0.57960  Biso   1.000  O
  O20      1.0000 0.44130  0.86480  0.42040  Biso   1.000  O
  O21      1.0000 0.94110  0.53740  0.26200  Biso   1.000  O
  O22      1.0000 0.05890  0.46260  0.73800  Biso   1.000  O
  O23      1.0000 0.79070  0.45630  0.35420  Biso   1.000  O
  O24      1.0000 0.20930  0.54370  0.64580  Biso   1.000  O
  O25      1.0000 0.83520  0.41210  0.13690  Biso   1.000  O
  O26      1.0000 0.16480  0.58790  0.86310  Biso   1.000  O
  O27      1.0000 0.69100  0.31400  0.23160  Biso   1.000  O
  O28      1.0000 0.30900  0.68600  0.76840  Biso   1.000  O
  O29      1.0000 0.96630  0.61630  0.51760  Biso   1.000  O
  O30      1.0000 0.03370  0.38370  0.48240  Biso   1.000  O
  O31      1.0000 0.98600  0.53300  0.61040  Biso   1.000  O
  O32      1.0000 0.01400  0.46700  0.38960  Biso   1.000  O
  Cu1      1.0000 0.34539  0.93354  0.36449  Biso   1.000  Cu
  Cu2      1.0000 0.65461  0.06646  0.63551  Biso   1.000  Cu
  Cu3      1.0000 0.96121  0.58711  0.39049  Biso   1.000  Cu
  Cu4      1.0000 0.03879  0.41289  0.60951  Biso   1.000  Cu
  C65      1.0000 0.68390  0.41180  0.53810  Biso   1.000  C
  C66      1.0000 0.31610  0.58820  0.46190  Biso   1.000  C
  N7       1.0000 0.76390  0.27590  0.44760  Biso   1.000  N
  N8       1.0000 0.23610  0.72410  0.55240  Biso   1.000  N
  C67      1.0000 0.73470  0.16900  0.39530  Biso   1.000  C
  C68      1.0000 0.26530  0.83100  0.60470  Biso   1.000  C
  C69      1.0000 0.78100  0.13030  0.30190  Biso   1.000  C
  C70      1.0000 0.21900  0.86970  0.69810  Biso   1.000  C
  C71      1.0000 0.84990  0.10380  0.34860  Biso   1.000  C
  C72      1.0000 0.15010  0.89620  0.65140  Biso   1.000  C
  H113     1.0000 0.81250  0.06560  0.38800  Biso   1.000  H
  H114     1.0000 0.18750  0.93440  0.61200  Biso   1.000  H
  H115     1.0000 0.91630  0.17030  0.38180  Biso   1.000  H
  H116     1.0000 0.08370  0.82970  0.61820  Biso   1.000  H
  C73      1.0000 0.87320  0.02030  0.26430  Biso   1.000  C
  C74      1.0000 0.12680  0.97970  0.73570  Biso   1.000  C
  H117     1.0000 0.80440  0.96350  0.22820  Biso   1.000  H
  H118     1.0000 0.19560  0.03650  0.77180  Biso   1.000  H
  H119     1.0000 0.91390  0.98300  0.28300  Biso   1.000  H
  H120     1.0000 0.08610  0.01700  0.71700  Biso   1.000  H
  H121     1.0000 0.91570  0.06300  0.23010  Biso   1.000  H
  H122     1.0000 0.08430  0.93700  0.76990  Biso   1.000  H
  C75      1.0000 0.73700  0.18100  0.33200  Biso   1.000  C
  C76      1.0000 0.26300  0.81900  0.66800  Biso   1.000  C
  C77      1.0000 0.63970  0.29500  0.45470  Biso   1.000  C
  C78      1.0000 0.36030  0.70500  0.54530  Biso   1.000  C
  C79      1.0000 0.51030  0.30210  0.41840  Biso   1.000  C
  C80      1.0000 0.48970  0.69790  0.58160  Biso   1.000  C
  C81      1.0000 0.49770  0.34160  0.34290  Biso   1.000  C
  C82      1.0000 0.50230  0.65840  0.65710  Biso   1.000  C
  C83      1.0000 0.55230  0.47660  0.35960  Biso   1.000  C
  C84      1.0000 0.44770  0.52340  0.64040  Biso   1.000  C
  C85      1.0000 0.53920  0.23080  0.32940  Biso   1.000  C
  C86      1.0000 0.46080  0.76920  0.67060  Biso   1.000  C
  N9       1.0000 0.63710  0.21590  0.35850  Biso   1.000  N
  N10      1.0000 0.36290  0.78410  0.64150  Biso   1.000  N
  C87      1.0000 0.58020  0.41570  0.56430  Biso   1.000  C
  C88      1.0000 0.41980  0.58430  0.43570  Biso   1.000  C
  C89      1.0000 0.29600  0.50700  0.32970  Biso   1.000  C
  C90      1.0000 0.70400  0.49300  0.67030  Biso   1.000  C
  C91      1.0000 0.23800  0.53800  0.22500  Biso   1.000  C
  C92      1.0000 0.76200  0.46200  0.77500  Biso   1.000  C
  C93      1.0000 0.58830  0.53260  0.62250  Biso   1.000  C
  C94      1.0000 0.41170  0.46740  0.37750  Biso   1.000  C
