data_image0
_cell_length_a       10.767
_cell_length_b       11.754
_cell_length_c       11.875
_cell_angle_alpha    90
_cell_angle_beta     100.287
_cell_angle_gamma    90

_symmetry_space_group_name_H-M    "P 1"
_symmetry_int_tables_number       1

loop_
  _symmetry_equiv_pos_as_xyz
  'x, y, z'

loop_
  _atom_site_label
  _atom_site_occupancy
  _atom_site_fract_x
  _atom_site_fract_y
  _atom_site_fract_z
  _atom_site_thermal_displace_type
  _atom_site_B_iso_or_equiv
  _atom_site_type_symbol
  Cu1      1.0000 0.32426  0.56963  0.77434  Biso   1.000  Cu
  Cu2      1.0000 0.67574  0.06963  0.72566  Biso   1.000  Cu
  Cu3      1.0000 0.67574  0.43037  0.22566  Biso   1.000  Cu
  Cu4      1.0000 0.32426  0.93037  0.27434  Biso   1.000  Cu
  Cl1      1.0000 0.55087  0.47257  0.83546  Biso   1.000  Cl
  Cl2      1.0000 0.44913  0.97257  0.66454  Biso   1.000  Cl
  Cl3      1.0000 0.44913  0.52743  0.16454  Biso   1.000  Cl
  Cl4      1.0000 0.55087  0.02743  0.33546  Biso   1.000  Cl
  N1       1.0000 0.56670  0.82220  0.93340  Biso   1.000  N
  N2       1.0000 0.43330  0.32220  0.56660  Biso   1.000  N
  N3       1.0000 0.43330  0.17780  0.06660  Biso   1.000  N
  N4       1.0000 0.56670  0.67780  0.43340  Biso   1.000  N
  C1       1.0000 0.49600  0.75190  0.86090  Biso   1.000  C
  C2       1.0000 0.50400  0.25190  0.63910  Biso   1.000  C
  C3       1.0000 0.50400  0.24810  0.13910  Biso   1.000  C
  C4       1.0000 0.49600  0.74810  0.36090  Biso   1.000  C
  H1       1.0000 0.52980  0.73030  0.79540  Biso   1.000  H
  H2       1.0000 0.47020  0.23030  0.70460  Biso   1.000  H
  H3       1.0000 0.47020  0.26970  0.20460  Biso   1.000  H
  H4       1.0000 0.52980  0.76970  0.29540  Biso   1.000  H
  N5       1.0000 0.38430  0.70850  0.86860  Biso   1.000  N
  N6       1.0000 0.61570  0.20850  0.63140  Biso   1.000  N
  N7       1.0000 0.61570  0.29150  0.13140  Biso   1.000  N
  N8       1.0000 0.38430  0.79150  0.36860  Biso   1.000  N
  C5       1.0000 0.34100  0.74830  0.96160  Biso   1.000  C
  C6       1.0000 0.65900  0.24830  0.53840  Biso   1.000  C
  C7       1.0000 0.65900  0.25170  0.03840  Biso   1.000  C
  C8       1.0000 0.34100  0.75170  0.46160  Biso   1.000  C
  C9       1.0000 0.40430  0.82050  0.04370  Biso   1.000  C
  C10      1.0000 0.59570  0.32050  0.45630  Biso   1.000  C
  C11      1.0000 0.59570  0.17950  0.95630  Biso   1.000  C
  C12      1.0000 0.40430  0.67950  0.54370  Biso   1.000  C
  C13      1.0000 0.52550  0.85670  0.02970  Biso   1.000  C
  C14      1.0000 0.47450  0.35670  0.47030  Biso   1.000  C
  C15      1.0000 0.47450  0.14330  0.97030  Biso   1.000  C
  C16      1.0000 0.52550  0.64330  0.52970  Biso   1.000  C
  N9       1.0000 0.60190  0.92120  0.10220  Biso   1.000  N
  N10      1.0000 0.39810  0.42120  0.39780  Biso   1.000  N
  N11      1.0000 0.39810  0.07880  0.89780  Biso   1.000  N
  N12      1.0000 0.60190  0.57880  0.60220  Biso   1.000  N
  H5       1.0000 0.68600  0.93700  0.08600  Biso   1.000  H
  H6       1.0000 0.31400  0.43700  0.41400  Biso   1.000  H
  H7       1.0000 0.31400  0.06300  0.91400  Biso   1.000  H
  H8       1.0000 0.68600  0.56300  0.58600  Biso   1.000  H
  H9       1.0000 0.55900  0.95700  0.16000  Biso   1.000  H
  H10      1.0000 0.44100  0.45700  0.34000  Biso   1.000  H
  H11      1.0000 0.44100  0.04300  0.84000  Biso   1.000  H
  H12      1.0000 0.55900  0.54300  0.66000  Biso   1.000  H
  N13      1.0000 0.32860  0.84160  0.12520  Biso   1.000  N
  N14      1.0000 0.67140  0.34160  0.37480  Biso   1.000  N
  N15      1.0000 0.67140  0.15840  0.87480  Biso   1.000  N
  N16      1.0000 0.32860  0.65840  0.62520  Biso   1.000  N
  C17      1.0000 0.22480  0.78430  0.08920  Biso   1.000  C
  C18      1.0000 0.77520  0.28430  0.41080  Biso   1.000  C
  C19      1.0000 0.77520  0.21570  0.91080  Biso   1.000  C
  C20      1.0000 0.22480  0.71570  0.58920  Biso   1.000  C
  H13      1.0000 0.15490  0.78390  0.12800  Biso   1.000  H
  H14      1.0000 0.84510  0.28390  0.37200  Biso   1.000  H
  H15      1.0000 0.84510  0.21610  0.87200  Biso   1.000  H
  H16      1.0000 0.15490  0.71610  0.62800  Biso   1.000  H
  N17      1.0000 0.22690  0.72550  0.99100  Biso   1.000  N
  N18      1.0000 0.77310  0.22550  0.50900  Biso   1.000  N
  N19      1.0000 0.77310  0.27450  0.00900  Biso   1.000  N
  N20      1.0000 0.22690  0.77450  0.49100  Biso   1.000  N
  C21      1.0000 0.12410  0.65940  0.92570  Biso   1.000  C
  C22      1.0000 0.87590  0.15940  0.57430  Biso   1.000  C
  C23      1.0000 0.87590  0.34060  0.07430  Biso   1.000  C
  C24      1.0000 0.12410  0.84060  0.42570  Biso   1.000  C
  H17      1.0000 0.04420  0.68040  0.95060  Biso   1.000  H
  H18      1.0000 0.95580  0.18040  0.54940  Biso   1.000  H
  H19      1.0000 0.95580  0.31960  0.04940  Biso   1.000  H
  H20      1.0000 0.04420  0.81960  0.45060  Biso   1.000  H
  H21      1.0000 0.11570  0.67910  0.84360  Biso   1.000  H
  H22      1.0000 0.88430  0.17910  0.65640  Biso   1.000  H
  H23      1.0000 0.88430  0.32090  0.15640  Biso   1.000  H
  H24      1.0000 0.11570  0.82090  0.34360  Biso   1.000  H
  C25      1.0000 0.14430  0.53280  0.94000  Biso   1.000  C
  C26      1.0000 0.85570  0.03280  0.56000  Biso   1.000  C
  C27      1.0000 0.85570  0.46720  0.06000  Biso   1.000  C
  C28      1.0000 0.14430  0.96720  0.44000  Biso   1.000  C
  H25      1.0000 0.07340  0.49260  0.89150  Biso   1.000  H
  H26      1.0000 0.92660  0.99260  0.60850  Biso   1.000  H
  H27      1.0000 0.92660  0.50740  0.10850  Biso   1.000  H
  H28      1.0000 0.07340  0.00740  0.39150  Biso   1.000  H
  H29      1.0000 0.14320  0.51210  0.02060  Biso   1.000  H
  H30      1.0000 0.85680  0.01210  0.47940  Biso   1.000  H
  H31      1.0000 0.85680  0.48790  0.97940  Biso   1.000  H
  H32      1.0000 0.14320  0.98790  0.52060  Biso   1.000  H
  N21      1.0000 0.26400  0.49350  0.90930  Biso   1.000  N
  N22      1.0000 0.73600  0.99350  0.59070  Biso   1.000  N
  N23      1.0000 0.73600  0.50650  0.09070  Biso   1.000  N
  N24      1.0000 0.26400  0.00650  0.40930  Biso   1.000  N
  H33      1.0000 0.31900  0.50100  0.97200  Biso   1.000  H
  H34      1.0000 0.68100  0.00100  0.52800  Biso   1.000  H
  H35      1.0000 0.68100  0.49900  0.02800  Biso   1.000  H
  H36      1.0000 0.31900  0.99900  0.47200  Biso   1.000  H
  C29      1.0000 0.25990  0.36970  0.88130  Biso   1.000  C
  C30      1.0000 0.74010  0.86970  0.61870  Biso   1.000  C
  C31      1.0000 0.74010  0.63030  0.11870  Biso   1.000  C
  C32      1.0000 0.25990  0.13030  0.38130  Biso   1.000  C
  H37      1.0000 0.34670  0.33900  0.88990  Biso   1.000  H
  H38      1.0000 0.65330  0.83900  0.61010  Biso   1.000  H
  H39      1.0000 0.65330  0.66100  0.11010  Biso   1.000  H
  H40      1.0000 0.34670  0.16100  0.38990  Biso   1.000  H
  H41      1.0000 0.21470  0.32790  0.93410  Biso   1.000  H
  H42      1.0000 0.78530  0.82790  0.56590  Biso   1.000  H
  H43      1.0000 0.78530  0.67210  0.06590  Biso   1.000  H
  H44      1.0000 0.21470  0.17210  0.43410  Biso   1.000  H
  C33      1.0000 0.19270  0.35480  0.76040  Biso   1.000  C
  C34      1.0000 0.80730  0.85480  0.73960  Biso   1.000  C
  C35      1.0000 0.80730  0.64520  0.23960  Biso   1.000  C
  C36      1.0000 0.19270  0.14520  0.26040  Biso   1.000  C
  H45      1.0000 0.10140  0.36970  0.75520  Biso   1.000  H
  H46      1.0000 0.89860  0.86970  0.74480  Biso   1.000  H
  H47      1.0000 0.89860  0.63030  0.24480  Biso   1.000  H
  H48      1.0000 0.10140  0.13030  0.25520  Biso   1.000  H
  H49      1.0000 0.20340  0.27580  0.73470  Biso   1.000  H
  H50      1.0000 0.79660  0.77580  0.76530  Biso   1.000  H
  H51      1.0000 0.79660  0.72420  0.26530  Biso   1.000  H
  H52      1.0000 0.20340  0.22420  0.23470  Biso   1.000  H
  N25      1.0000 0.24740  0.43630  0.68650  Biso   1.000  N
  N26      1.0000 0.75260  0.93630  0.81350  Biso   1.000  N
  N27      1.0000 0.75260  0.56370  0.31350  Biso   1.000  N
  N28      1.0000 0.24740  0.06370  0.18650  Biso   1.000  N
  H53      1.0000 0.31100  0.41700  0.65700  Biso   1.000  H
  H54      1.0000 0.68900  0.91700  0.84300  Biso   1.000  H
  H55      1.0000 0.68900  0.58300  0.34300  Biso   1.000  H
  H56      1.0000 0.31100  0.08300  0.15700  Biso   1.000  H
  H57      1.0000 0.18600  0.45800  0.62700  Biso   1.000  H
  H58      1.0000 0.81400  0.95800  0.87300  Biso   1.000  H
  H59      1.0000 0.81400  0.54200  0.37300  Biso   1.000  H
  H60      1.0000 0.18600  0.04200  0.12700  Biso   1.000  H
  N29      1.0000 0.06820  0.08920  0.90980  Biso   1.000  N
  N30      1.0000 0.93180  0.58920  0.59020  Biso   1.000  N
  N31      1.0000 0.93180  0.91080  0.09020  Biso   1.000  N
  N32      1.0000 0.06820  0.41080  0.40980  Biso   1.000  N
  O1       1.0000 0.99110  0.08440  0.82130  Biso   1.000  O
  O2       1.0000 0.00890  0.58440  0.67870  Biso   1.000  O
  O3       1.0000 0.00890  0.91560  0.17870  Biso   1.000  O
  O4       1.0000 0.99110  0.41560  0.32130  Biso   1.000  O
  O5       1.0000 0.07100  0.17160  0.97680  Biso   1.000  O
  O6       1.0000 0.92900  0.67160  0.52320  Biso   1.000  O
  O7       1.0000 0.92900  0.82840  0.02320  Biso   1.000  O
  O8       1.0000 0.07100  0.32840  0.47680  Biso   1.000  O
  O9       1.0000 0.14610  0.00910  0.93670  Biso   1.000  O
  O10      1.0000 0.85390  0.50910  0.56330  Biso   1.000  O
  O11      1.0000 0.85390  0.99090  0.06330  Biso   1.000  O
  O12      1.0000 0.14610  0.49090  0.43670  Biso   1.000  O
  O13      1.0000 0.16110  0.89960  0.72670  Biso   1.000  O
  O14      1.0000 0.83890  0.39960  0.77330  Biso   1.000  O
  O15      1.0000 0.83890  0.10040  0.27330  Biso   1.000  O
  O16      1.0000 0.16110  0.60040  0.22670  Biso   1.000  O
  H61      1.0000 0.13800  0.92700  0.79600  Biso   1.000  H
  H62      1.0000 0.86200  0.42700  0.70400  Biso   1.000  H
  H63      1.0000 0.86200  0.07300  0.20400  Biso   1.000  H
  H64      1.0000 0.13800  0.57300  0.29600  Biso   1.000  H
  H65      1.0000 0.17400  0.97800  0.70100  Biso   1.000  H
  H66      1.0000 0.82600  0.47800  0.79900  Biso   1.000  H
  H67      1.0000 0.82600  0.02200  0.29900  Biso   1.000  H
  H68      1.0000 0.17400  0.52200  0.20100  Biso   1.000  H
