data_image0
_cell_length_a       25.184
_cell_length_b       25.184
_cell_length_c       12.6272
_cell_angle_alpha    90
_cell_angle_beta     90
_cell_angle_gamma    90

_symmetry_space_group_name_H-M    "P 1"
_symmetry_int_tables_number       1

loop_
  _symmetry_equiv_pos_as_xyz
  'x, y, z'

loop_
  _atom_site_label
  _atom_site_occupancy
  _atom_site_fract_x
  _atom_site_fract_y
  _atom_site_fract_z
  _atom_site_thermal_displace_type
  _atom_site_B_iso_or_equiv
  _atom_site_type_symbol
  N1       1.0000 0.73900  0.67360  0.97940  Biso   1.000  N
  N2       1.0000 0.07640  0.98900  0.22940  Biso   1.000  N
  N3       1.0000 0.23900  0.17360  0.47940  Biso   1.000  N
  N4       1.0000 0.57640  0.48900  0.72940  Biso   1.000  N
  N5       1.0000 0.92360  0.51100  0.22940  Biso   1.000  N
  N6       1.0000 0.76100  0.32640  0.47940  Biso   1.000  N
  N7       1.0000 0.42360  0.01100  0.72940  Biso   1.000  N
  N8       1.0000 0.26100  0.82640  0.97940  Biso   1.000  N
  N9       1.0000 0.26100  0.32640  0.02060  Biso   1.000  N
  N10      1.0000 0.42360  0.51100  0.27060  Biso   1.000  N
  N11      1.0000 0.76100  0.82640  0.52060  Biso   1.000  N
  N12      1.0000 0.92360  0.01100  0.77060  Biso   1.000  N
  N13      1.0000 0.57640  0.98900  0.27060  Biso   1.000  N
  N14      1.0000 0.23900  0.67360  0.52060  Biso   1.000  N
  N15      1.0000 0.07640  0.48900  0.77060  Biso   1.000  N
  N16      1.0000 0.73900  0.17360  0.02060  Biso   1.000  N
  O1       1.0000 0.77350  0.63660  0.96970  Biso   1.000  O
  O2       1.0000 0.11340  0.02350  0.21970  Biso   1.000  O
  O3       1.0000 0.27350  0.13660  0.46970  Biso   1.000  O
  O4       1.0000 0.61340  0.52350  0.71970  Biso   1.000  O
  O5       1.0000 0.88660  0.47650  0.21970  Biso   1.000  O
  O6       1.0000 0.72650  0.36340  0.46970  Biso   1.000  O
  O7       1.0000 0.38660  0.97650  0.71970  Biso   1.000  O
  O8       1.0000 0.22650  0.86340  0.96970  Biso   1.000  O
  O9       1.0000 0.22650  0.36340  0.03030  Biso   1.000  O
  O10      1.0000 0.38660  0.47650  0.28030  Biso   1.000  O
  O11      1.0000 0.72650  0.86340  0.53030  Biso   1.000  O
  O12      1.0000 0.88660  0.97650  0.78030  Biso   1.000  O
  O13      1.0000 0.61340  0.02350  0.28030  Biso   1.000  O
  O14      1.0000 0.27350  0.63660  0.53030  Biso   1.000  O
  O15      1.0000 0.11340  0.52350  0.78030  Biso   1.000  O
  O16      1.0000 0.77350  0.13660  0.03030  Biso   1.000  O
  O17      1.0000 0.69190  0.66160  0.97020  Biso   1.000  O
  O18      1.0000 0.08840  0.94190  0.22020  Biso   1.000  O
  O19      1.0000 0.19190  0.16160  0.47020  Biso   1.000  O
  O20      1.0000 0.58840  0.44190  0.72020  Biso   1.000  O
  O21      1.0000 0.91160  0.55810  0.22020  Biso   1.000  O
  O22      1.0000 0.80810  0.33840  0.47020  Biso   1.000  O
  O23      1.0000 0.41160  0.05810  0.72020  Biso   1.000  O
  O24      1.0000 0.30810  0.83840  0.97020  Biso   1.000  O
  O25      1.0000 0.30810  0.33840  0.02980  Biso   1.000  O
  O26      1.0000 0.41160  0.55810  0.27980  Biso   1.000  O
  O27      1.0000 0.80810  0.83840  0.52980  Biso   1.000  O
  O28      1.0000 0.91160  0.05810  0.77980  Biso   1.000  O
  O29      1.0000 0.58840  0.94190  0.27980  Biso   1.000  O
  O30      1.0000 0.19190  0.66160  0.52980  Biso   1.000  O
  O31      1.0000 0.08840  0.44190  0.77980  Biso   1.000  O
  O32      1.0000 0.69190  0.16160  0.02980  Biso   1.000  O
  O33      1.0000 0.75420  0.71800  0.99580  Biso   1.000  O
  O34      1.0000 0.03200  0.00420  0.24580  Biso   1.000  O
  O35      1.0000 0.25420  0.21800  0.49580  Biso   1.000  O
  O36      1.0000 0.53200  0.50420  0.74580  Biso   1.000  O
  O37      1.0000 0.96800  0.49580  0.24580  Biso   1.000  O
  O38      1.0000 0.74580  0.28200  0.49580  Biso   1.000  O
  O39      1.0000 0.46800  0.99580  0.74580  Biso   1.000  O
  O40      1.0000 0.24580  0.78200  0.99580  Biso   1.000  O
  O41      1.0000 0.24580  0.28200  0.00420  Biso   1.000  O
  O42      1.0000 0.46800  0.49580  0.25420  Biso   1.000  O
  O43      1.0000 0.74580  0.78200  0.50420  Biso   1.000  O
  O44      1.0000 0.96800  0.99580  0.75420  Biso   1.000  O
  O45      1.0000 0.53200  0.00420  0.25420  Biso   1.000  O
  O46      1.0000 0.25420  0.71800  0.50420  Biso   1.000  O
  O47      1.0000 0.03200  0.50420  0.75420  Biso   1.000  O
  O48      1.0000 0.75420  0.21800  0.00420  Biso   1.000  O
  Cu1      1.0000 0.62309  0.62036  0.53399  Biso   1.000  Cu
  Cu2      1.0000 0.12964  0.87309  0.78399  Biso   1.000  Cu
  Cu3      1.0000 0.12309  0.12036  0.03399  Biso   1.000  Cu
  Cu4      1.0000 0.62964  0.37309  0.28399  Biso   1.000  Cu
  Cu5      1.0000 0.87036  0.62691  0.78399  Biso   1.000  Cu
  Cu6      1.0000 0.87691  0.37964  0.03399  Biso   1.000  Cu
  Cu7      1.0000 0.37036  0.12691  0.28399  Biso   1.000  Cu
  Cu8      1.0000 0.37691  0.87964  0.53399  Biso   1.000  Cu
  Cu9      1.0000 0.37691  0.37964  0.46601  Biso   1.000  Cu
  Cu10     1.0000 0.37036  0.62691  0.71601  Biso   1.000  Cu
  Cu11     1.0000 0.87691  0.87964  0.96601  Biso   1.000  Cu
  Cu12     1.0000 0.87036  0.12691  0.21601  Biso   1.000  Cu
  Cu13     1.0000 0.62964  0.87309  0.71601  Biso   1.000  Cu
  Cu14     1.0000 0.12309  0.62036  0.96601  Biso   1.000  Cu
  Cu15     1.0000 0.12964  0.37309  0.21601  Biso   1.000  Cu
  Cu16     1.0000 0.62309  0.12036  0.46601  Biso   1.000  Cu
  O49      1.0000 0.65380  0.64000  0.67580  Biso   1.000  O
  O50      1.0000 0.11000  0.90380  0.92580  Biso   1.000  O
  O51      1.0000 0.15380  0.14000  0.17580  Biso   1.000  O
  O52      1.0000 0.61000  0.40380  0.42580  Biso   1.000  O
  O53      1.0000 0.89000  0.59620  0.92580  Biso   1.000  O
  O54      1.0000 0.84620  0.36000  0.17580  Biso   1.000  O
  O55      1.0000 0.39000  0.09620  0.42580  Biso   1.000  O
  O56      1.0000 0.34620  0.86000  0.67580  Biso   1.000  O
  O57      1.0000 0.34620  0.36000  0.32420  Biso   1.000  O
  O58      1.0000 0.39000  0.59620  0.57420  Biso   1.000  O
  O59      1.0000 0.84620  0.86000  0.82420  Biso   1.000  O
  O60      1.0000 0.89000  0.09620  0.07420  Biso   1.000  O
  O61      1.0000 0.61000  0.90380  0.57420  Biso   1.000  O
  O62      1.0000 0.15380  0.64000  0.82420  Biso   1.000  O
  O63      1.0000 0.11000  0.40380  0.07420  Biso   1.000  O
  O64      1.0000 0.65380  0.14000  0.32420  Biso   1.000  O
  O65      1.0000 0.61400  0.70770  0.47960  Biso   1.000  O
  O66      1.0000 0.04230  0.86400  0.72960  Biso   1.000  O
  O67      1.0000 0.11400  0.20770  0.97960  Biso   1.000  O
  O68      1.0000 0.54230  0.36400  0.22960  Biso   1.000  O
  O69      1.0000 0.95770  0.63600  0.72960  Biso   1.000  O
  O70      1.0000 0.88600  0.29230  0.97960  Biso   1.000  O
  O71      1.0000 0.45770  0.13600  0.22960  Biso   1.000  O
  O72      1.0000 0.38600  0.79230  0.47960  Biso   1.000  O
  O73      1.0000 0.38600  0.29230  0.52040  Biso   1.000  O
  O74      1.0000 0.45770  0.63600  0.77040  Biso   1.000  O
  O75      1.0000 0.88600  0.79230  0.02040  Biso   1.000  O
  O76      1.0000 0.95770  0.13600  0.27040  Biso   1.000  O
  O77      1.0000 0.54230  0.86400  0.77040  Biso   1.000  O
  O78      1.0000 0.11400  0.70770  0.02040  Biso   1.000  O
  O79      1.0000 0.04230  0.36400  0.27040  Biso   1.000  O
  O80      1.0000 0.61400  0.20770  0.52040  Biso   1.000  O
  N17      1.0000 0.77470  0.49820  0.20900  Biso   1.000  N
  N18      1.0000 0.25180  0.02470  0.45900  Biso   1.000  N
  N19      1.0000 0.27470  0.99820  0.70900  Biso   1.000  N
  N20      1.0000 0.75180  0.52470  0.95900  Biso   1.000  N
  N21      1.0000 0.74820  0.47530  0.45900  Biso   1.000  N
  N22      1.0000 0.72530  0.50180  0.70900  Biso   1.000  N
  N23      1.0000 0.24820  0.97530  0.95900  Biso   1.000  N
  N24      1.0000 0.22530  0.00180  0.20900  Biso   1.000  N
  N25      1.0000 0.22530  0.50180  0.79100  Biso   1.000  N
  N26      1.0000 0.24820  0.47530  0.04100  Biso   1.000  N
  N27      1.0000 0.72530  0.00180  0.29100  Biso   1.000  N
  N28      1.0000 0.74820  0.97530  0.54100  Biso   1.000  N
  N29      1.0000 0.75180  0.02470  0.04100  Biso   1.000  N
  N30      1.0000 0.27470  0.49820  0.29100  Biso   1.000  N
  N31      1.0000 0.25180  0.52470  0.54100  Biso   1.000  N
  N32      1.0000 0.77470  0.99820  0.79100  Biso   1.000  N
  H1       1.0000 0.80870  0.49050  0.21190  Biso   1.000  H
  H2       1.0000 0.25950  0.05870  0.46190  Biso   1.000  H
  H3       1.0000 0.30870  0.99050  0.71190  Biso   1.000  H
  H4       1.0000 0.75950  0.55870  0.96190  Biso   1.000  H
  H5       1.0000 0.74050  0.44130  0.46190  Biso   1.000  H
  H6       1.0000 0.69130  0.50950  0.71190  Biso   1.000  H
  H7       1.0000 0.24050  0.94130  0.96190  Biso   1.000  H
  H8       1.0000 0.19130  0.00950  0.21190  Biso   1.000  H
  H9       1.0000 0.19130  0.50950  0.78810  Biso   1.000  H
  H10      1.0000 0.24050  0.44130  0.03810  Biso   1.000  H
  H11      1.0000 0.69130  0.00950  0.28810  Biso   1.000  H
  H12      1.0000 0.74050  0.94130  0.53810  Biso   1.000  H
  H13      1.0000 0.75950  0.05870  0.03810  Biso   1.000  H
  H14      1.0000 0.30870  0.49050  0.28810  Biso   1.000  H
  H15      1.0000 0.25950  0.55870  0.53810  Biso   1.000  H
  H16      1.0000 0.80870  0.99050  0.78810  Biso   1.000  H
  C1       1.0000 0.76140  0.55070  0.19790  Biso   1.000  C
  C2       1.0000 0.19930  0.01140  0.44790  Biso   1.000  C
  C3       1.0000 0.26140  0.05070  0.69790  Biso   1.000  C
  C4       1.0000 0.69930  0.51140  0.94790  Biso   1.000  C
  C5       1.0000 0.80070  0.48860  0.44790  Biso   1.000  C
  C6       1.0000 0.73860  0.44930  0.69790  Biso   1.000  C
  C7       1.0000 0.30070  0.98860  0.94790  Biso   1.000  C
  C8       1.0000 0.23860  0.94930  0.19790  Biso   1.000  C
  C9       1.0000 0.23860  0.44930  0.80210  Biso   1.000  C
  C10      1.0000 0.30070  0.48860  0.05210  Biso   1.000  C
  C11      1.0000 0.73860  0.94930  0.30210  Biso   1.000  C
  C12      1.0000 0.80070  0.98860  0.55210  Biso   1.000  C
  C13      1.0000 0.69930  0.01140  0.05210  Biso   1.000  C
  C14      1.0000 0.26140  0.55070  0.30210  Biso   1.000  C
  C15      1.0000 0.19930  0.51140  0.55210  Biso   1.000  C
  C16      1.0000 0.76140  0.05070  0.80210  Biso   1.000  C
  N33      1.0000 0.80190  0.58620  0.19290  Biso   1.000  N
  N34      1.0000 0.16380  0.05190  0.44290  Biso   1.000  N
  N35      1.0000 0.30190  0.08620  0.69290  Biso   1.000  N
  N36      1.0000 0.66380  0.55190  0.94290  Biso   1.000  N
  N37      1.0000 0.83620  0.44810  0.44290  Biso   1.000  N
  N38      1.0000 0.69810  0.41380  0.69290  Biso   1.000  N
  N39      1.0000 0.33620  0.94810  0.94290  Biso   1.000  N
  N40      1.0000 0.19810  0.91380  0.19290  Biso   1.000  N
  N41      1.0000 0.19810  0.41380  0.80710  Biso   1.000  N
  N42      1.0000 0.33620  0.44810  0.05710  Biso   1.000  N
  N43      1.0000 0.69810  0.91380  0.30710  Biso   1.000  N
  N44      1.0000 0.83620  0.94810  0.55710  Biso   1.000  N
  N45      1.0000 0.66380  0.05190  0.05710  Biso   1.000  N
  N46      1.0000 0.30190  0.58620  0.30710  Biso   1.000  N
  N47      1.0000 0.16380  0.55190  0.55710  Biso   1.000  N
  N48      1.0000 0.80190  0.08620  0.80710  Biso   1.000  N
  H17      1.0000 0.79510  0.62030  0.18740  Biso   1.000  H
  H18      1.0000 0.12970  0.04510  0.43740  Biso   1.000  H
  H19      1.0000 0.29510  0.12030  0.68740  Biso   1.000  H
  H20      1.0000 0.62970  0.54510  0.93740  Biso   1.000  H
  H21      1.0000 0.87030  0.45490  0.43740  Biso   1.000  H
  H22      1.0000 0.70490  0.37970  0.68740  Biso   1.000  H
  H23      1.0000 0.37030  0.95490  0.93740  Biso   1.000  H
  H24      1.0000 0.20490  0.87970  0.18740  Biso   1.000  H
  H25      1.0000 0.20490  0.37970  0.81260  Biso   1.000  H
  H26      1.0000 0.37030  0.45490  0.06260  Biso   1.000  H
  H27      1.0000 0.70490  0.87970  0.31260  Biso   1.000  H
  H28      1.0000 0.87030  0.95490  0.56260  Biso   1.000  H
  H29      1.0000 0.62970  0.04510  0.06260  Biso   1.000  H
  H30      1.0000 0.29510  0.62030  0.31260  Biso   1.000  H
  H31      1.0000 0.12970  0.54510  0.56260  Biso   1.000  H
  H32      1.0000 0.79510  0.12030  0.81260  Biso   1.000  H
  H33      1.0000 0.83500  0.57500  0.19520  Biso   1.000  H
  H34      1.0000 0.17500  0.08500  0.44520  Biso   1.000  H
  H35      1.0000 0.33500  0.07500  0.69520  Biso   1.000  H
  H36      1.0000 0.67500  0.58500  0.94520  Biso   1.000  H
  H37      1.0000 0.82500  0.41500  0.44520  Biso   1.000  H
  H38      1.0000 0.66500  0.42500  0.69520  Biso   1.000  H
  H39      1.0000 0.32500  0.91500  0.94520  Biso   1.000  H
  H40      1.0000 0.16500  0.92500  0.19520  Biso   1.000  H
  H41      1.0000 0.16500  0.42500  0.80480  Biso   1.000  H
  H42      1.0000 0.32500  0.41500  0.05480  Biso   1.000  H
  H43      1.0000 0.66500  0.92500  0.30480  Biso   1.000  H
  H44      1.0000 0.82500  0.91500  0.55480  Biso   1.000  H
  H45      1.0000 0.67500  0.08500  0.05480  Biso   1.000  H
  H46      1.0000 0.33500  0.57500  0.30480  Biso   1.000  H
  H47      1.0000 0.17500  0.58500  0.55480  Biso   1.000  H
  H48      1.0000 0.83500  0.07500  0.80480  Biso   1.000  H
  N49      1.0000 0.71170  0.56800  0.19450  Biso   1.000  N
  N50      1.0000 0.18200  0.96170  0.44450  Biso   1.000  N
  N51      1.0000 0.21170  0.06800  0.69450  Biso   1.000  N
  N52      1.0000 0.68200  0.46170  0.94450  Biso   1.000  N
  N53      1.0000 0.81800  0.53830  0.44450  Biso   1.000  N
  N54      1.0000 0.78830  0.43200  0.69450  Biso   1.000  N
  N55      1.0000 0.31800  0.03830  0.94450  Biso   1.000  N
  N56      1.0000 0.28830  0.93200  0.19450  Biso   1.000  N
  N57      1.0000 0.28830  0.43200  0.80550  Biso   1.000  N
  N58      1.0000 0.31800  0.53830  0.05550  Biso   1.000  N
  N59      1.0000 0.78830  0.93200  0.30550  Biso   1.000  N
  N60      1.0000 0.81800  0.03830  0.55550  Biso   1.000  N
  N61      1.0000 0.68200  0.96170  0.05550  Biso   1.000  N
  N62      1.0000 0.21170  0.56800  0.30550  Biso   1.000  N
  N63      1.0000 0.18200  0.46170  0.55550  Biso   1.000  N
  N64      1.0000 0.71170  0.06800  0.80550  Biso   1.000  N
  C17      1.0000 0.67640  0.52830  0.20410  Biso   1.000  C
  C18      1.0000 0.22170  0.92640  0.45410  Biso   1.000  C
  C19      1.0000 0.17640  0.02830  0.70410  Biso   1.000  C
  C20      1.0000 0.72170  0.42640  0.95410  Biso   1.000  C
  C21      1.0000 0.77830  0.57360  0.45410  Biso   1.000  C
  C22      1.0000 0.82360  0.47170  0.70410  Biso   1.000  C
  C23      1.0000 0.27830  0.07360  0.95410  Biso   1.000  C
  C24      1.0000 0.32360  0.97170  0.20410  Biso   1.000  C
  C25      1.0000 0.32360  0.47170  0.79590  Biso   1.000  C
  C26      1.0000 0.27830  0.57360  0.04590  Biso   1.000  C
  C27      1.0000 0.82360  0.97170  0.29590  Biso   1.000  C
  C28      1.0000 0.77830  0.07360  0.54590  Biso   1.000  C
  C29      1.0000 0.72170  0.92640  0.04590  Biso   1.000  C
  C30      1.0000 0.17640  0.52830  0.29590  Biso   1.000  C
  C31      1.0000 0.22170  0.42640  0.54590  Biso   1.000  C
  C32      1.0000 0.67640  0.02830  0.79590  Biso   1.000  C
  C33      1.0000 0.68620  0.47510  0.21700  Biso   1.000  C
  C34      1.0000 0.27490  0.93620  0.46700  Biso   1.000  C
  C35      1.0000 0.18620  0.97510  0.71700  Biso   1.000  C
  C36      1.0000 0.77490  0.43620  0.96700  Biso   1.000  C
  C37      1.0000 0.72510  0.56380  0.46700  Biso   1.000  C
  C38      1.0000 0.81380  0.52490  0.71700  Biso   1.000  C
  C39      1.0000 0.22510  0.06380  0.96700  Biso   1.000  C
  C40      1.0000 0.31380  0.02490  0.21700  Biso   1.000  C
  C41      1.0000 0.31380  0.52490  0.78300  Biso   1.000  C
  C42      1.0000 0.22510  0.56380  0.03300  Biso   1.000  C
  C43      1.0000 0.81380  0.02490  0.28300  Biso   1.000  C
  C44      1.0000 0.72510  0.06380  0.53300  Biso   1.000  C
  C45      1.0000 0.77490  0.93620  0.03300  Biso   1.000  C
  C46      1.0000 0.18620  0.47510  0.28300  Biso   1.000  C
  C47      1.0000 0.27490  0.43620  0.53300  Biso   1.000  C
  C48      1.0000 0.68620  0.97510  0.78300  Biso   1.000  C
  O81      1.0000 0.75500  0.40960  0.22130  Biso   1.000  O
  O82      1.0000 0.34040  0.00500  0.47130  Biso   1.000  O
  O83      1.0000 0.25500  0.90960  0.72130  Biso   1.000  O
  O84      1.0000 0.84040  0.50500  0.97130  Biso   1.000  O
  O85      1.0000 0.65960  0.49500  0.47130  Biso   1.000  O
  O86      1.0000 0.74500  0.59040  0.72130  Biso   1.000  O
  O87      1.0000 0.15960  0.99500  0.97130  Biso   1.000  O
  O88      1.0000 0.24500  0.09040  0.22130  Biso   1.000  O
  O89      1.0000 0.24500  0.59040  0.77870  Biso   1.000  O
  O90      1.0000 0.15960  0.49500  0.02870  Biso   1.000  O
  O91      1.0000 0.74500  0.09040  0.27870  Biso   1.000  O
  O92      1.0000 0.65960  0.99500  0.52870  Biso   1.000  O
  O93      1.0000 0.84040  0.00500  0.02870  Biso   1.000  O
  O94      1.0000 0.25500  0.40960  0.27870  Biso   1.000  O
  O95      1.0000 0.34040  0.50500  0.52870  Biso   1.000  O
  O96      1.0000 0.75500  0.90960  0.77870  Biso   1.000  O
  C49      1.0000 0.73950  0.45630  0.21580  Biso   1.000  C
  C50      1.0000 0.29370  0.98950  0.46580  Biso   1.000  C
  C51      1.0000 0.23950  0.95630  0.71580  Biso   1.000  C
  C52      1.0000 0.79370  0.48950  0.96580  Biso   1.000  C
  C53      1.0000 0.70630  0.51050  0.46580  Biso   1.000  C
  C54      1.0000 0.76050  0.54370  0.71580  Biso   1.000  C
  C55      1.0000 0.20630  0.01050  0.96580  Biso   1.000  C
  C56      1.0000 0.26050  0.04370  0.21580  Biso   1.000  C
  C57      1.0000 0.26050  0.54370  0.78420  Biso   1.000  C
  C58      1.0000 0.20630  0.51050  0.03420  Biso   1.000  C
  C59      1.0000 0.76050  0.04370  0.28420  Biso   1.000  C
  C60      1.0000 0.70630  0.01050  0.53420  Biso   1.000  C
  C61      1.0000 0.79370  0.98950  0.03420  Biso   1.000  C
  C62      1.0000 0.23950  0.45630  0.28420  Biso   1.000  C
  C63      1.0000 0.29370  0.48950  0.53420  Biso   1.000  C
  C64      1.0000 0.73950  0.95630  0.78420  Biso   1.000  C
  N65      1.0000 0.63780  0.44690  0.22950  Biso   1.000  N
  N66      1.0000 0.30310  0.88780  0.47950  Biso   1.000  N
  N67      1.0000 0.13780  0.94690  0.72950  Biso   1.000  N
  N68      1.0000 0.80310  0.38780  0.97950  Biso   1.000  N
  N69      1.0000 0.69690  0.61220  0.47950  Biso   1.000  N
  N70      1.0000 0.86220  0.55310  0.72950  Biso   1.000  N
  N71      1.0000 0.19690  0.11220  0.97950  Biso   1.000  N
  N72      1.0000 0.36220  0.05310  0.22950  Biso   1.000  N
  N73      1.0000 0.36220  0.55310  0.77050  Biso   1.000  N
  N74      1.0000 0.19690  0.61220  0.02050  Biso   1.000  N
  N75      1.0000 0.86220  0.05310  0.27050  Biso   1.000  N
  N76      1.0000 0.69690  0.11220  0.52050  Biso   1.000  N
  N77      1.0000 0.80310  0.88780  0.02050  Biso   1.000  N
  N78      1.0000 0.13780  0.44690  0.27050  Biso   1.000  N
  N79      1.0000 0.30310  0.38780  0.52050  Biso   1.000  N
  N80      1.0000 0.63780  0.94690  0.77050  Biso   1.000  N
  C65      1.0000 0.60180  0.48450  0.22140  Biso   1.000  C
  C66      1.0000 0.26550  0.85180  0.47140  Biso   1.000  C
  C67      1.0000 0.10180  0.98450  0.72140  Biso   1.000  C
  C68      1.0000 0.76550  0.35180  0.97140  Biso   1.000  C
  C69      1.0000 0.73450  0.64820  0.47140  Biso   1.000  C
  C70      1.0000 0.89820  0.51550  0.72140  Biso   1.000  C
  C71      1.0000 0.23450  0.14820  0.97140  Biso   1.000  C
  C72      1.0000 0.39820  0.01550  0.22140  Biso   1.000  C
  C73      1.0000 0.39820  0.51550  0.77860  Biso   1.000  C
  C74      1.0000 0.23450  0.64820  0.02860  Biso   1.000  C
  C75      1.0000 0.89820  0.01550  0.27860  Biso   1.000  C
  C76      1.0000 0.73450  0.14820  0.52860  Biso   1.000  C
  C77      1.0000 0.76550  0.85180  0.02860  Biso   1.000  C
  C78      1.0000 0.10180  0.48450  0.27860  Biso   1.000  C
  C79      1.0000 0.26550  0.35180  0.52860  Biso   1.000  C
  C80      1.0000 0.60180  0.98450  0.77860  Biso   1.000  C
  H49      1.0000 0.56470  0.47780  0.22520  Biso   1.000  H
  H50      1.0000 0.27220  0.81470  0.47520  Biso   1.000  H
  H51      1.0000 0.06470  0.97780  0.72520  Biso   1.000  H
  H52      1.0000 0.77220  0.31470  0.97520  Biso   1.000  H
  H53      1.0000 0.72780  0.68530  0.47520  Biso   1.000  H
  H54      1.0000 0.93530  0.52220  0.72520  Biso   1.000  H
  H55      1.0000 0.22780  0.18530  0.97520  Biso   1.000  H
  H56      1.0000 0.43530  0.02220  0.22520  Biso   1.000  H
  H57      1.0000 0.43530  0.52220  0.77480  Biso   1.000  H
  H58      1.0000 0.22780  0.68530  0.02480  Biso   1.000  H
  H59      1.0000 0.93530  0.02220  0.27480  Biso   1.000  H
  H60      1.0000 0.72780  0.18530  0.52480  Biso   1.000  H
  H61      1.0000 0.77220  0.81470  0.02480  Biso   1.000  H
  H62      1.0000 0.06470  0.47780  0.27480  Biso   1.000  H
  H63      1.0000 0.27220  0.31470  0.52480  Biso   1.000  H
  H64      1.0000 0.56470  0.97780  0.77480  Biso   1.000  H
  N81      1.0000 0.62190  0.53310  0.20730  Biso   1.000  N
  N82      1.0000 0.21690  0.87190  0.45730  Biso   1.000  N
  N83      1.0000 0.12190  0.03310  0.70730  Biso   1.000  N
  N84      1.0000 0.71690  0.37190  0.95730  Biso   1.000  N
  N85      1.0000 0.78310  0.62810  0.45730  Biso   1.000  N
  N86      1.0000 0.87810  0.46690  0.70730  Biso   1.000  N
  N87      1.0000 0.28310  0.12810  0.95730  Biso   1.000  N
  N88      1.0000 0.37810  0.96690  0.20730  Biso   1.000  N
  N89      1.0000 0.37810  0.46690  0.79270  Biso   1.000  N
  N90      1.0000 0.28310  0.62810  0.04270  Biso   1.000  N
  N91      1.0000 0.87810  0.96690  0.29270  Biso   1.000  N
  N92      1.0000 0.78310  0.12810  0.54270  Biso   1.000  N
  N93      1.0000 0.71690  0.87190  0.04270  Biso   1.000  N
  N94      1.0000 0.12190  0.53310  0.29270  Biso   1.000  N
  N95      1.0000 0.21690  0.37190  0.54270  Biso   1.000  N
  N96      1.0000 0.62190  0.03310  0.79270  Biso   1.000  N
  C81      1.0000 0.59210  0.58240  0.20240  Biso   1.000  C
  C82      1.0000 0.16760  0.84210  0.45240  Biso   1.000  C
  C83      1.0000 0.09210  0.08240  0.70240  Biso   1.000  C
  C84      1.0000 0.66760  0.34210  0.95240  Biso   1.000  C
  C85      1.0000 0.83240  0.65790  0.45240  Biso   1.000  C
  C86      1.0000 0.90790  0.41760  0.70240  Biso   1.000  C
  C87      1.0000 0.33240  0.15790  0.95240  Biso   1.000  C
  C88      1.0000 0.40790  0.91760  0.20240  Biso   1.000  C
  C89      1.0000 0.40790  0.41760  0.79760  Biso   1.000  C
  C90      1.0000 0.33240  0.65790  0.04760  Biso   1.000  C
  C91      1.0000 0.90790  0.91760  0.29760  Biso   1.000  C
  C92      1.0000 0.83240  0.15790  0.54760  Biso   1.000  C
  C93      1.0000 0.66760  0.84210  0.04760  Biso   1.000  C
  C94      1.0000 0.09210  0.58240  0.29760  Biso   1.000  C
  C95      1.0000 0.16760  0.34210  0.54760  Biso   1.000  C
  C96      1.0000 0.59210  0.08240  0.79760  Biso   1.000  C
  H65      1.0000 0.55370  0.57440  0.19690  Biso   1.000  H
  H66      1.0000 0.17560  0.80370  0.44690  Biso   1.000  H
  H67      1.0000 0.05370  0.07440  0.69690  Biso   1.000  H
  H68      1.0000 0.67560  0.30370  0.94690  Biso   1.000  H
  H69      1.0000 0.82440  0.69630  0.44690  Biso   1.000  H
  H70      1.0000 0.94630  0.42560  0.69690  Biso   1.000  H
  H71      1.0000 0.32440  0.19630  0.94690  Biso   1.000  H
  H72      1.0000 0.44630  0.92560  0.19690  Biso   1.000  H
  H73      1.0000 0.44630  0.42560  0.80310  Biso   1.000  H
  H74      1.0000 0.32440  0.69630  0.05310  Biso   1.000  H
  H75      1.0000 0.94630  0.92560  0.30310  Biso   1.000  H
  H76      1.0000 0.82440  0.19630  0.55310  Biso   1.000  H
  H77      1.0000 0.67560  0.80370  0.05310  Biso   1.000  H
  H78      1.0000 0.05370  0.57440  0.30310  Biso   1.000  H
  H79      1.0000 0.17560  0.30370  0.55310  Biso   1.000  H
  H80      1.0000 0.55370  0.07440  0.80310  Biso   1.000  H
  H81      1.0000 0.60260  0.60250  0.13840  Biso   1.000  H
  H82      1.0000 0.14750  0.85260  0.38840  Biso   1.000  H
  H83      1.0000 0.10260  0.10250  0.63840  Biso   1.000  H
  H84      1.0000 0.64750  0.35260  0.88840  Biso   1.000  H
  H85      1.0000 0.85250  0.64740  0.38840  Biso   1.000  H
  H86      1.0000 0.89740  0.39750  0.63840  Biso   1.000  H
  H87      1.0000 0.35250  0.14740  0.88840  Biso   1.000  H
  H88      1.0000 0.39740  0.89750  0.13840  Biso   1.000  H
  H89      1.0000 0.39740  0.39750  0.86160  Biso   1.000  H
  H90      1.0000 0.35250  0.64740  0.11160  Biso   1.000  H
  H91      1.0000 0.89740  0.89750  0.36160  Biso   1.000  H
  H92      1.0000 0.85250  0.14740  0.61160  Biso   1.000  H
  H93      1.0000 0.64750  0.85260  0.11160  Biso   1.000  H
  H94      1.0000 0.10260  0.60250  0.36160  Biso   1.000  H
  H95      1.0000 0.14750  0.35260  0.61160  Biso   1.000  H
  H96      1.0000 0.60260  0.10250  0.86160  Biso   1.000  H
  C97      1.0000 0.60210  0.61640  0.30090  Biso   1.000  C
  C98      1.0000 0.13360  0.85210  0.55090  Biso   1.000  C
  C99      1.0000 0.10210  0.11640  0.80090  Biso   1.000  C
  C100     1.0000 0.63360  0.35210  0.05090  Biso   1.000  C
  C101     1.0000 0.86640  0.64790  0.55090  Biso   1.000  C
  C102     1.0000 0.89790  0.38360  0.80090  Biso   1.000  C
  C103     1.0000 0.36640  0.14790  0.05090  Biso   1.000  C
  C104     1.0000 0.39790  0.88360  0.30090  Biso   1.000  C
  C105     1.0000 0.39790  0.38360  0.69910  Biso   1.000  C
  C106     1.0000 0.36640  0.64790  0.94910  Biso   1.000  C
  C107     1.0000 0.89790  0.88360  0.19910  Biso   1.000  C
  C108     1.0000 0.86640  0.14790  0.44910  Biso   1.000  C
  C109     1.0000 0.63360  0.85210  0.94910  Biso   1.000  C
  C110     1.0000 0.10210  0.61640  0.19910  Biso   1.000  C
  C111     1.0000 0.13360  0.35210  0.44910  Biso   1.000  C
  C112     1.0000 0.60210  0.11640  0.69910  Biso   1.000  C
  H97      1.0000 0.63970  0.62780  0.30120  Biso   1.000  H
  H98      1.0000 0.12220  0.88970  0.55120  Biso   1.000  H
  H99      1.0000 0.13970  0.12780  0.80120  Biso   1.000  H
  H100     1.0000 0.62220  0.38970  0.05120  Biso   1.000  H
  H101     1.0000 0.87780  0.61030  0.55120  Biso   1.000  H
  H102     1.0000 0.86030  0.37220  0.80120  Biso   1.000  H
  H103     1.0000 0.37780  0.11030  0.05120  Biso   1.000  H
  H104     1.0000 0.36030  0.87220  0.30120  Biso   1.000  H
  H105     1.0000 0.36030  0.37220  0.69880  Biso   1.000  H
  H106     1.0000 0.37780  0.61030  0.94880  Biso   1.000  H
  H107     1.0000 0.86030  0.87220  0.19880  Biso   1.000  H
  H108     1.0000 0.87780  0.11030  0.44880  Biso   1.000  H
  H109     1.0000 0.62220  0.88970  0.94880  Biso   1.000  H
  H110     1.0000 0.13970  0.62780  0.19880  Biso   1.000  H
  H111     1.0000 0.12220  0.38970  0.44880  Biso   1.000  H
  H112     1.0000 0.63970  0.12780  0.69880  Biso   1.000  H
  H113     1.0000 0.57990  0.64880  0.29660  Biso   1.000  H
  H114     1.0000 0.10120  0.82990  0.54660  Biso   1.000  H
  H115     1.0000 0.07990  0.14880  0.79660  Biso   1.000  H
  H116     1.0000 0.60120  0.32990  0.04660  Biso   1.000  H
  H117     1.0000 0.89880  0.67010  0.54660  Biso   1.000  H
  H118     1.0000 0.92010  0.35120  0.79660  Biso   1.000  H
  H119     1.0000 0.39880  0.17010  0.04660  Biso   1.000  H
  H120     1.0000 0.42010  0.85120  0.29660  Biso   1.000  H
  H121     1.0000 0.42010  0.35120  0.70340  Biso   1.000  H
  H122     1.0000 0.39880  0.67010  0.95340  Biso   1.000  H
  H123     1.0000 0.92010  0.85120  0.20340  Biso   1.000  H
  H124     1.0000 0.89880  0.17010  0.45340  Biso   1.000  H
  H125     1.0000 0.60120  0.82990  0.95340  Biso   1.000  H
  H126     1.0000 0.07990  0.64880  0.20340  Biso   1.000  H
  H127     1.0000 0.10120  0.32990  0.45340  Biso   1.000  H
  H128     1.0000 0.57990  0.14880  0.70340  Biso   1.000  H
  N97      1.0000 0.59050  0.58870  0.40150  Biso   1.000  N
  N98      1.0000 0.16130  0.84050  0.65150  Biso   1.000  N
  N99      1.0000 0.09050  0.08870  0.90150  Biso   1.000  N
  N100     1.0000 0.66130  0.34050  0.15150  Biso   1.000  N
  N101     1.0000 0.83870  0.65950  0.65150  Biso   1.000  N
  N102     1.0000 0.90950  0.41130  0.90150  Biso   1.000  N
  N103     1.0000 0.33870  0.15950  0.15150  Biso   1.000  N
  N104     1.0000 0.40950  0.91130  0.40150  Biso   1.000  N
  N105     1.0000 0.40950  0.41130  0.59850  Biso   1.000  N
  N106     1.0000 0.33870  0.65950  0.84850  Biso   1.000  N
  N107     1.0000 0.90950  0.91130  0.09850  Biso   1.000  N
  N108     1.0000 0.83870  0.15950  0.34850  Biso   1.000  N
  N109     1.0000 0.66130  0.84050  0.84850  Biso   1.000  N
  N110     1.0000 0.09050  0.58870  0.09850  Biso   1.000  N
  N111     1.0000 0.16130  0.34050  0.34850  Biso   1.000  N
  N112     1.0000 0.59050  0.08870  0.59850  Biso   1.000  N
  H129     1.0000 0.60480  0.55490  0.39480  Biso   1.000  H
  H130     1.0000 0.19510  0.85480  0.64480  Biso   1.000  H
  H131     1.0000 0.10480  0.05490  0.89480  Biso   1.000  H
  H132     1.0000 0.69510  0.35480  0.14480  Biso   1.000  H
  H133     1.0000 0.80490  0.64520  0.64480  Biso   1.000  H
  H134     1.0000 0.89520  0.44510  0.89480  Biso   1.000  H
  H135     1.0000 0.30490  0.14520  0.14480  Biso   1.000  H
  H136     1.0000 0.39520  0.94510  0.39480  Biso   1.000  H
  H137     1.0000 0.39520  0.44510  0.60520  Biso   1.000  H
  H138     1.0000 0.30490  0.64520  0.85520  Biso   1.000  H
  H139     1.0000 0.89520  0.94510  0.10520  Biso   1.000  H
  H140     1.0000 0.80490  0.14520  0.35520  Biso   1.000  H
  H141     1.0000 0.69510  0.85480  0.85520  Biso   1.000  H
  H142     1.0000 0.10480  0.55490  0.10520  Biso   1.000  H
  H143     1.0000 0.19510  0.35480  0.35520  Biso   1.000  H
  H144     1.0000 0.60480  0.05490  0.60520  Biso   1.000  H
  C113     1.0000 0.53460  0.58140  0.42000  Biso   1.000  C
  C114     1.0000 0.16860  0.78460  0.67000  Biso   1.000  C
  C115     1.0000 0.03460  0.08140  0.92000  Biso   1.000  C
  C116     1.0000 0.66860  0.28460  0.17000  Biso   1.000  C
  C117     1.0000 0.83140  0.71540  0.67000  Biso   1.000  C
  C118     1.0000 0.96540  0.41860  0.92000  Biso   1.000  C
  C119     1.0000 0.33140  0.21540  0.17000  Biso   1.000  C
  C120     1.0000 0.46540  0.91860  0.42000  Biso   1.000  C
  C121     1.0000 0.46540  0.41860  0.58000  Biso   1.000  C
  C122     1.0000 0.33140  0.71540  0.83000  Biso   1.000  C
  C123     1.0000 0.96540  0.91860  0.08000  Biso   1.000  C
  C124     1.0000 0.83140  0.21540  0.33000  Biso   1.000  C
  C125     1.0000 0.66860  0.78460  0.83000  Biso   1.000  C
  C126     1.0000 0.03460  0.58140  0.08000  Biso   1.000  C
  C127     1.0000 0.16860  0.28460  0.33000  Biso   1.000  C
  C128     1.0000 0.53460  0.08140  0.58000  Biso   1.000  C
  H145     1.0000 0.51560  0.61380  0.39690  Biso   1.000  H
  H146     1.0000 0.13620  0.76560  0.64690  Biso   1.000  H
  H147     1.0000 0.01560  0.11380  0.89690  Biso   1.000  H
  H148     1.0000 0.63620  0.26560  0.14690  Biso   1.000  H
  H149     1.0000 0.86380  0.73440  0.64690  Biso   1.000  H
  H150     1.0000 0.98440  0.38620  0.89690  Biso   1.000  H
  H151     1.0000 0.36380  0.23440  0.14690  Biso   1.000  H
  H152     1.0000 0.48440  0.88620  0.39690  Biso   1.000  H
  H153     1.0000 0.48440  0.38620  0.60310  Biso   1.000  H
  H154     1.0000 0.36380  0.73440  0.85310  Biso   1.000  H
  H155     1.0000 0.98440  0.88620  0.10310  Biso   1.000  H
  H156     1.0000 0.86380  0.23440  0.35310  Biso   1.000  H
  H157     1.0000 0.63620  0.76560  0.85310  Biso   1.000  H
  H158     1.0000 0.01560  0.61380  0.10310  Biso   1.000  H
  H159     1.0000 0.13620  0.26560  0.35310  Biso   1.000  H
  H160     1.0000 0.51560  0.11380  0.60310  Biso   1.000  H
  H161     1.0000 0.52200  0.55160  0.37550  Biso   1.000  H
  H162     1.0000 0.19840  0.77200  0.62550  Biso   1.000  H
  H163     1.0000 0.02200  0.05160  0.87550  Biso   1.000  H
  H164     1.0000 0.69840  0.27200  0.12550  Biso   1.000  H
  H165     1.0000 0.80160  0.72800  0.62550  Biso   1.000  H
  H166     1.0000 0.97800  0.44840  0.87550  Biso   1.000  H
  H167     1.0000 0.30160  0.22800  0.12550  Biso   1.000  H
  H168     1.0000 0.47800  0.94840  0.37550  Biso   1.000  H
  H169     1.0000 0.47800  0.44840  0.62450  Biso   1.000  H
  H170     1.0000 0.30160  0.72800  0.87450  Biso   1.000  H
  H171     1.0000 0.97800  0.94840  0.12450  Biso   1.000  H
  H172     1.0000 0.80160  0.22800  0.37450  Biso   1.000  H
  H173     1.0000 0.69840  0.77200  0.87450  Biso   1.000  H
  H174     1.0000 0.02200  0.55160  0.12450  Biso   1.000  H
  H175     1.0000 0.19840  0.27200  0.37450  Biso   1.000  H
  H176     1.0000 0.52200  0.05160  0.62450  Biso   1.000  H
  C129     1.0000 0.52180  0.57150  0.52030  Biso   1.000  C
  C130     1.0000 0.17850  0.77180  0.77030  Biso   1.000  C
  C131     1.0000 0.02180  0.07150  0.02030  Biso   1.000  C
  C132     1.0000 0.67850  0.27180  0.27030  Biso   1.000  C
  C133     1.0000 0.82150  0.72820  0.77030  Biso   1.000  C
  C134     1.0000 0.97820  0.42850  0.02030  Biso   1.000  C
  C135     1.0000 0.32150  0.22820  0.27030  Biso   1.000  C
  C136     1.0000 0.47820  0.92850  0.52030  Biso   1.000  C
  C137     1.0000 0.47820  0.42850  0.47970  Biso   1.000  C
  C138     1.0000 0.32150  0.72820  0.72970  Biso   1.000  C
  C139     1.0000 0.97820  0.92850  0.97970  Biso   1.000  C
  C140     1.0000 0.82150  0.22820  0.22970  Biso   1.000  C
  C141     1.0000 0.67850  0.77180  0.72970  Biso   1.000  C
  C142     1.0000 0.02180  0.57150  0.97970  Biso   1.000  C
  C143     1.0000 0.17850  0.27180  0.22970  Biso   1.000  C
  C144     1.0000 0.52180  0.07150  0.47970  Biso   1.000  C
  H177     1.0000 0.53040  0.53410  0.53730  Biso   1.000  H
  H178     1.0000 0.21590  0.78040  0.78730  Biso   1.000  H
  H179     1.0000 0.03040  0.03410  0.03730  Biso   1.000  H
  H180     1.0000 0.71590  0.28040  0.28730  Biso   1.000  H
  H181     1.0000 0.78410  0.71960  0.78730  Biso   1.000  H
  H182     1.0000 0.96960  0.46590  0.03730  Biso   1.000  H
  H183     1.0000 0.28410  0.21960  0.28730  Biso   1.000  H
  H184     1.0000 0.46960  0.96590  0.53730  Biso   1.000  H
  H185     1.0000 0.46960  0.46590  0.46270  Biso   1.000  H
  H186     1.0000 0.28410  0.71960  0.71270  Biso   1.000  H
  H187     1.0000 0.96960  0.96590  0.96270  Biso   1.000  H
  H188     1.0000 0.78410  0.21960  0.21270  Biso   1.000  H
  H189     1.0000 0.71590  0.78040  0.71270  Biso   1.000  H
  H190     1.0000 0.03040  0.53410  0.96270  Biso   1.000  H
  H191     1.0000 0.21590  0.28040  0.21270  Biso   1.000  H
  H192     1.0000 0.53040  0.03410  0.46270  Biso   1.000  H
  H193     1.0000 0.48310  0.57650  0.53000  Biso   1.000  H
  H194     1.0000 0.17350  0.73310  0.78000  Biso   1.000  H
  H195     1.0000 0.98310  0.07650  0.03000  Biso   1.000  H
  H196     1.0000 0.67350  0.23310  0.28000  Biso   1.000  H
  H197     1.0000 0.82650  0.76690  0.78000  Biso   1.000  H
  H198     1.0000 0.01690  0.42350  0.03000  Biso   1.000  H
  H199     1.0000 0.32650  0.26690  0.28000  Biso   1.000  H
  H200     1.0000 0.51690  0.92350  0.53000  Biso   1.000  H
  H201     1.0000 0.51690  0.42350  0.47000  Biso   1.000  H
  H202     1.0000 0.32650  0.76690  0.72000  Biso   1.000  H
  H203     1.0000 0.01690  0.92350  0.97000  Biso   1.000  H
  H204     1.0000 0.82650  0.26690  0.22000  Biso   1.000  H
  H205     1.0000 0.67350  0.73310  0.72000  Biso   1.000  H
  H206     1.0000 0.98310  0.57650  0.97000  Biso   1.000  H
  H207     1.0000 0.17350  0.23310  0.22000  Biso   1.000  H
  H208     1.0000 0.48310  0.07650  0.47000  Biso   1.000  H
  N113     1.0000 0.55210  0.60850  0.59650  Biso   1.000  N
  N114     1.0000 0.14150  0.80210  0.84650  Biso   1.000  N
  N115     1.0000 0.05210  0.10850  0.09650  Biso   1.000  N
  N116     1.0000 0.64150  0.30210  0.34650  Biso   1.000  N
  N117     1.0000 0.85850  0.69790  0.84650  Biso   1.000  N
  N118     1.0000 0.94790  0.39150  0.09650  Biso   1.000  N
  N119     1.0000 0.35850  0.19790  0.34650  Biso   1.000  N
  N120     1.0000 0.44790  0.89150  0.59650  Biso   1.000  N
  N121     1.0000 0.44790  0.39150  0.40350  Biso   1.000  N
  N122     1.0000 0.35850  0.69790  0.65350  Biso   1.000  N
  N123     1.0000 0.94790  0.89150  0.90350  Biso   1.000  N
  N124     1.0000 0.85850  0.19790  0.15350  Biso   1.000  N
  N125     1.0000 0.64150  0.80210  0.65350  Biso   1.000  N
  N126     1.0000 0.05210  0.60850  0.90350  Biso   1.000  N
  N127     1.0000 0.14150  0.30210  0.15350  Biso   1.000  N
  N128     1.0000 0.55210  0.10850  0.40350  Biso   1.000  N
  H209     1.0000 0.55520  0.59300  0.66220  Biso   1.000  H
  H210     1.0000 0.15700  0.80520  0.91220  Biso   1.000  H
  H211     1.0000 0.05520  0.09300  0.16220  Biso   1.000  H
  H212     1.0000 0.65700  0.30520  0.41220  Biso   1.000  H
  H213     1.0000 0.84300  0.69480  0.91220  Biso   1.000  H
  H214     1.0000 0.94480  0.40700  0.16220  Biso   1.000  H
  H215     1.0000 0.34300  0.19480  0.41220  Biso   1.000  H
  H216     1.0000 0.44480  0.90700  0.66220  Biso   1.000  H
  H217     1.0000 0.44480  0.40700  0.33780  Biso   1.000  H
  H218     1.0000 0.34300  0.69480  0.58780  Biso   1.000  H
  H219     1.0000 0.94480  0.90700  0.83780  Biso   1.000  H
  H220     1.0000 0.84300  0.19480  0.08780  Biso   1.000  H
  H221     1.0000 0.65700  0.80520  0.58780  Biso   1.000  H
  H222     1.0000 0.05520  0.59300  0.83780  Biso   1.000  H
  H223     1.0000 0.15700  0.30520  0.08780  Biso   1.000  H
  H224     1.0000 0.55520  0.09300  0.33780  Biso   1.000  H
  H225     1.0000 0.53440  0.64020  0.60380  Biso   1.000  H
  H226     1.0000 0.10980  0.78440  0.85380  Biso   1.000  H
  H227     1.0000 0.03440  0.14020  0.10380  Biso   1.000  H
  H228     1.0000 0.60980  0.28440  0.35380  Biso   1.000  H
  H229     1.0000 0.89020  0.71560  0.85380  Biso   1.000  H
  H230     1.0000 0.96560  0.35980  0.10380  Biso   1.000  H
  H231     1.0000 0.39020  0.21560  0.35380  Biso   1.000  H
  H232     1.0000 0.46560  0.85980  0.60380  Biso   1.000  H
  H233     1.0000 0.46560  0.35980  0.39620  Biso   1.000  H
  H234     1.0000 0.39020  0.71560  0.64620  Biso   1.000  H
  H235     1.0000 0.96560  0.85980  0.89620  Biso   1.000  H
  H236     1.0000 0.89020  0.21560  0.14620  Biso   1.000  H
  H237     1.0000 0.60980  0.78440  0.64620  Biso   1.000  H
  H238     1.0000 0.03440  0.64020  0.89620  Biso   1.000  H
  H239     1.0000 0.10980  0.28440  0.14620  Biso   1.000  H
  H240     1.0000 0.53440  0.14020  0.39620  Biso   1.000  H
