data_image0
_cell_length_a       5.1077
_cell_length_b       8.362
_cell_length_c       11.378
_cell_angle_alpha    93.773
_cell_angle_beta     97.587
_cell_angle_gamma    90.493

_symmetry_space_group_name_H-M    "P 1"
_symmetry_int_tables_number       1

loop_
  _symmetry_equiv_pos_as_xyz
  'x, y, z'

loop_
  _atom_site_label
  _atom_site_occupancy
  _atom_site_fract_x
  _atom_site_fract_y
  _atom_site_fract_z
  _atom_site_thermal_displace_type
  _atom_site_B_iso_or_equiv
  _atom_site_type_symbol
  Cu1      1.0000 0.73004  0.54408  0.55372  Biso   1.000  Cu
  Cu2      1.0000 0.26996  0.45592  0.44628  Biso   1.000  Cu
  O1       1.0000 0.83910  0.43180  0.40580  Biso   1.000  O
  O2       1.0000 0.16090  0.56820  0.59420  Biso   1.000  O
  O3       1.0000 0.43960  0.36230  0.31320  Biso   1.000  O
  O4       1.0000 0.56040  0.63770  0.68680  Biso   1.000  O
  O5       1.0000 0.32720  0.26080  0.52790  Biso   1.000  O
  O6       1.0000 0.67280  0.73920  0.47210  Biso   1.000  O
  O7       1.0000 0.72130  0.34040  0.62410  Biso   1.000  O
  O8       1.0000 0.27870  0.65960  0.37590  Biso   1.000  O
  C1       1.0000 0.68920  0.37040  0.31740  Biso   1.000  C
  C2       1.0000 0.31080  0.62960  0.68260  Biso   1.000  C
  C3       1.0000 0.80900  0.30090  0.21230  Biso   1.000  C
  C4       1.0000 0.19100  0.69910  0.78770  Biso   1.000  C
  H1       1.0000 0.96070  0.36370  0.20440  Biso   1.000  H
  H2       1.0000 0.03930  0.63630  0.79560  Biso   1.000  H
  H3       1.0000 0.86720  0.19610  0.22860  Biso   1.000  H
  H4       1.0000 0.13280  0.80390  0.77140  Biso   1.000  H
  C5       1.0000 0.63240  0.29020  0.09450  Biso   1.000  C
  C6       1.0000 0.36760  0.70980  0.90550  Biso   1.000  C
  H5       1.0000 0.58250  0.39520  0.07440  Biso   1.000  H
  H6       1.0000 0.41750  0.60480  0.92560  Biso   1.000  H
  H7       1.0000 0.47620  0.23150  0.10210  Biso   1.000  H
  H8       1.0000 0.52380  0.76850  0.89790  Biso   1.000  H
  C7       1.0000 0.76340  0.21070  0.99530  Biso   1.000  C
  C8       1.0000 0.23660  0.78930  0.00470  Biso   1.000  C
  H9       1.0000 0.91930  0.27010  0.98830  Biso   1.000  H
  H10      1.0000 0.08070  0.72990  0.01170  Biso   1.000  H
  H11      1.0000 0.81540  0.10660  0.01670  Biso   1.000  H
  H12      1.0000 0.18460  0.89340  0.98330  Biso   1.000  H
  C9       1.0000 0.59490  0.19510  0.87450  Biso   1.000  C
  C10      1.0000 0.40510  0.80490  0.12550  Biso   1.000  C
  H13      1.0000 0.56250  0.29920  0.84770  Biso   1.000  H
  H14      1.0000 0.43750  0.70080  0.15230  Biso   1.000  H
  H15      1.0000 0.42940  0.14760  0.88290  Biso   1.000  H
  H16      1.0000 0.57060  0.85240  0.11710  Biso   1.000  H
  C11      1.0000 0.72000  0.09580  0.78150  Biso   1.000  C
  C12      1.0000 0.28000  0.90420  0.21850  Biso   1.000  C
  H17      1.0000 0.88820  0.14130  0.77510  Biso   1.000  H
  H18      1.0000 0.11180  0.85870  0.22490  Biso   1.000  H
  H19      1.0000 0.74710  0.99070  0.80730  Biso   1.000  H
  H20      1.0000 0.25290  0.00930  0.19270  Biso   1.000  H
  C13      1.0000 0.55650  0.08410  0.65920  Biso   1.000  C
  C14      1.0000 0.44350  0.91590  0.34080  Biso   1.000  C
  H21      1.0000 0.38420  0.04570  0.66650  Biso   1.000  H
  H22      1.0000 0.61580  0.95430  0.33350  Biso   1.000  H
  H23      1.0000 0.63410  0.00790  0.60930  Biso   1.000  H
  H24      1.0000 0.36590  0.99210  0.39070  Biso   1.000  H
  C15      1.0000 0.53360  0.24160  0.60040  Biso   1.000  C
  C16      1.0000 0.46640  0.75840  0.39960  Biso   1.000  C
