data_image0
_cell_length_a       14.8896
_cell_length_b       13.1433
_cell_length_c       22.255
_cell_angle_alpha    90
_cell_angle_beta     92.16
_cell_angle_gamma    90

_symmetry_space_group_name_H-M    "P 1"
_symmetry_int_tables_number       1

loop_
  _symmetry_equiv_pos_as_xyz
  'x, y, z'

loop_
  _atom_site_label
  _atom_site_occupancy
  _atom_site_fract_x
  _atom_site_fract_y
  _atom_site_fract_z
  _atom_site_thermal_displace_type
  _atom_site_B_iso_or_equiv
  _atom_site_type_symbol
  P1       1.0000 0.38160  0.78310  0.23998  Biso   1.000  P
  P2       1.0000 0.11840  0.78310  0.26002  Biso   1.000  P
  P3       1.0000 0.61840  0.21690  0.76002  Biso   1.000  P
  P4       1.0000 0.88160  0.21690  0.73998  Biso   1.000  P
  W1       1.0000 0.55817  0.70722  0.15078  Biso   1.000  W
  W2       1.0000 0.94183  0.70722  0.34922  Biso   1.000  W
  W3       1.0000 0.44183  0.29278  0.84922  Biso   1.000  W
  W4       1.0000 0.05817  0.29278  0.65078  Biso   1.000  W
  W5       1.0000 0.34037  0.79126  0.08391  Biso   1.000  W
  W6       1.0000 0.15963  0.79126  0.41609  Biso   1.000  W
  W7       1.0000 0.65963  0.20874  0.91609  Biso   1.000  W
  W8       1.0000 0.84037  0.20874  0.58391  Biso   1.000  W
  W9       1.0000 0.59532  0.71454  0.30067  Biso   1.000  W
  W10      1.0000 0.90468  0.71454  0.19933  Biso   1.000  W
  W11      1.0000 0.40468  0.28546  0.69933  Biso   1.000  W
  W12      1.0000 0.09532  0.28546  0.80067  Biso   1.000  W
  W13      1.0000 0.39625  0.55011  0.31518  Biso   1.000  W
  W14      1.0000 0.10375  0.55011  0.18482  Biso   1.000  W
  W15      1.0000 0.60375  0.44989  0.68482  Biso   1.000  W
  W16      1.0000 0.89625  0.44989  0.81518  Biso   1.000  W
  W17      1.0000 0.40833  0.79063  0.39695  Biso   1.000  W
  W18      1.0000 0.09167  0.79063  0.10305  Biso   1.000  W
  W19      1.0000 0.59167  0.20937  0.60305  Biso   1.000  W
  W20      1.0000 0.90833  0.20937  0.89695  Biso   1.000  W
  W21      1.0000 0.57587  0.93240  0.22311  Biso   1.000  W
  W22      1.0000 0.92413  0.93240  0.27689  Biso   1.000  W
  W23      1.0000 0.42413  0.06760  0.77689  Biso   1.000  W
  W24      1.0000 0.07587  0.06760  0.72311  Biso   1.000  W
  W25      1.0000 0.39418  0.01110  0.32170  Biso   1.000  W
  W26      1.0000 0.10582  0.01110  0.17830  Biso   1.000  W
  W27      1.0000 0.60582  0.98890  0.67830  Biso   1.000  W
  W28      1.0000 0.89418  0.98890  0.82170  Biso   1.000  W
  W29      1.0000 0.35406  0.01202  0.15839  Biso   1.000  W
  W30      1.0000 0.14594  0.01202  0.34161  Biso   1.000  W
  W31      1.0000 0.64594  0.98798  0.84161  Biso   1.000  W
  W32      1.0000 0.85406  0.98798  0.65839  Biso   1.000  W
  W33      1.0000 0.35314  0.54964  0.16622  Biso   1.000  W
  W34      1.0000 0.14686  0.54964  0.33378  Biso   1.000  W
  W35      1.0000 0.64686  0.45036  0.83378  Biso   1.000  W
  W36      1.0000 0.85314  0.45036  0.66622  Biso   1.000  W
  Cu1      1.0000 0.50000  0.50000  0.50000  Biso   1.000  Cu
  Cu2      1.0000 0.00000  0.50000  0.00000  Biso   1.000  Cu
  Cu3      1.0000 0.50000  0.00000  0.50000  Biso   1.000  Cu
  Cu4      1.0000 0.00000  0.00000  0.00000  Biso   1.000  Cu
  Cu5      1.0000 0.51170  0.75390  0.57720  Biso   1.000  Cu
  Cu6      1.0000 0.98830  0.75390  0.92280  Biso   1.000  Cu
  Cu7      1.0000 0.48830  0.24610  0.42280  Biso   1.000  Cu
  Cu8      1.0000 0.01170  0.24610  0.07720  Biso   1.000  Cu
  O1       1.0000 0.48570  0.78430  0.23190  Biso   1.000  O
  O2       1.0000 0.01430  0.78430  0.26810  Biso   1.000  O
  O3       1.0000 0.51430  0.21570  0.76810  Biso   1.000  O
  O4       1.0000 0.98570  0.21570  0.73190  Biso   1.000  O
  O5       1.0000 0.63710  0.84460  0.27990  Biso   1.000  O
  O6       1.0000 0.86290  0.84460  0.22010  Biso   1.000  O
  O7       1.0000 0.36290  0.15540  0.72010  Biso   1.000  O
  O8       1.0000 0.13710  0.15540  0.77990  Biso   1.000  O
  O9       1.0000 0.38060  0.65770  0.37000  Biso   1.000  O
  O10      1.0000 0.11940  0.65770  0.13000  Biso   1.000  O
  O11      1.0000 0.61940  0.34230  0.63000  Biso   1.000  O
  O12      1.0000 0.88060  0.34230  0.87000  Biso   1.000  O
  O13      1.0000 0.50680  0.97800  0.28800  Biso   1.000  O
  O14      1.0000 0.99320  0.97800  0.21200  Biso   1.000  O
  O15      1.0000 0.49320  0.02200  0.71200  Biso   1.000  O
  O16      1.0000 0.00680  0.02200  0.78800  Biso   1.000  O
  O17      1.0000 0.52150  0.76930  0.35940  Biso   1.000  O
  O18      1.0000 0.97850  0.76930  0.14060  Biso   1.000  O
  O19      1.0000 0.47850  0.23070  0.64060  Biso   1.000  O
  O20      1.0000 0.02150  0.23070  0.85940  Biso   1.000  O
  O21      1.0000 0.36490  0.84010  0.29940  Biso   1.000  O
  O22      1.0000 0.13510  0.84010  0.20060  Biso   1.000  O
  O23      1.0000 0.63510  0.15990  0.70060  Biso   1.000  O
  O24      1.0000 0.86490  0.15990  0.79940  Biso   1.000  O
  O25      1.0000 0.47960  0.97910  0.17210  Biso   1.000  O
  O26      1.0000 0.02040  0.97910  0.32790  Biso   1.000  O
  O27      1.0000 0.52040  0.02090  0.82790  Biso   1.000  O
  O28      1.0000 0.97960  0.02090  0.67210  Biso   1.000  O
  O29      1.0000 0.33920  0.83890  0.18480  Biso   1.000  O
  O30      1.0000 0.16080  0.83890  0.31520  Biso   1.000  O
  O31      1.0000 0.66080  0.16110  0.81520  Biso   1.000  O
  O32      1.0000 0.83920  0.16110  0.68480  Biso   1.000  O
  O33      1.0000 0.47630  0.60110  0.16120  Biso   1.000  O
  O34      1.0000 0.02370  0.60110  0.33880  Biso   1.000  O
  O35      1.0000 0.52370  0.39890  0.83880  Biso   1.000  O
  O36      1.0000 0.97630  0.39890  0.66120  Biso   1.000  O
  O37      1.0000 0.27260  0.00870  0.34400  Biso   1.000  O
  O38      1.0000 0.22740  0.00870  0.15600  Biso   1.000  O
  O39      1.0000 0.72740  0.99130  0.65600  Biso   1.000  O
  O40      1.0000 0.77260  0.99130  0.84400  Biso   1.000  O
  O41      1.0000 0.44740  0.76980  0.46810  Biso   1.000  O
  O42      1.0000 0.05260  0.76980  0.03190  Biso   1.000  O
  O43      1.0000 0.55260  0.23020  0.53190  Biso   1.000  O
  O44      1.0000 0.94740  0.23020  0.96810  Biso   1.000  O
  O45      1.0000 0.46550  0.77170  0.10330  Biso   1.000  O
  O46      1.0000 0.03450  0.77170  0.39670  Biso   1.000  O
  O47      1.0000 0.53450  0.22830  0.89670  Biso   1.000  O
  O48      1.0000 0.96550  0.22830  0.60330  Biso   1.000  O
  O49      1.0000 0.28610  0.80910  0.41100  Biso   1.000  O
  O50      1.0000 0.21390  0.80910  0.08900  Biso   1.000  O
  O51      1.0000 0.71390  0.19090  0.58900  Biso   1.000  O
  O52      1.0000 0.78610  0.19090  0.91100  Biso   1.000  O
  O53      1.0000 0.61060  0.84110  0.16260  Biso   1.000  O
  O54      1.0000 0.88940  0.84110  0.33740  Biso   1.000  O
  O55      1.0000 0.38940  0.15890  0.83740  Biso   1.000  O
  O56      1.0000 0.11060  0.15890  0.66260  Biso   1.000  O
  O57      1.0000 0.51210  0.60240  0.30210  Biso   1.000  O
  O58      1.0000 0.98790  0.60240  0.19790  Biso   1.000  O
  O59      1.0000 0.48790  0.39760  0.69790  Biso   1.000  O
  O60      1.0000 0.01210  0.39760  0.80210  Biso   1.000  O
  O61      1.0000 0.42860  0.93720  0.39660  Biso   1.000  O
  O62      1.0000 0.07140  0.93720  0.10340  Biso   1.000  O
  O63      1.0000 0.57140  0.06280  0.60340  Biso   1.000  O
  O64      1.0000 0.92860  0.06280  0.89660  Biso   1.000  O
  O65      1.0000 0.23240  0.53170  0.18310  Biso   1.000  O
  O66      1.0000 0.26760  0.53170  0.31690  Biso   1.000  O
  O67      1.0000 0.76760  0.46830  0.81690  Biso   1.000  O
  O68      1.0000 0.73240  0.46830  0.68310  Biso   1.000  O
  O69      1.0000 0.39190  0.48500  0.24040  Biso   1.000  O
  O70      1.0000 0.10810  0.48500  0.25960  Biso   1.000  O
  O71      1.0000 0.60810  0.51500  0.75960  Biso   1.000  O
  O72      1.0000 0.89190  0.51500  0.74040  Biso   1.000  O
  O73      1.0000 0.35660  0.93390  0.08530  Biso   1.000  O
  O74      1.0000 0.14340  0.93390  0.41470  Biso   1.000  O
  O75      1.0000 0.64340  0.06610  0.91470  Biso   1.000  O
  O76      1.0000 0.85660  0.06610  0.58530  Biso   1.000  O
  O77      1.0000 0.34540  0.76990  0.00870  Biso   1.000  O
  O78      1.0000 0.15460  0.76990  0.49130  Biso   1.000  O
  O79      1.0000 0.65460  0.23010  0.99130  Biso   1.000  O
  O80      1.0000 0.84540  0.23010  0.50870  Biso   1.000  O
  O81      1.0000 0.32450  0.65930  0.11390  Biso   1.000  O
  O82      1.0000 0.17550  0.65930  0.38610  Biso   1.000  O
  O83      1.0000 0.67550  0.34070  0.88610  Biso   1.000  O
  O84      1.0000 0.82450  0.34070  0.61390  Biso   1.000  O
  O85      1.0000 0.35190  0.03580  0.24110  Biso   1.000  O
  O86      1.0000 0.14810  0.03580  0.25890  Biso   1.000  O
  O87      1.0000 0.64810  0.96420  0.75890  Biso   1.000  O
  O88      1.0000 0.85190  0.96420  0.74110  Biso   1.000  O
  O89      1.0000 0.68350  0.67160  0.34380  Biso   1.000  O
  O90      1.0000 0.81650  0.67160  0.15620  Biso   1.000  O
  O91      1.0000 0.31650  0.32840  0.65620  Biso   1.000  O
  O92      1.0000 0.18350  0.32840  0.84380  Biso   1.000  O
  O93      1.0000 0.62460  0.67050  0.22160  Biso   1.000  O
  O94      1.0000 0.87540  0.67050  0.27840  Biso   1.000  O
  O95      1.0000 0.37540  0.32950  0.77840  Biso   1.000  O
  O96      1.0000 0.12460  0.32950  0.72160  Biso   1.000  O
  O97      1.0000 0.62450  0.65680  0.09640  Biso   1.000  O
  O98      1.0000 0.87550  0.65680  0.40360  Biso   1.000  O
  O99      1.0000 0.37550  0.34320  0.90360  Biso   1.000  O
  O100     1.0000 0.12450  0.34320  0.59640  Biso   1.000  O
  O101     1.0000 0.65220  0.02670  0.21570  Biso   1.000  O
  O102     1.0000 0.84780  0.02670  0.28430  Biso   1.000  O
  O103     1.0000 0.34780  0.97330  0.78430  Biso   1.000  O
  O104     1.0000 0.15220  0.97330  0.71570  Biso   1.000  O
  O105     1.0000 0.36690  0.45180  0.11720  Biso   1.000  O
  O106     1.0000 0.13310  0.45180  0.38280  Biso   1.000  O
  O107     1.0000 0.63310  0.54820  0.88280  Biso   1.000  O
  O108     1.0000 0.86690  0.54820  0.61720  Biso   1.000  O
  O109     1.0000 0.42700  0.45180  0.36050  Biso   1.000  O
  O110     1.0000 0.07300  0.45180  0.13950  Biso   1.000  O
  O111     1.0000 0.57300  0.54820  0.63950  Biso   1.000  O
  O112     1.0000 0.92700  0.54820  0.86050  Biso   1.000  O
  O113     1.0000 0.42150  0.12950  0.34680  Biso   1.000  O
  O114     1.0000 0.07850  0.12950  0.15320  Biso   1.000  O
  O115     1.0000 0.57850  0.87050  0.65320  Biso   1.000  O
  O116     1.0000 0.92150  0.87050  0.84680  Biso   1.000  O
  O117     1.0000 0.35110  0.67080  0.24240  Biso   1.000  O
  O118     1.0000 0.14890  0.67080  0.25760  Biso   1.000  O
  O119     1.0000 0.64890  0.32920  0.75760  Biso   1.000  O
  O120     1.0000 0.85110  0.32920  0.74240  Biso   1.000  O
  O121     1.0000 0.37010  0.12980  0.13000  Biso   1.000  O
  O122     1.0000 0.12990  0.12980  0.37000  Biso   1.000  O
  O123     1.0000 0.62990  0.87020  0.87000  Biso   1.000  O
  O124     1.0000 0.87010  0.87020  0.63000  Biso   1.000  O
  O125     1.0000 0.49600  0.61200  0.55660  Biso   1.000  O
  O126     1.0000 0.00400  0.61200  0.94340  Biso   1.000  O
  O127     1.0000 0.50400  0.38800  0.44340  Biso   1.000  O
  O128     1.0000 0.99600  0.38800  0.05660  Biso   1.000  O
  C1       1.0000 0.30850  0.53900  0.49550  Biso   1.000  C
  C2       1.0000 0.19150  0.53900  0.00450  Biso   1.000  C
  C3       1.0000 0.69150  0.46100  0.50450  Biso   1.000  C
  C4       1.0000 0.80850  0.46100  0.99550  Biso   1.000  C
  H1       1.0000 0.30340  0.54370  0.45380  Biso   1.000  H
  H2       1.0000 0.19660  0.54370  0.04620  Biso   1.000  H
  H3       1.0000 0.69660  0.45630  0.54620  Biso   1.000  H
  H4       1.0000 0.80340  0.45630  0.95380  Biso   1.000  H
  C5       1.0000 0.24130  0.54500  0.53110  Biso   1.000  C
  C6       1.0000 0.25870  0.54500  0.96890  Biso   1.000  C
  C7       1.0000 0.75870  0.45500  0.46890  Biso   1.000  C
  C8       1.0000 0.74130  0.45500  0.03110  Biso   1.000  C
  H5       1.0000 0.18160  0.55640  0.51930  Biso   1.000  H
  H6       1.0000 0.31840  0.55640  0.98070  Biso   1.000  H
  H7       1.0000 0.81840  0.44360  0.48070  Biso   1.000  H
  H8       1.0000 0.68160  0.44360  0.01930  Biso   1.000  H
  C9       1.0000 0.36250  0.51900  0.58360  Biso   1.000  C
  C10      1.0000 0.13750  0.51900  0.91640  Biso   1.000  C
  C11      1.0000 0.63750  0.48100  0.41640  Biso   1.000  C
  C12      1.0000 0.86250  0.48100  0.08360  Biso   1.000  C
  H9       1.0000 0.40270  0.50590  0.61580  Biso   1.000  H
  H10      1.0000 0.09730  0.50590  0.88420  Biso   1.000  H
  H11      1.0000 0.59730  0.49410  0.38420  Biso   1.000  H
  H12      1.0000 0.90270  0.49410  0.11580  Biso   1.000  H
  C13      1.0000 0.64810  0.72600  0.48850  Biso   1.000  C
  C14      1.0000 0.85190  0.72600  0.01150  Biso   1.000  C
  C15      1.0000 0.35190  0.27400  0.51150  Biso   1.000  C
  C16      1.0000 0.14810  0.27400  0.98850  Biso   1.000  C
  H13      1.0000 0.60470  0.72950  0.45740  Biso   1.000  H
  H14      1.0000 0.89530  0.72950  0.04260  Biso   1.000  H
  H15      1.0000 0.39530  0.27050  0.54260  Biso   1.000  H
  H16      1.0000 0.10470  0.27050  0.95740  Biso   1.000  H
  C17      1.0000 0.77740  0.70900  0.53200  Biso   1.000  C
  C18      1.0000 0.72260  0.70900  0.96800  Biso   1.000  C
  C19      1.0000 0.22260  0.29100  0.46800  Biso   1.000  C
  C20      1.0000 0.27740  0.29100  0.03200  Biso   1.000  C
  H17      1.0000 0.83880  0.69910  0.53840  Biso   1.000  H
  H18      1.0000 0.66120  0.69910  0.96160  Biso   1.000  H
  H19      1.0000 0.16120  0.30090  0.46160  Biso   1.000  H
  H20      1.0000 0.33880  0.30090  0.03840  Biso   1.000  H
  C21      1.0000 0.71300  0.72800  0.57640  Biso   1.000  C
  C22      1.0000 0.78700  0.72800  0.92360  Biso   1.000  C
  C23      1.0000 0.28700  0.27200  0.42360  Biso   1.000  C
  C24      1.0000 0.21300  0.27200  0.07640  Biso   1.000  C
  H21      1.0000 0.72290  0.73350  0.61780  Biso   1.000  H
  H22      1.0000 0.77710  0.73350  0.88220  Biso   1.000  H
  H23      1.0000 0.27710  0.26650  0.38220  Biso   1.000  H
  H24      1.0000 0.22290  0.26650  0.11780  Biso   1.000  H
  C25      1.0000 0.37600  0.80500  0.66770  Biso   1.000  C
  C26      1.0000 0.12400  0.80500  0.83230  Biso   1.000  C
  C27      1.0000 0.62400  0.19500  0.33230  Biso   1.000  C
  C28      1.0000 0.87600  0.19500  0.16770  Biso   1.000  C
  H25      1.0000 0.41950  0.80730  0.70070  Biso   1.000  H
  H26      1.0000 0.08050  0.80730  0.79930  Biso   1.000  H
  H27      1.0000 0.58050  0.19270  0.29930  Biso   1.000  H
  H28      1.0000 0.91950  0.19270  0.20070  Biso   1.000  H
  C29      1.0000 0.29300  0.82400  0.67100  Biso   1.000  C
  C30      1.0000 0.20700  0.82400  0.82900  Biso   1.000  C
  C31      1.0000 0.70700  0.17600  0.32900  Biso   1.000  C
  C32      1.0000 0.79300  0.17600  0.17100  Biso   1.000  C
  H29      1.0000 0.26040  0.84820  0.70470  Biso   1.000  H
  H30      1.0000 0.23960  0.84820  0.79530  Biso   1.000  H
  H31      1.0000 0.73960  0.15180  0.29530  Biso   1.000  H
  H32      1.0000 0.76040  0.15180  0.20470  Biso   1.000  H
  N1       1.0000 0.39400  0.77900  0.60700  Biso   1.000  N
  N2       1.0000 0.10600  0.77900  0.89300  Biso   1.000  N
  N3       1.0000 0.60600  0.22100  0.39300  Biso   1.000  N
  N4       1.0000 0.89400  0.22100  0.10700  Biso   1.000  N
  C33      1.0000 0.32070  0.77100  0.58120  Biso   1.000  C
  C34      1.0000 0.17930  0.77100  0.91880  Biso   1.000  C
  C35      1.0000 0.67930  0.22900  0.41880  Biso   1.000  C
  C36      1.0000 0.82070  0.22900  0.08120  Biso   1.000  C
  H33      1.0000 0.31230  0.75100  0.54130  Biso   1.000  H
  H34      1.0000 0.18770  0.75100  0.95870  Biso   1.000  H
  H35      1.0000 0.68770  0.24900  0.45870  Biso   1.000  H
  H36      1.0000 0.81230  0.24900  0.04130  Biso   1.000  H
  C37      1.0000 0.63790  0.95370  0.41010  Biso   1.000  C
  C38      1.0000 0.86210  0.95370  0.08990  Biso   1.000  C
  C39      1.0000 0.36210  0.04630  0.58990  Biso   1.000  C
  C40      1.0000 0.13790  0.04630  0.91010  Biso   1.000  C
  H37      1.0000 0.59640  0.94550  0.37820  Biso   1.000  H
  H38      1.0000 0.90360  0.94550  0.12180  Biso   1.000  H
  H39      1.0000 0.40360  0.05450  0.62180  Biso   1.000  H
  H40      1.0000 0.09640  0.05450  0.87820  Biso   1.000  H
  C41      1.0000 0.72360  0.94270  0.40720  Biso   1.000  C
  C42      1.0000 0.77640  0.94270  0.09280  Biso   1.000  C
  C43      1.0000 0.27640  0.05730  0.59280  Biso   1.000  C
  C44      1.0000 0.22360  0.05730  0.90720  Biso   1.000  C
  H41      1.0000 0.75510  0.92420  0.37360  Biso   1.000  H
  H42      1.0000 0.74490  0.92420  0.12640  Biso   1.000  H
  H43      1.0000 0.24490  0.07580  0.62640  Biso   1.000  H
  H44      1.0000 0.25510  0.07580  0.87360  Biso   1.000  H
  C45      1.0000 0.69550  0.98430  0.49680  Biso   1.000  C
  C46      1.0000 0.80450  0.98430  0.00320  Biso   1.000  C
  C47      1.0000 0.30450  0.01570  0.50320  Biso   1.000  C
  C48      1.0000 0.19550  0.01570  0.99680  Biso   1.000  C
  H45      1.0000 0.70350  0.00110  0.53720  Biso   1.000  H
  H46      1.0000 0.79650  0.00110  0.96280  Biso   1.000  H
  H47      1.0000 0.29650  0.99890  0.46280  Biso   1.000  H
  H48      1.0000 0.20350  0.99890  0.03720  Biso   1.000  H
  N5       1.0000 0.38640  0.52650  0.52730  Biso   1.000  N
  N6       1.0000 0.11360  0.52650  0.97270  Biso   1.000  N
  N7       1.0000 0.61360  0.47350  0.47270  Biso   1.000  N
  N8       1.0000 0.88640  0.47350  0.02730  Biso   1.000  N
  N9       1.0000 0.61740  0.97950  0.46760  Biso   1.000  N
  N10      1.0000 0.88260  0.97950  0.03240  Biso   1.000  N
  N11      1.0000 0.38260  0.02050  0.53240  Biso   1.000  N
  N12      1.0000 0.11740  0.02050  0.96760  Biso   1.000  N
  N13      1.0000 0.63170  0.73700  0.54400  Biso   1.000  N
  N14      1.0000 0.86830  0.73700  0.95600  Biso   1.000  N
  N15      1.0000 0.36830  0.26300  0.45600  Biso   1.000  N
  N16      1.0000 0.13170  0.26300  0.04400  Biso   1.000  N
  N17      1.0000 0.27360  0.53140  0.58930  Biso   1.000  N
  N18      1.0000 0.22640  0.53140  0.91070  Biso   1.000  N
  N19      1.0000 0.72640  0.46860  0.41070  Biso   1.000  N
  N20      1.0000 0.77360  0.46860  0.08930  Biso   1.000  N
  H49      1.0000 0.24390  0.53110  0.62170  Biso   1.000  H
  H50      1.0000 0.25610  0.53110  0.87830  Biso   1.000  H
  H51      1.0000 0.75610  0.46890  0.37830  Biso   1.000  H
  H52      1.0000 0.74390  0.46890  0.12170  Biso   1.000  H
  N21      1.0000 0.73310  0.70970  0.48070  Biso   1.000  N
  N22      1.0000 0.76690  0.70970  0.01930  Biso   1.000  N
  N23      1.0000 0.26690  0.29030  0.51930  Biso   1.000  N
  N24      1.0000 0.23310  0.29030  0.98070  Biso   1.000  N
  H53      1.0000 0.75650  0.70050  0.44640  Biso   1.000  H
  H54      1.0000 0.74350  0.70050  0.05360  Biso   1.000  H
  H55      1.0000 0.24350  0.29950  0.55360  Biso   1.000  H
  H56      1.0000 0.25650  0.29950  0.94640  Biso   1.000  H
  N25      1.0000 0.75820  0.96310  0.46220  Biso   1.000  N
  N26      1.0000 0.74180  0.96310  0.03780  Biso   1.000  N
  N27      1.0000 0.24180  0.03690  0.53780  Biso   1.000  N
  N28      1.0000 0.25820  0.03690  0.96220  Biso   1.000  N
  H57      1.0000 0.81450  0.96190  0.47250  Biso   1.000  H
  H58      1.0000 0.68550  0.96190  0.02750  Biso   1.000  H
  H59      1.0000 0.18550  0.03810  0.52750  Biso   1.000  H
  H60      1.0000 0.31450  0.03810  0.97250  Biso   1.000  H
  N29      1.0000 0.26070  0.80300  0.61490  Biso   1.000  N
  N30      1.0000 0.23930  0.80300  0.88510  Biso   1.000  N
  N31      1.0000 0.73930  0.19700  0.38510  Biso   1.000  N
  N32      1.0000 0.76070  0.19700  0.11490  Biso   1.000  N
  H61      1.0000 0.20620  0.81490  0.60270  Biso   1.000  H
  H62      1.0000 0.29380  0.81490  0.89730  Biso   1.000  H
  H63      1.0000 0.79380  0.18510  0.39730  Biso   1.000  H
  H64      1.0000 0.70620  0.18510  0.10270  Biso   1.000  H
  C49      1.0000 0.38600  0.74600  0.67200  Biso   1.000  C
  C50      1.0000 0.11400  0.74600  0.82800  Biso   1.000  C
  C51      1.0000 0.61400  0.25400  0.32800  Biso   1.000  C
  C52      1.0000 0.88600  0.25400  0.17200  Biso   1.000  C
  H65      1.0000 0.43370  0.75740  0.70210  Biso   1.000  H
  H66      1.0000 0.06630  0.75740  0.79790  Biso   1.000  H
  H67      1.0000 0.56630  0.24260  0.29790  Biso   1.000  H
  H68      1.0000 0.93370  0.24260  0.20210  Biso   1.000  H
  C53      1.0000 0.32600  0.74700  0.68200  Biso   1.000  C
  C54      1.0000 0.17400  0.74700  0.81800  Biso   1.000  C
  C55      1.0000 0.67400  0.25300  0.31800  Biso   1.000  C
  C56      1.0000 0.82600  0.25300  0.18200  Biso   1.000  C
  H69      1.0000 0.29990  0.72050  0.71770  Biso   1.000  H
  H70      1.0000 0.20010  0.72050  0.78230  Biso   1.000  H
  H71      1.0000 0.70010  0.27950  0.28230  Biso   1.000  H
  H72      1.0000 0.79990  0.27950  0.21770  Biso   1.000  H
  N33      1.0000 0.39800  0.74000  0.61800  Biso   1.000  N
  N34      1.0000 0.10200  0.74000  0.88200  Biso   1.000  N
  N35      1.0000 0.60200  0.26000  0.38200  Biso   1.000  N
  N36      1.0000 0.89800  0.26000  0.11800  Biso   1.000  N
  O129     1.0000 0.50900  0.23900  0.22900  Biso   1.000  O
  O130     1.0000 0.99100  0.23900  0.27100  Biso   1.000  O
  O131     1.0000 0.49100  0.76100  0.77100  Biso   1.000  O
  O132     1.0000 0.00900  0.76100  0.72900  Biso   1.000  O
  H73      1.0000 0.51140  0.27120  0.19650  Biso   1.000  H
  H74      1.0000 0.98860  0.27120  0.30350  Biso   1.000  H
  H75      1.0000 0.48860  0.72880  0.80350  Biso   1.000  H
  H76      1.0000 0.01140  0.72880  0.69650  Biso   1.000  H
  H77      1.0000 0.50820  0.17400  0.22930  Biso   1.000  H
  H78      1.0000 0.99180  0.17400  0.27070  Biso   1.000  H
  H79      1.0000 0.49180  0.82600  0.77070  Biso   1.000  H
  H80      1.0000 0.00820  0.82600  0.72930  Biso   1.000  H
  O133     1.0000 0.48500  0.30400  0.03500  Biso   1.000  O
  O134     1.0000 0.01500  0.30400  0.46500  Biso   1.000  O
  O135     1.0000 0.51500  0.69600  0.96500  Biso   1.000  O
  O136     1.0000 0.98500  0.69600  0.53500  Biso   1.000  O
  H81      1.0000 0.48220  0.35010  0.00850  Biso   1.000  H
  H82      1.0000 0.01780  0.35010  0.49150  Biso   1.000  H
  H83      1.0000 0.51780  0.64990  0.99150  Biso   1.000  H
  H84      1.0000 0.98220  0.64990  0.50850  Biso   1.000  H
  H85      1.0000 0.48700  0.24160  0.02490  Biso   1.000  H
  H86      1.0000 0.01300  0.24160  0.47510  Biso   1.000  H
  H87      1.0000 0.51300  0.75840  0.97510  Biso   1.000  H
  H88      1.0000 0.98700  0.75840  0.52490  Biso   1.000  H
  O137     1.0000 0.88200  0.71400  0.61100  Biso   1.000  O
  O138     1.0000 0.61800  0.71400  0.88900  Biso   1.000  O
  O139     1.0000 0.11800  0.28600  0.38900  Biso   1.000  O
  O140     1.0000 0.38200  0.28600  0.11100  Biso   1.000  O
  H89      1.0000 0.87950  0.76340  0.63530  Biso   1.000  H
  H90      1.0000 0.62050  0.76340  0.86470  Biso   1.000  H
  H91      1.0000 0.12050  0.23660  0.36470  Biso   1.000  H
  H92      1.0000 0.37950  0.23660  0.13530  Biso   1.000  H
  H93      1.0000 0.93270  0.69190  0.60020  Biso   1.000  H
  H94      1.0000 0.56730  0.69190  0.89980  Biso   1.000  H
  H95      1.0000 0.06730  0.30810  0.39980  Biso   1.000  H
  H96      1.0000 0.43270  0.30810  0.10020  Biso   1.000  H
  O141     1.0000 0.94390  0.95700  0.46190  Biso   1.000  O
  O142     1.0000 0.55610  0.95700  0.03810  Biso   1.000  O
  O143     1.0000 0.05610  0.04300  0.53810  Biso   1.000  O
  O144     1.0000 0.44390  0.04300  0.96190  Biso   1.000  O
  H97      1.0000 0.97820  0.95380  0.43230  Biso   1.000  H
  H98      1.0000 0.52180  0.95380  0.06770  Biso   1.000  H
  H99      1.0000 0.02180  0.04620  0.56770  Biso   1.000  H
  H100     1.0000 0.47820  0.04620  0.93230  Biso   1.000  H
  H101     1.0000 0.95150  0.00430  0.48800  Biso   1.000  H
  H102     1.0000 0.54850  0.00430  0.01200  Biso   1.000  H
  H103     1.0000 0.04850  0.99570  0.51200  Biso   1.000  H
  H104     1.0000 0.45150  0.99570  0.98800  Biso   1.000  H
  O145     1.0000 0.92370  0.16300  0.39390  Biso   1.000  O
  O146     1.0000 0.57630  0.16300  0.10610  Biso   1.000  O
  O147     1.0000 0.07630  0.83700  0.60610  Biso   1.000  O
  O148     1.0000 0.42370  0.83700  0.89390  Biso   1.000  O
  H105     1.0000 0.97370  0.19180  0.38750  Biso   1.000  H
  H106     1.0000 0.52630  0.19180  0.11250  Biso   1.000  H
  H107     1.0000 0.02630  0.80820  0.61250  Biso   1.000  H
  H108     1.0000 0.47370  0.80820  0.88750  Biso   1.000  H
  H109     1.0000 0.91790  0.09950  0.38920  Biso   1.000  H
  H110     1.0000 0.58210  0.09950  0.11080  Biso   1.000  H
  H111     1.0000 0.08210  0.90050  0.61080  Biso   1.000  H
  H112     1.0000 0.41790  0.90050  0.88920  Biso   1.000  H
