data_image0
_cell_length_a       9.4538
_cell_length_b       8.5701
_cell_length_c       11.7136
_cell_angle_alpha    90
_cell_angle_beta     95.009
_cell_angle_gamma    90

_symmetry_space_group_name_H-M    "P 1"
_symmetry_int_tables_number       1

loop_
  _symmetry_equiv_pos_as_xyz
  'x, y, z'

loop_
  _atom_site_label
  _atom_site_occupancy
  _atom_site_fract_x
  _atom_site_fract_y
  _atom_site_fract_z
  _atom_site_thermal_displace_type
  _atom_site_B_iso_or_equiv
  _atom_site_type_symbol
  Cu1      1.0000 0.50000  0.00000  0.50000  Biso   1.000  Cu
  Cu2      1.0000 0.00000  0.50000  0.00000  Biso   1.000  Cu
  N1       1.0000 0.40670  0.21480  0.50670  Biso   1.000  N
  N2       1.0000 0.09330  0.71480  0.99330  Biso   1.000  N
  N3       1.0000 0.59330  0.78520  0.49330  Biso   1.000  N
  N4       1.0000 0.90670  0.28520  0.00670  Biso   1.000  N
  H1       1.0000 0.39250  0.23360  0.58040  Biso   1.000  H
  H2       1.0000 0.10750  0.73360  0.91960  Biso   1.000  H
  H3       1.0000 0.60750  0.76640  0.41960  Biso   1.000  H
  H4       1.0000 0.89250  0.26640  0.08040  Biso   1.000  H
  H5       1.0000 0.47010  0.28580  0.48640  Biso   1.000  H
  H6       1.0000 0.02990  0.78580  0.01360  Biso   1.000  H
  H7       1.0000 0.52990  0.71420  0.51360  Biso   1.000  H
  H8       1.0000 0.97010  0.21420  0.98640  Biso   1.000  H
  N5       1.0000 0.99420  0.51710  0.17330  Biso   1.000  N
  N6       1.0000 0.50580  0.01710  0.32670  Biso   1.000  N
  N7       1.0000 0.00580  0.48290  0.82670  Biso   1.000  N
  N8       1.0000 0.49420  0.98290  0.67330  Biso   1.000  N
  H9       1.0000 0.99450  0.61920  0.19140  Biso   1.000  H
  H10      1.0000 0.50550  0.11920  0.30860  Biso   1.000  H
  H11      1.0000 0.00550  0.38080  0.80860  Biso   1.000  H
  H12      1.0000 0.49450  0.88080  0.69140  Biso   1.000  H
  H13      1.0000 0.91060  0.47780  0.19110  Biso   1.000  H
  H14      1.0000 0.58940  0.97780  0.30890  Biso   1.000  H
  H15      1.0000 0.08940  0.52220  0.80890  Biso   1.000  H
  H16      1.0000 0.41060  0.02220  0.69110  Biso   1.000  H
  C1       1.0000 0.27080  0.24610  0.43750  Biso   1.000  C
  C2       1.0000 0.22920  0.74610  0.06250  Biso   1.000  C
  C3       1.0000 0.72920  0.75390  0.56250  Biso   1.000  C
  C4       1.0000 0.77080  0.25390  0.93750  Biso   1.000  C
  H17      1.0000 0.19950  0.17340  0.45960  Biso   1.000  H
  H18      1.0000 0.30050  0.67340  0.04040  Biso   1.000  H
  H19      1.0000 0.80050  0.82660  0.54040  Biso   1.000  H
  H20      1.0000 0.69950  0.32660  0.95960  Biso   1.000  H
  H21      1.0000 0.28360  0.22830  0.35720  Biso   1.000  H
  H22      1.0000 0.21640  0.72830  0.14280  Biso   1.000  H
  H23      1.0000 0.71640  0.77170  0.64280  Biso   1.000  H
  H24      1.0000 0.78360  0.27170  0.85720  Biso   1.000  H
  C5       1.0000 0.21820  0.41110  0.45200  Biso   1.000  C
  C6       1.0000 0.28180  0.91110  0.04800  Biso   1.000  C
  C7       1.0000 0.78180  0.58890  0.54800  Biso   1.000  C
  C8       1.0000 0.71820  0.08890  0.95200  Biso   1.000  C
  H25      1.0000 0.29290  0.48340  0.43600  Biso   1.000  H
  H26      1.0000 0.20710  0.98340  0.06400  Biso   1.000  H
  H27      1.0000 0.70710  0.51660  0.56400  Biso   1.000  H
  H28      1.0000 0.79290  0.01660  0.93600  Biso   1.000  H
  H29      1.0000 0.19870  0.42600  0.53120  Biso   1.000  H
  H30      1.0000 0.30130  0.92600  0.96880  Biso   1.000  H
  H31      1.0000 0.80130  0.57400  0.46880  Biso   1.000  H
  H32      1.0000 0.69870  0.07400  0.03120  Biso   1.000  H
  C9       1.0000 0.08470  0.45030  0.37470  Biso   1.000  C
  C10      1.0000 0.41530  0.95030  0.12530  Biso   1.000  C
  C11      1.0000 0.91530  0.54970  0.62530  Biso   1.000  C
  C12      1.0000 0.58470  0.04970  0.87470  Biso   1.000  C
  H33      1.0000 0.00960  0.37850  0.39080  Biso   1.000  H
  H34      1.0000 0.49040  0.87850  0.10920  Biso   1.000  H
  H35      1.0000 0.99040  0.62150  0.60920  Biso   1.000  H
  H36      1.0000 0.50960  0.12150  0.89080  Biso   1.000  H
  H37      1.0000 0.05380  0.55480  0.39220  Biso   1.000  H
  H38      1.0000 0.44620  0.05480  0.10780  Biso   1.000  H
  H39      1.0000 0.94620  0.44520  0.60780  Biso   1.000  H
  H40      1.0000 0.55380  0.94520  0.89220  Biso   1.000  H
  C13      1.0000 0.10730  0.44110  0.24820  Biso   1.000  C
  C14      1.0000 0.39270  0.94110  0.25180  Biso   1.000  C
  C15      1.0000 0.89270  0.55890  0.75180  Biso   1.000  C
  C16      1.0000 0.60730  0.05890  0.74820  Biso   1.000  C
  H41      1.0000 0.19740  0.48970  0.23590  Biso   1.000  H
  H42      1.0000 0.30260  0.98970  0.26410  Biso   1.000  H
  H43      1.0000 0.80260  0.51030  0.76410  Biso   1.000  H
  H44      1.0000 0.69740  0.01030  0.73590  Biso   1.000  H
  H45      1.0000 0.11300  0.33230  0.22640  Biso   1.000  H
  H46      1.0000 0.38700  0.83230  0.27360  Biso   1.000  H
  H47      1.0000 0.88700  0.66770  0.77360  Biso   1.000  H
  H48      1.0000 0.61300  0.16770  0.72640  Biso   1.000  H
  Cl1      1.0000 0.57539  0.45010  0.22927  Biso   1.000  Cl
  Cl2      1.0000 0.92461  0.95010  0.27073  Biso   1.000  Cl
  Cl3      1.0000 0.42461  0.54990  0.77073  Biso   1.000  Cl
  Cl4      1.0000 0.07539  0.04990  0.72927  Biso   1.000  Cl
  O1       1.0000 0.52000  0.48000  0.34010  Biso   1.000  O
  O2       1.0000 0.98000  0.98000  0.15990  Biso   1.000  O
  O3       1.0000 0.48000  0.52000  0.65990  Biso   1.000  O
  O4       1.0000 0.02000  0.02000  0.84010  Biso   1.000  O
  O5       1.0000 0.58000  0.59500  0.24300  Biso   1.000  O
  O6       1.0000 0.92000  0.09500  0.25700  Biso   1.000  O
  O7       1.0000 0.42000  0.40500  0.75700  Biso   1.000  O
  O8       1.0000 0.08000  0.90500  0.74300  Biso   1.000  O
  O9       1.0000 0.50700  0.42100  0.12500  Biso   1.000  O
  O10      1.0000 0.99300  0.92100  0.37500  Biso   1.000  O
  O11      1.0000 0.49300  0.57900  0.87500  Biso   1.000  O
  O12      1.0000 0.00700  0.07900  0.62500  Biso   1.000  O
  O13      1.0000 0.70400  0.36300  0.24800  Biso   1.000  O
  O14      1.0000 0.79600  0.86300  0.25200  Biso   1.000  O
  O15      1.0000 0.29600  0.63700  0.75200  Biso   1.000  O
  O16      1.0000 0.20400  0.13700  0.74800  Biso   1.000  O
  O17      1.0000 0.59900  0.59300  0.19000  Biso   1.000  O
  O18      1.0000 0.90100  0.09300  0.31000  Biso   1.000  O
  O19      1.0000 0.40100  0.40700  0.81000  Biso   1.000  O
  O20      1.0000 0.09900  0.90700  0.69000  Biso   1.000  O
  O21      1.0000 0.69200  0.40600  0.19300  Biso   1.000  O
  O22      1.0000 0.80800  0.90600  0.30700  Biso   1.000  O
  O23      1.0000 0.30800  0.59400  0.80700  Biso   1.000  O
  O24      1.0000 0.19200  0.09400  0.69300  Biso   1.000  O
  O25      1.0000 0.46120  0.34480  0.18760  Biso   1.000  O
  O26      1.0000 0.03880  0.84480  0.31240  Biso   1.000  O
  O27      1.0000 0.53880  0.65520  0.81240  Biso   1.000  O
  O28      1.0000 0.96120  0.15520  0.68760  Biso   1.000  O
  O29      1.0000 0.55200  0.38300  0.32350  Biso   1.000  O
  O30      1.0000 0.94800  0.88300  0.17650  Biso   1.000  O
  O31      1.0000 0.44800  0.61700  0.67650  Biso   1.000  O
  O32      1.0000 0.05200  0.11700  0.82350  Biso   1.000  O
  O33      1.0000 0.73130  0.16410  0.50560  Biso   1.000  O
  O34      1.0000 0.76870  0.66410  0.99440  Biso   1.000  O
  O35      1.0000 0.26870  0.83590  0.49440  Biso   1.000  O
  O36      1.0000 0.23130  0.33590  0.00560  Biso   1.000  O
