data_image0
_cell_length_a       5.7012
_cell_length_b       6.452
_cell_length_c       8.635
_cell_angle_alpha    101.536
_cell_angle_beta     100.991
_cell_angle_gamma    92.644

_symmetry_space_group_name_H-M    "P 1"
_symmetry_int_tables_number       1

loop_
  _symmetry_equiv_pos_as_xyz
  'x, y, z'

loop_
  _atom_site_label
  _atom_site_occupancy
  _atom_site_fract_x
  _atom_site_fract_y
  _atom_site_fract_z
  _atom_site_thermal_displace_type
  _atom_site_B_iso_or_equiv
  _atom_site_type_symbol
  Cu1      1.0000 0.00000  0.00000  0.00000  Biso   1.000  Cu
  S1       1.0000 0.35557  0.37080  0.15498  Biso   1.000  S
  S2       1.0000 0.64443  0.62920  0.84502  Biso   1.000  S
  N1       1.0000 0.97830  0.27570  0.60372  Biso   1.000  N
  N2       1.0000 0.02170  0.72430  0.39628  Biso   1.000  N
  N3       1.0000 0.75420  0.17200  0.55631  Biso   1.000  N
  N4       1.0000 0.24580  0.82800  0.44369  Biso   1.000  N
  N5       1.0000 0.93590  0.11740  0.79692  Biso   1.000  N
  N6       1.0000 0.06410  0.88260  0.20308  Biso   1.000  N
  N7       1.0000 0.75270  0.16340  0.08157  Biso   1.000  N
  N8       1.0000 0.24730  0.83660  0.91843  Biso   1.000  N
  C1       1.0000 0.73610  0.07990  0.67720  Biso   1.000  C
  C2       1.0000 0.26390  0.92010  0.32280  Biso   1.000  C
  H1       1.0000 0.59980  0.99710  0.68030  Biso   1.000  H
  H2       1.0000 0.40020  0.00290  0.31970  Biso   1.000  H
  C3       1.0000 0.08400  0.24200  0.74660  Biso   1.000  C
  C4       1.0000 0.91600  0.75800  0.25340  Biso   1.000  C
  H3       1.0000 0.23730  0.29700  0.80240  Biso   1.000  H
  H4       1.0000 0.76270  0.70300  0.19760  Biso   1.000  H
  C5       1.0000 0.06920  0.40230  0.50200  Biso   1.000  C
  C6       1.0000 0.93080  0.59770  0.49800  Biso   1.000  C
  H5       1.0000 0.05170  0.31790  0.39340  Biso   1.000  H
  H6       1.0000 0.94830  0.68210  0.60660  Biso   1.000  H
  H7       1.0000 0.23830  0.44540  0.54440  Biso   1.000  H
  H8       1.0000 0.76170  0.55460  0.45560  Biso   1.000  H
  C7       1.0000 0.58790  0.24900  0.11165  Biso   1.000  C
  C8       1.0000 0.41210  0.75100  0.88835  Biso   1.000  C
