data_image0
_cell_length_a       11.306
_cell_length_b       8.989
_cell_length_c       12.969
_cell_angle_alpha    90
_cell_angle_beta     90
_cell_angle_gamma    90

_symmetry_space_group_name_H-M    "P 1"
_symmetry_int_tables_number       1

loop_
  _symmetry_equiv_pos_as_xyz
  'x, y, z'

loop_
  _atom_site_label
  _atom_site_occupancy
  _atom_site_fract_x
  _atom_site_fract_y
  _atom_site_fract_z
  _atom_site_thermal_displace_type
  _atom_site_B_iso_or_equiv
  _atom_site_type_symbol
  Cu1      1.0000 0.13899  0.25159  0.74282  Biso   1.000  Cu
  Cu2      1.0000 0.36101  0.75159  0.24282  Biso   1.000  Cu
  Cu3      1.0000 0.63899  0.24841  0.74282  Biso   1.000  Cu
  Cu4      1.0000 0.86101  0.74841  0.24282  Biso   1.000  Cu
  S1       1.0000 0.99683  0.36927  0.91475  Biso   1.000  S
  S2       1.0000 0.50317  0.86927  0.41475  Biso   1.000  S
  S3       1.0000 0.49683  0.13073  0.91475  Biso   1.000  S
  S4       1.0000 0.00317  0.63073  0.41475  Biso   1.000  S
  S5       1.0000 0.28569  0.12283  0.56573  Biso   1.000  S
  S6       1.0000 0.21431  0.62283  0.06573  Biso   1.000  S
  S7       1.0000 0.78569  0.37717  0.56573  Biso   1.000  S
  S8       1.0000 0.71431  0.87717  0.06573  Biso   1.000  S
  N1       1.0000 0.20120  0.45050  0.70493  Biso   1.000  N
  N2       1.0000 0.29880  0.95050  0.20493  Biso   1.000  N
  N3       1.0000 0.70120  0.04950  0.70493  Biso   1.000  N
  N4       1.0000 0.79880  0.54950  0.20493  Biso   1.000  N
  N5       1.0000 0.26829  0.67930  0.71720  Biso   1.000  N
  N6       1.0000 0.23171  0.17930  0.21720  Biso   1.000  N
  N7       1.0000 0.76829  0.82070  0.71720  Biso   1.000  N
  N8       1.0000 0.73171  0.32070  0.21720  Biso   1.000  N
  N9       1.0000 0.57943  0.44950  0.78026  Biso   1.000  N
  N10      1.0000 0.92057  0.94950  0.28026  Biso   1.000  N
  N11      1.0000 0.07943  0.05050  0.78026  Biso   1.000  N
  N12      1.0000 0.42057  0.55050  0.28026  Biso   1.000  N
  N13      1.0000 0.51370  0.67820  0.76930  Biso   1.000  N
  N14      1.0000 0.98630  0.17820  0.26930  Biso   1.000  N
  N15      1.0000 0.01370  0.82180  0.76930  Biso   1.000  N
  N16      1.0000 0.48630  0.32180  0.26930  Biso   1.000  N
  N17      1.0000 0.77787  0.27840  0.83650  Biso   1.000  N
  N18      1.0000 0.72213  0.77840  0.33650  Biso   1.000  N
  N19      1.0000 0.27787  0.22160  0.83650  Biso   1.000  N
  N20      1.0000 0.22213  0.72160  0.33650  Biso   1.000  N
  N21      1.0000 0.50210  0.21840  0.64670  Biso   1.000  N
  N22      1.0000 0.99790  0.71840  0.14670  Biso   1.000  N
  N23      1.0000 0.00210  0.28160  0.64670  Biso   1.000  N
  N24      1.0000 0.49790  0.78160  0.14670  Biso   1.000  N
  C1       1.0000 0.24280  0.55350  0.76820  Biso   1.000  C
  C2       1.0000 0.25720  0.05350  0.26820  Biso   1.000  C
  C3       1.0000 0.74280  0.94650  0.76820  Biso   1.000  C
  C4       1.0000 0.75720  0.44650  0.26820  Biso   1.000  C
  H1       1.0000 0.25310  0.54040  0.83880  Biso   1.000  H
  H2       1.0000 0.24690  0.04040  0.33880  Biso   1.000  H
  H3       1.0000 0.75310  0.95960  0.83880  Biso   1.000  H
  H4       1.0000 0.74690  0.45960  0.33880  Biso   1.000  H
  C5       1.0000 0.24290  0.65420  0.61490  Biso   1.000  C
  C6       1.0000 0.25710  0.15420  0.11490  Biso   1.000  C
  C7       1.0000 0.74290  0.84580  0.61490  Biso   1.000  C
  C8       1.0000 0.75710  0.34580  0.11490  Biso   1.000  C
  H5       1.0000 0.25250  0.72080  0.56070  Biso   1.000  H
  H6       1.0000 0.24750  0.22080  0.06070  Biso   1.000  H
  H7       1.0000 0.75250  0.77920  0.56070  Biso   1.000  H
  H8       1.0000 0.74750  0.27920  0.06070  Biso   1.000  H
  C9       1.0000 0.20110  0.51310  0.60910  Biso   1.000  C
  C10      1.0000 0.29890  0.01310  0.10910  Biso   1.000  C
  C11      1.0000 0.70110  0.98690  0.60910  Biso   1.000  C
  C12      1.0000 0.79890  0.48690  0.10910  Biso   1.000  C
  H9       1.0000 0.17630  0.46620  0.54890  Biso   1.000  H
  H10      1.0000 0.32370  0.96620  0.04890  Biso   1.000  H
  H11      1.0000 0.67630  0.03380  0.54890  Biso   1.000  H
  H12      1.0000 0.82370  0.53380  0.04890  Biso   1.000  H
  C13      1.0000 0.53680  0.55320  0.71790  Biso   1.000  C
  C14      1.0000 0.96320  0.05320  0.21790  Biso   1.000  C
  C15      1.0000 0.03680  0.94680  0.71790  Biso   1.000  C
  C16      1.0000 0.46320  0.44680  0.21790  Biso   1.000  C
  H13      1.0000 0.52470  0.54050  0.64750  Biso   1.000  H
  H14      1.0000 0.97530  0.04050  0.14750  Biso   1.000  H
  H15      1.0000 0.02470  0.95950  0.64750  Biso   1.000  H
  H16      1.0000 0.47530  0.45950  0.14750  Biso   1.000  H
  C17      1.0000 0.54000  0.65400  0.87040  Biso   1.000  C
  C18      1.0000 0.96000  0.15400  0.37040  Biso   1.000  C
  C19      1.0000 0.04000  0.84600  0.87040  Biso   1.000  C
  C20      1.0000 0.46000  0.34600  0.37040  Biso   1.000  C
  H17      1.0000 0.53110  0.72100  0.92450  Biso   1.000  H
  H18      1.0000 0.96890  0.22100  0.42450  Biso   1.000  H
  H19      1.0000 0.03110  0.77900  0.92450  Biso   1.000  H
  H20      1.0000 0.46890  0.27900  0.42450  Biso   1.000  H
  C21      1.0000 0.58190  0.51270  0.87660  Biso   1.000  C
  C22      1.0000 0.91810  0.01270  0.37660  Biso   1.000  C
  C23      1.0000 0.08190  0.98730  0.87660  Biso   1.000  C
  C24      1.0000 0.41810  0.48730  0.37660  Biso   1.000  C
  H21      1.0000 0.60800  0.46630  0.93650  Biso   1.000  H
  H22      1.0000 0.89200  0.96630  0.43650  Biso   1.000  H
  H23      1.0000 0.10800  0.03370  0.93650  Biso   1.000  H
  H24      1.0000 0.39200  0.53370  0.43650  Biso   1.000  H
  C25      1.0000 0.32590  0.81180  0.75800  Biso   1.000  C
  C26      1.0000 0.17410  0.31180  0.25800  Biso   1.000  C
  C27      1.0000 0.82590  0.68820  0.75800  Biso   1.000  C
  C28      1.0000 0.67410  0.18820  0.25800  Biso   1.000  C
  H25      1.0000 0.31800  0.81390  0.83250  Biso   1.000  H
  H26      1.0000 0.18200  0.31390  0.33250  Biso   1.000  H
  H27      1.0000 0.81800  0.68610  0.83250  Biso   1.000  H
  H28      1.0000 0.68200  0.18610  0.33250  Biso   1.000  H
  H29      1.0000 0.28800  0.90000  0.73040  Biso   1.000  H
  H30      1.0000 0.21200  0.40000  0.23040  Biso   1.000  H
  H31      1.0000 0.78800  0.60000  0.73040  Biso   1.000  H
  H32      1.0000 0.71200  0.10000  0.23040  Biso   1.000  H
  C29      1.0000 0.45580  0.81140  0.72890  Biso   1.000  C
  C30      1.0000 0.04420  0.31140  0.22890  Biso   1.000  C
  C31      1.0000 0.95580  0.68860  0.72890  Biso   1.000  C
  C32      1.0000 0.54420  0.18860  0.22890  Biso   1.000  C
  H33      1.0000 0.46350  0.81390  0.65440  Biso   1.000  H
  H34      1.0000 0.03650  0.31390  0.15440  Biso   1.000  H
  H35      1.0000 0.96350  0.68610  0.65440  Biso   1.000  H
  H36      1.0000 0.53650  0.18610  0.15440  Biso   1.000  H
  H37      1.0000 0.49390  0.89940  0.75670  Biso   1.000  H
  H38      1.0000 0.00610  0.39940  0.25670  Biso   1.000  H
  H39      1.0000 0.99390  0.60060  0.75670  Biso   1.000  H
  H40      1.0000 0.50610  0.10060  0.25670  Biso   1.000  H
  C33      1.0000 0.86920  0.31520  0.86790  Biso   1.000  C
  C34      1.0000 0.63080  0.81520  0.36790  Biso   1.000  C
  C35      1.0000 0.36920  0.18480  0.86790  Biso   1.000  C
  C36      1.0000 0.13080  0.68480  0.36790  Biso   1.000  C
  C37      1.0000 0.41240  0.17870  0.61400  Biso   1.000  C
  C38      1.0000 0.08760  0.67870  0.11400  Biso   1.000  C
  C39      1.0000 0.91240  0.32130  0.61400  Biso   1.000  C
  C40      1.0000 0.58760  0.82130  0.11400  Biso   1.000  C
