data_image0
_cell_length_a       8.4386
_cell_length_b       8.1733
_cell_length_c       15.695
_cell_angle_alpha    90
_cell_angle_beta     93.522
_cell_angle_gamma    90

_symmetry_space_group_name_H-M    "P 1"
_symmetry_int_tables_number       1

loop_
  _symmetry_equiv_pos_as_xyz
  'x, y, z'

loop_
  _atom_site_label
  _atom_site_occupancy
  _atom_site_fract_x
  _atom_site_fract_y
  _atom_site_fract_z
  _atom_site_thermal_displace_type
  _atom_site_B_iso_or_equiv
  _atom_site_type_symbol
  Cu1      1.0000 0.50000  0.00000  0.50000  Biso   1.000  Cu
  Cu2      1.0000 0.00000  0.50000  0.00000  Biso   1.000  Cu
  N1       1.0000 0.81250  0.37250  0.58084  Biso   1.000  N
  N2       1.0000 0.68750  0.87250  0.91916  Biso   1.000  N
  N3       1.0000 0.18750  0.62750  0.41916  Biso   1.000  N
  N4       1.0000 0.31250  0.12750  0.08084  Biso   1.000  N
  N5       1.0000 0.75060  0.44990  0.50927  Biso   1.000  N
  N6       1.0000 0.74940  0.94990  0.99073  Biso   1.000  N
  N7       1.0000 0.24940  0.55010  0.49073  Biso   1.000  N
  N8       1.0000 0.25060  0.05010  0.00927  Biso   1.000  N
  N9       1.0000 0.62600  0.21060  0.52913  Biso   1.000  N
  N10      1.0000 0.87400  0.71060  0.97087  Biso   1.000  N
  N11      1.0000 0.37400  0.78940  0.47087  Biso   1.000  N
  N12      1.0000 0.12600  0.28940  0.02913  Biso   1.000  N
  N13      1.0000 0.86270  0.72220  0.61406  Biso   1.000  N
  N14      1.0000 0.63730  0.22220  0.88594  Biso   1.000  N
  N15      1.0000 0.13730  0.27780  0.38594  Biso   1.000  N
  N16      1.0000 0.36270  0.77780  0.11406  Biso   1.000  N
  N17      1.0000 0.94570  0.78090  0.54881  Biso   1.000  N
  N18      1.0000 0.55430  0.28090  0.95119  Biso   1.000  N
  N19      1.0000 0.05430  0.21910  0.45119  Biso   1.000  N
  N20      1.0000 0.44570  0.71910  0.04881  Biso   1.000  N
  N21      1.0000 0.69390  0.87370  0.53989  Biso   1.000  N
  N22      1.0000 0.80610  0.37370  0.96011  Biso   1.000  N
  N23      1.0000 0.30610  0.12630  0.46011  Biso   1.000  N
  N24      1.0000 0.19390  0.62630  0.03989  Biso   1.000  N
  N25      1.0000 0.79480  0.09600  0.25841  Biso   1.000  N
  N26      1.0000 0.70520  0.59600  0.24159  Biso   1.000  N
  N27      1.0000 0.20520  0.90400  0.74159  Biso   1.000  N
  N28      1.0000 0.29480  0.40400  0.75841  Biso   1.000  N
  N29      1.0000 0.59080  0.03030  0.35850  Biso   1.000  N
  N30      1.0000 0.90920  0.53030  0.14150  Biso   1.000  N
  N31      1.0000 0.40920  0.96970  0.64150  Biso   1.000  N
  N32      1.0000 0.09080  0.46970  0.85850  Biso   1.000  N
  N33      1.0000 0.04680  0.94710  0.24693  Biso   1.000  N
  N34      1.0000 0.45320  0.44710  0.25307  Biso   1.000  N
  N35      1.0000 0.95320  0.05290  0.75307  Biso   1.000  N
  N36      1.0000 0.54680  0.55290  0.74693  Biso   1.000  N
  C1       1.0000 0.63910  0.34820  0.48095  Biso   1.000  C
  C2       1.0000 0.86090  0.84820  0.01905  Biso   1.000  C
  C3       1.0000 0.36090  0.65180  0.51905  Biso   1.000  C
  C4       1.0000 0.13910  0.15180  0.98095  Biso   1.000  C
  H1       1.0000 0.57290  0.36880  0.43090  Biso   1.000  H
  H2       1.0000 0.92710  0.86880  0.06910  Biso   1.000  H
  H3       1.0000 0.42710  0.63120  0.56910  Biso   1.000  H
  H4       1.0000 0.07290  0.13120  0.93090  Biso   1.000  H
  C5       1.0000 0.73870  0.23150  0.59141  Biso   1.000  C
  C6       1.0000 0.76130  0.73150  0.90859  Biso   1.000  C
  C7       1.0000 0.26130  0.76850  0.40859  Biso   1.000  C
  C8       1.0000 0.23870  0.26850  0.09141  Biso   1.000  C
  H5       1.0000 0.76260  0.15660  0.63670  Biso   1.000  H
  H6       1.0000 0.73740  0.65660  0.86330  Biso   1.000  H
  H7       1.0000 0.23740  0.84340  0.36330  Biso   1.000  H
  H8       1.0000 0.26260  0.34340  0.13670  Biso   1.000  H
  C9       1.0000 0.83900  0.87100  0.50585  Biso   1.000  C
  C10      1.0000 0.66100  0.37100  0.99415  Biso   1.000  C
  C11      1.0000 0.16100  0.12900  0.49415  Biso   1.000  C
  C12      1.0000 0.33900  0.62900  0.00585  Biso   1.000  C
  H9       1.0000 0.86110  0.92920  0.45550  Biso   1.000  H
  H10      1.0000 0.63890  0.42920  0.04450  Biso   1.000  H
  H11      1.0000 0.13890  0.07080  0.54450  Biso   1.000  H
  H12      1.0000 0.36110  0.57080  0.95550  Biso   1.000  H
  C13      1.0000 0.71510  0.77810  0.60822  Biso   1.000  C
  C14      1.0000 0.78490  0.27810  0.89178  Biso   1.000  C
  C15      1.0000 0.28490  0.22190  0.39178  Biso   1.000  C
  C16      1.0000 0.21510  0.72190  0.10822  Biso   1.000  C
  H13      1.0000 0.63630  0.75360  0.64700  Biso   1.000  H
  H14      1.0000 0.86370  0.25360  0.85300  Biso   1.000  H
  H15      1.0000 0.36370  0.24640  0.35300  Biso   1.000  H
  H16      1.0000 0.13630  0.74640  0.14700  Biso   1.000  H
  C17      1.0000 0.95620  0.43650  0.62680  Biso   1.000  C
  C18      1.0000 0.54380  0.93650  0.87320  Biso   1.000  C
  C19      1.0000 0.04380  0.56350  0.37320  Biso   1.000  C
  C20      1.0000 0.45620  0.06350  0.12680  Biso   1.000  C
  H17      1.0000 0.03940  0.45280  0.58580  Biso   1.000  H
  H18      1.0000 0.46060  0.95280  0.91420  Biso   1.000  H
  H19      1.0000 0.96060  0.54720  0.41420  Biso   1.000  H
  H20      1.0000 0.53940  0.04720  0.08580  Biso   1.000  H
  H21      1.0000 0.99600  0.35440  0.66930  Biso   1.000  H
  H22      1.0000 0.50400  0.85440  0.83070  Biso   1.000  H
  H23      1.0000 0.00400  0.64560  0.33070  Biso   1.000  H
  H24      1.0000 0.49600  0.14560  0.16930  Biso   1.000  H
  C21      1.0000 0.92820  0.59790  0.67241  Biso   1.000  C
  C22      1.0000 0.57180  0.09790  0.82759  Biso   1.000  C
  C23      1.0000 0.07180  0.40210  0.32759  Biso   1.000  C
  C24      1.0000 0.42820  0.90210  0.17241  Biso   1.000  C
  H25      1.0000 0.85410  0.57930  0.71800  Biso   1.000  H
  H26      1.0000 0.64590  0.07930  0.78200  Biso   1.000  H
  H27      1.0000 0.14590  0.42070  0.28200  Biso   1.000  H
  H28      1.0000 0.35410  0.92070  0.21800  Biso   1.000  H
  H29      1.0000 0.02990  0.63750  0.69960  Biso   1.000  H
  H30      1.0000 0.47010  0.13750  0.80040  Biso   1.000  H
  H31      1.0000 0.97010  0.36250  0.30040  Biso   1.000  H
  H32      1.0000 0.52990  0.86250  0.19960  Biso   1.000  H
  C25      1.0000 0.69150  0.05560  0.31364  Biso   1.000  C
  C26      1.0000 0.80850  0.55560  0.18636  Biso   1.000  C
  C27      1.0000 0.30850  0.94440  0.68636  Biso   1.000  C
  C28      1.0000 0.19150  0.44440  0.81364  Biso   1.000  C
  C29      1.0000 0.92640  0.01190  0.25472  Biso   1.000  C
  C30      1.0000 0.57360  0.51190  0.24528  Biso   1.000  C
  C31      1.0000 0.07360  0.98810  0.74528  Biso   1.000  C
  C32      1.0000 0.42640  0.48810  0.75472  Biso   1.000  C
