data_image0
_cell_length_a       8.9479
_cell_length_b       9.3027
_cell_length_c       9.749
_cell_angle_alpha    98.118
_cell_angle_beta     104.895
_cell_angle_gamma    97.879

_symmetry_space_group_name_H-M    "P 1"
_symmetry_int_tables_number       1

loop_
  _symmetry_equiv_pos_as_xyz
  'x, y, z'

loop_
  _atom_site_label
  _atom_site_occupancy
  _atom_site_fract_x
  _atom_site_fract_y
  _atom_site_fract_z
  _atom_site_thermal_displace_type
  _atom_site_B_iso_or_equiv
  _atom_site_type_symbol
  O1       1.0000 0.80870  0.62260  0.40390  Biso   1.000  O
  O2       1.0000 0.19130  0.37740  0.59610  Biso   1.000  O
  O3       1.0000 0.79810  0.86680  0.41230  Biso   1.000  O
  O4       1.0000 0.20190  0.13320  0.58770  Biso   1.000  O
  O5       1.0000 0.03230  0.57660  0.71960  Biso   1.000  O
  O6       1.0000 0.96770  0.42340  0.28040  Biso   1.000  O
  O7       1.0000 0.09000  0.76080  0.60271  Biso   1.000  O
  O8       1.0000 0.91000  0.23920  0.39729  Biso   1.000  O
  O9       1.0000 0.98760  0.72510  0.21800  Biso   1.000  O
  O10      1.0000 0.01240  0.27490  0.78200  Biso   1.000  O
  O11      1.0000 0.08410  0.96040  0.33430  Biso   1.000  O
  O12      1.0000 0.91590  0.03960  0.66570  Biso   1.000  O
  O13      1.0000 0.46930  0.20750  0.93110  Biso   1.000  O
  O14      1.0000 0.53070  0.79250  0.06890  Biso   1.000  O
  O15      1.0000 0.39900  0.29230  0.12130  Biso   1.000  O
  O16      1.0000 0.60100  0.70770  0.87870  Biso   1.000  O
  O17      1.0000 0.31020  0.54380  0.97680  Biso   1.000  O
  O18      1.0000 0.68980  0.45620  0.02320  Biso   1.000  O
  N1       1.0000 0.25850  0.65230  0.41580  Biso   1.000  N
  N2       1.0000 0.74150  0.34770  0.58420  Biso   1.000  N
  C1       1.0000 0.31700  0.55000  0.34310  Biso   1.000  C
  C2       1.0000 0.68300  0.45000  0.65690  Biso   1.000  C
  H1       1.0000 0.25030  0.46220  0.29310  Biso   1.000  H
  H2       1.0000 0.74970  0.53780  0.70690  Biso   1.000  H
  C3       1.0000 0.47280  0.57030  0.34000  Biso   1.000  C
  C4       1.0000 0.52720  0.42970  0.66000  Biso   1.000  C
  H3       1.0000 0.51030  0.49560  0.29230  Biso   1.000  H
  H4       1.0000 0.48970  0.50440  0.70770  Biso   1.000  H
  C5       1.0000 0.57160  0.70320  0.40870  Biso   1.000  C
  C6       1.0000 0.42840  0.29680  0.59130  Biso   1.000  C
  C7       1.0000 0.51200  0.80930  0.48390  Biso   1.000  C
  C8       1.0000 0.48800  0.19070  0.51610  Biso   1.000  C
  Cu1      1.0000 0.00000  0.00000  0.50000  Biso   1.000  Cu
  H5       1.0000 0.57570  0.89920  0.53200  Biso   1.000  H
  H6       1.0000 0.42430  0.10080  0.46800  Biso   1.000  H
  C9       1.0000 0.35690  0.77960  0.48650  Biso   1.000  C
  C10      1.0000 0.64310  0.22040  0.51350  Biso   1.000  C
  H7       1.0000 0.31890  0.85020  0.53900  Biso   1.000  H
  H8       1.0000 0.68110  0.14980  0.46100  Biso   1.000  H
  C11      1.0000 0.74140  0.73380  0.40750  Biso   1.000  C
  C12      1.0000 0.25860  0.26620  0.59250  Biso   1.000  C
  C13      1.0000 0.13180  0.81860  0.85650  Biso   1.000  C
  C14      1.0000 0.86820  0.18140  0.14350  Biso   1.000  C
  C15      1.0000 0.07610  0.78650  0.97260  Biso   1.000  C
  C16      1.0000 0.92390  0.21350  0.02740  Biso   1.000  C
  H9       1.0000 0.01120  0.69660  0.96380  Biso   1.000  H
  H10      1.0000 0.98880  0.30340  0.03620  Biso   1.000  H
  C17      1.0000 0.11780  0.88950  0.10210  Biso   1.000  C
  C18      1.0000 0.88220  0.11050  0.89790  Biso   1.000  C
  C19      1.0000 0.21840  0.02190  0.11560  Biso   1.000  C
  C20      1.0000 0.78160  0.97810  0.88440  Biso   1.000  C
  H11      1.0000 0.24470  0.09130  0.20060  Biso   1.000  H
  H12      1.0000 0.75530  0.90870  0.79940  Biso   1.000  H
  C21      1.0000 0.28040  0.05150  0.00200  Biso   1.000  C
  C22      1.0000 0.71960  0.94850  0.99800  Biso   1.000  C
  C23      1.0000 0.23540  0.95120  0.87150  Biso   1.000  C
  C24      1.0000 0.76460  0.04880  0.12850  Biso   1.000  C
  H13      1.0000 0.27380  0.97220  0.79510  Biso   1.000  H
  H14      1.0000 0.72620  0.02780  0.20490  Biso   1.000  H
  C25      1.0000 0.08050  0.70970  0.71550  Biso   1.000  C
  C26      1.0000 0.91950  0.29030  0.28450  Biso   1.000  C
  C27      1.0000 0.39100  0.19390  0.02530  Biso   1.000  C
  C28      1.0000 0.60900  0.80610  0.97470  Biso   1.000  C
  C29      1.0000 0.05610  0.85460  0.22660  Biso   1.000  C
  C30      1.0000 0.94390  0.14540  0.77340  Biso   1.000  C
  H15      1.0000 0.32400  0.48300  0.00600  Biso   1.000  H
  H16      1.0000 0.67600  0.51700  0.99400  Biso   1.000  H
  H17      1.0000 0.22600  0.51900  0.90800  Biso   1.000  H
  H18      1.0000 0.77400  0.48100  0.09200  Biso   1.000  H
  H19      1.0000 0.54000  0.28300  0.96500  Biso   1.000  H
  H20      1.0000 0.46000  0.71700  0.03500  Biso   1.000  H
  Cu2      1.0000 0.02922  0.63287  0.40791  Biso   1.000  Cu
  Cu3      1.0000 0.97078  0.36713  0.59209  Biso   1.000  Cu
