data_image0
_cell_length_a       9.6113
_cell_length_b       10.697
_cell_length_c       19.954
_cell_angle_alpha    90
_cell_angle_beta     94.941
_cell_angle_gamma    90

_symmetry_space_group_name_H-M    "P 1"
_symmetry_int_tables_number       1

loop_
  _symmetry_equiv_pos_as_xyz
  'x, y, z'

loop_
  _atom_site_label
  _atom_site_occupancy
  _atom_site_fract_x
  _atom_site_fract_y
  _atom_site_fract_z
  _atom_site_thermal_displace_type
  _atom_site_B_iso_or_equiv
  _atom_site_type_symbol
  Cu1      1.0000 0.25227  0.72964  0.05509  Biso   1.000  Cu
  Cu2      1.0000 0.24773  0.22964  0.44491  Biso   1.000  Cu
  Cu3      1.0000 0.74773  0.27036  0.94491  Biso   1.000  Cu
  Cu4      1.0000 0.75227  0.77036  0.55509  Biso   1.000  Cu
  O1       1.0000 0.12590  0.84050  0.00368  Biso   1.000  O
  O2       1.0000 0.37410  0.34050  0.49632  Biso   1.000  O
  O3       1.0000 0.87410  0.15950  0.99632  Biso   1.000  O
  O4       1.0000 0.62590  0.65950  0.50368  Biso   1.000  O
  O5       1.0000 0.31670  0.91830  0.96811  Biso   1.000  O
  O6       1.0000 0.18330  0.41830  0.53189  Biso   1.000  O
  O7       1.0000 0.68330  0.08170  0.03189  Biso   1.000  O
  O8       1.0000 0.81670  0.58170  0.46811  Biso   1.000  O
  O9       1.0000 0.80270  0.65660  0.62901  Biso   1.000  O
  O10      1.0000 0.69730  0.15660  0.87099  Biso   1.000  O
  O11      1.0000 0.19730  0.34340  0.37099  Biso   1.000  O
  O12      1.0000 0.30270  0.84340  0.12901  Biso   1.000  O
  O13      1.0000 0.63120  0.75890  0.67022  Biso   1.000  O
  O14      1.0000 0.86880  0.25890  0.82978  Biso   1.000  O
  O15      1.0000 0.36880  0.24110  0.32978  Biso   1.000  O
  O16      1.0000 0.13120  0.74110  0.17022  Biso   1.000  O
  N1       1.0000 0.19380  0.58660  0.99372  Biso   1.000  N
  N2       1.0000 0.30620  0.08660  0.50628  Biso   1.000  N
  N3       1.0000 0.80620  0.41340  0.00628  Biso   1.000  N
  N4       1.0000 0.69380  0.91340  0.49372  Biso   1.000  N
  N5       1.0000 0.39490  0.60350  0.09150  Biso   1.000  N
  N6       1.0000 0.10510  0.10350  0.40850  Biso   1.000  N
  N7       1.0000 0.60510  0.39650  0.90850  Biso   1.000  N
  N8       1.0000 0.89490  0.89650  0.59150  Biso   1.000  N
  C1       1.0000 0.18860  0.90920  0.96390  Biso   1.000  C
  C2       1.0000 0.31140  0.40920  0.53610  Biso   1.000  C
  C3       1.0000 0.81140  0.09080  0.03610  Biso   1.000  C
  C4       1.0000 0.68860  0.59080  0.46390  Biso   1.000  C
  C5       1.0000 0.09880  0.97750  0.90920  Biso   1.000  C
  C6       1.0000 0.40120  0.47750  0.59080  Biso   1.000  C
  C7       1.0000 0.90120  0.02250  0.09080  Biso   1.000  C
  C8       1.0000 0.59880  0.52250  0.40920  Biso   1.000  C
  H1       1.0000 0.03810  0.03610  0.92960  Biso   1.000  H
  H2       1.0000 0.46190  0.53610  0.57040  Biso   1.000  H
  H3       1.0000 0.96190  0.96390  0.07040  Biso   1.000  H
  H4       1.0000 0.53810  0.46390  0.42960  Biso   1.000  H
  H5       1.0000 0.15820  0.02440  0.88140  Biso   1.000  H
  H6       1.0000 0.34180  0.52440  0.61860  Biso   1.000  H
  H7       1.0000 0.84180  0.97560  0.11860  Biso   1.000  H
  H8       1.0000 0.65820  0.47560  0.38140  Biso   1.000  H
  C9       1.0000 0.01150  0.88590  0.86607  Biso   1.000  C
  C10      1.0000 0.48850  0.38590  0.63393  Biso   1.000  C
  C11      1.0000 0.98850  0.11410  0.13393  Biso   1.000  C
  C12      1.0000 0.51150  0.61410  0.36607  Biso   1.000  C
  C13      1.0000 0.86940  0.87420  0.87050  Biso   1.000  C
  C14      1.0000 0.63060  0.37420  0.62950  Biso   1.000  C
  C15      1.0000 0.13060  0.12580  0.12950  Biso   1.000  C
  C16      1.0000 0.36940  0.62580  0.37050  Biso   1.000  C
  H9       1.0000 0.82530  0.92520  0.90000  Biso   1.000  H
  H10      1.0000 0.67470  0.42520  0.60000  Biso   1.000  H
  H11      1.0000 0.17470  0.07480  0.10000  Biso   1.000  H
  H12      1.0000 0.32530  0.57480  0.40000  Biso   1.000  H
  C17      1.0000 0.79220  0.78800  0.83185  Biso   1.000  C
  C18      1.0000 0.70780  0.28800  0.66815  Biso   1.000  C
  C19      1.0000 0.20780  0.21200  0.16815  Biso   1.000  C
  C20      1.0000 0.29220  0.71200  0.33185  Biso   1.000  C
  H13      1.0000 0.69630  0.78360  0.83480  Biso   1.000  H
  H14      1.0000 0.80370  0.28360  0.66520  Biso   1.000  H
  H15      1.0000 0.30370  0.21640  0.16520  Biso   1.000  H
  H16      1.0000 0.19630  0.71640  0.33480  Biso   1.000  H
  C21      1.0000 0.85330  0.70820  0.78897  Biso   1.000  C
  C22      1.0000 0.64670  0.20820  0.71103  Biso   1.000  C
  C23      1.0000 0.14670  0.29180  0.21103  Biso   1.000  C
  C24      1.0000 0.35330  0.79180  0.28897  Biso   1.000  C
  C25      1.0000 0.99680  0.71820  0.78544  Biso   1.000  C
  C26      1.0000 0.50320  0.21820  0.71456  Biso   1.000  C
  C27      1.0000 0.00320  0.28180  0.21456  Biso   1.000  C
  C28      1.0000 0.49680  0.78180  0.28544  Biso   1.000  C
  H17      1.0000 0.04150  0.66460  0.75750  Biso   1.000  H
  H18      1.0000 0.45850  0.16460  0.74250  Biso   1.000  H
  H19      1.0000 0.95850  0.33540  0.24250  Biso   1.000  H
  H20      1.0000 0.54150  0.83540  0.25750  Biso   1.000  H
  C29      1.0000 0.07350  0.80640  0.82280  Biso   1.000  C
  C30      1.0000 0.42650  0.30640  0.67720  Biso   1.000  C
  C31      1.0000 0.92650  0.19360  0.17720  Biso   1.000  C
  C32      1.0000 0.57350  0.69360  0.32280  Biso   1.000  C
  H21      1.0000 0.16900  0.81260  0.81890  Biso   1.000  H
  H22      1.0000 0.33100  0.31260  0.68110  Biso   1.000  H
  H23      1.0000 0.83100  0.18740  0.18110  Biso   1.000  H
  H24      1.0000 0.66900  0.68740  0.31890  Biso   1.000  H
  C33      1.0000 0.76540  0.61810  0.74360  Biso   1.000  C
  C34      1.0000 0.73460  0.11810  0.75640  Biso   1.000  C
  C35      1.0000 0.23460  0.38190  0.25640  Biso   1.000  C
  C36      1.0000 0.26540  0.88190  0.24360  Biso   1.000  C
  H25      1.0000 0.68170  0.59510  0.76460  Biso   1.000  H
  H26      1.0000 0.81830  0.09510  0.73540  Biso   1.000  H
  H27      1.0000 0.31830  0.40490  0.23540  Biso   1.000  H
  H28      1.0000 0.18170  0.90490  0.26460  Biso   1.000  H
  H29      1.0000 0.81820  0.54260  0.73670  Biso   1.000  H
  H30      1.0000 0.68180  0.04260  0.76330  Biso   1.000  H
  H31      1.0000 0.18180  0.45740  0.26330  Biso   1.000  H
  H32      1.0000 0.31820  0.95740  0.23670  Biso   1.000  H
  C37      1.0000 0.72600  0.68240  0.67630  Biso   1.000  C
  C38      1.0000 0.77400  0.18240  0.82370  Biso   1.000  C
  C39      1.0000 0.27400  0.31760  0.32370  Biso   1.000  C
  C40      1.0000 0.22600  0.81760  0.17630  Biso   1.000  C
  C41      1.0000 0.09190  0.58160  0.94480  Biso   1.000  C
  C42      1.0000 0.40810  0.08160  0.55520  Biso   1.000  C
  C43      1.0000 0.90810  0.41840  0.05520  Biso   1.000  C
  C44      1.0000 0.59190  0.91840  0.44480  Biso   1.000  C
  H33      1.0000 0.04030  0.65360  0.93430  Biso   1.000  H
  H34      1.0000 0.45970  0.15360  0.56570  Biso   1.000  H
  H35      1.0000 0.95970  0.34640  0.06570  Biso   1.000  H
  H36      1.0000 0.54030  0.84640  0.43430  Biso   1.000  H
  C45      1.0000 0.05870  0.47320  0.90840  Biso   1.000  C
  C46      1.0000 0.44130  0.97320  0.59160  Biso   1.000  C
  C47      1.0000 0.94130  0.52680  0.09160  Biso   1.000  C
  C48      1.0000 0.55870  0.02680  0.40840  Biso   1.000  C
  H37      1.0000 0.98730  0.47340  0.87380  Biso   1.000  H
  H38      1.0000 0.51270  0.97340  0.62620  Biso   1.000  H
  H39      1.0000 0.01270  0.52660  0.12620  Biso   1.000  H
  H40      1.0000 0.48730  0.02660  0.37380  Biso   1.000  H
  C49      1.0000 0.13190  0.36700  0.92390  Biso   1.000  C
  C50      1.0000 0.36810  0.86700  0.57610  Biso   1.000  C
  C51      1.0000 0.86810  0.63300  0.07610  Biso   1.000  C
  C52      1.0000 0.63190  0.13300  0.42390  Biso   1.000  C
  H41      1.0000 0.10910  0.29370  0.90040  Biso   1.000  H
  H42      1.0000 0.39090  0.79370  0.59960  Biso   1.000  H
  H43      1.0000 0.89090  0.70630  0.09960  Biso   1.000  H
  H44      1.0000 0.60910  0.20630  0.40040  Biso   1.000  H
  C53      1.0000 0.24100  0.36670  0.97480  Biso   1.000  C
  C54      1.0000 0.25900  0.86670  0.52520  Biso   1.000  C
  C55      1.0000 0.75900  0.63330  0.02520  Biso   1.000  C
  C56      1.0000 0.74100  0.13330  0.47480  Biso   1.000  C
  C57      1.0000 0.32780  0.26280  0.99470  Biso   1.000  C
  C58      1.0000 0.17220  0.76280  0.50530  Biso   1.000  C
  C59      1.0000 0.67220  0.73720  0.00530  Biso   1.000  C
  C60      1.0000 0.82780  0.23720  0.49470  Biso   1.000  C
  H45      1.0000 0.31190  0.18660  0.97290  Biso   1.000  H
  H46      1.0000 0.18810  0.68660  0.52710  Biso   1.000  H
  H47      1.0000 0.68810  0.81340  0.02710  Biso   1.000  H
  H48      1.0000 0.81190  0.31340  0.47290  Biso   1.000  H
  C61      1.0000 0.43120  0.27140  0.04350  Biso   1.000  C
  C62      1.0000 0.06880  0.77140  0.45650  Biso   1.000  C
  C63      1.0000 0.56880  0.72860  0.95650  Biso   1.000  C
  C64      1.0000 0.93120  0.22860  0.54350  Biso   1.000  C
  H49      1.0000 0.48590  0.20150  0.05460  Biso   1.000  H
  H50      1.0000 0.01410  0.70150  0.44540  Biso   1.000  H
  H51      1.0000 0.51410  0.79850  0.94540  Biso   1.000  H
  H52      1.0000 0.98590  0.29850  0.55460  Biso   1.000  H
  C65      1.0000 0.45960  0.38550  0.07900  Biso   1.000  C
  C66      1.0000 0.04040  0.88550  0.42100  Biso   1.000  C
  C67      1.0000 0.54040  0.61450  0.92100  Biso   1.000  C
  C68      1.0000 0.95960  0.11450  0.57900  Biso   1.000  C
  C69      1.0000 0.56570  0.40240  0.13080  Biso   1.000  C
  C70      1.0000 0.93430  0.90240  0.36920  Biso   1.000  C
  C71      1.0000 0.43430  0.59760  0.86920  Biso   1.000  C
  C72      1.0000 0.06570  0.09760  0.63080  Biso   1.000  C
  H53      1.0000 0.62280  0.33560  0.14500  Biso   1.000  H
  H54      1.0000 0.87720  0.83560  0.35500  Biso   1.000  H
  H55      1.0000 0.37720  0.66440  0.85500  Biso   1.000  H
  H56      1.0000 0.12280  0.16440  0.64500  Biso   1.000  H
  C73      1.0000 0.58570  0.51660  0.16060  Biso   1.000  C
  C74      1.0000 0.91430  0.01660  0.33940  Biso   1.000  C
  C75      1.0000 0.41430  0.48340  0.83940  Biso   1.000  C
  C76      1.0000 0.08570  0.98340  0.66060  Biso   1.000  C
  H57      1.0000 0.65680  0.52780  0.19480  Biso   1.000  H
  H58      1.0000 0.84320  0.02780  0.30520  Biso   1.000  H
  H59      1.0000 0.34320  0.47220  0.80520  Biso   1.000  H
  H60      1.0000 0.15680  0.97220  0.69480  Biso   1.000  H
  C77      1.0000 0.49850  0.61740  0.13960  Biso   1.000  C
  C78      1.0000 0.00150  0.11740  0.36040  Biso   1.000  C
  C79      1.0000 0.50150  0.38260  0.86040  Biso   1.000  C
  C80      1.0000 0.99850  0.88260  0.63960  Biso   1.000  C
  H61      1.0000 0.51350  0.69520  0.15980  Biso   1.000  H
  H62      1.0000 0.98650  0.19520  0.34020  Biso   1.000  H
  H63      1.0000 0.48650  0.30480  0.84020  Biso   1.000  H
  H64      1.0000 0.01350  0.80480  0.65980  Biso   1.000  H
  C81      1.0000 0.37680  0.49000  0.06150  Biso   1.000  C
  C82      1.0000 0.12320  0.99000  0.43850  Biso   1.000  C
  C83      1.0000 0.62320  0.51000  0.93850  Biso   1.000  C
  C84      1.0000 0.87680  0.01000  0.56150  Biso   1.000  C
  C85      1.0000 0.26750  0.48040  0.00890  Biso   1.000  C
  C86      1.0000 0.23250  0.98040  0.49110  Biso   1.000  C
  C87      1.0000 0.73250  0.51960  0.99110  Biso   1.000  C
  C88      1.0000 0.76750  0.01960  0.50890  Biso   1.000  C
  O17      1.0000 0.45090  0.01210  0.85913  Biso   1.000  O
  O18      1.0000 0.04910  0.51210  0.64087  Biso   1.000  O
  O19      1.0000 0.54910  0.98790  0.14087  Biso   1.000  O
  O20      1.0000 0.95090  0.48790  0.35913  Biso   1.000  O
  H65      1.0000 0.53050  0.04620  0.86440  Biso   1.000  H
  H66      1.0000 0.96950  0.54620  0.63560  Biso   1.000  H
  H67      1.0000 0.46950  0.95380  0.13560  Biso   1.000  H
  H68      1.0000 0.03050  0.45380  0.36440  Biso   1.000  H
  H69      1.0000 0.41430  0.98750  0.89380  Biso   1.000  H
  H70      1.0000 0.08570  0.48750  0.60620  Biso   1.000  H
  H71      1.0000 0.58570  0.01250  0.10620  Biso   1.000  H
  H72      1.0000 0.91430  0.51250  0.39380  Biso   1.000  H
  O21      1.0000 0.40400  0.83570  0.75308  Biso   1.000  O
  O22      1.0000 0.09600  0.33570  0.74692  Biso   1.000  O
  O23      1.0000 0.59600  0.16430  0.24692  Biso   1.000  O
  O24      1.0000 0.90400  0.66430  0.25308  Biso   1.000  O
  H73      1.0000 0.46470  0.81420  0.72670  Biso   1.000  H
  H74      1.0000 0.03530  0.31420  0.77330  Biso   1.000  H
  H75      1.0000 0.53530  0.18580  0.27330  Biso   1.000  H
  H76      1.0000 0.96470  0.68580  0.22670  Biso   1.000  H
  H77      1.0000 0.43150  0.88350  0.78560  Biso   1.000  H
  H78      1.0000 0.06850  0.38350  0.71440  Biso   1.000  H
  H79      1.0000 0.56850  0.11650  0.21440  Biso   1.000  H
  H80      1.0000 0.93150  0.61650  0.28560  Biso   1.000  H
