data_image0
_cell_length_a       14.294
_cell_length_b       20.777
_cell_length_c       12.952
_cell_angle_alpha    90
_cell_angle_beta     92.29
_cell_angle_gamma    90

_symmetry_space_group_name_H-M    "P 1"
_symmetry_int_tables_number       1

loop_
  _symmetry_equiv_pos_as_xyz
  'x, y, z'

loop_
  _atom_site_label
  _atom_site_occupancy
  _atom_site_fract_x
  _atom_site_fract_y
  _atom_site_fract_z
  _atom_site_thermal_displace_type
  _atom_site_B_iso_or_equiv
  _atom_site_type_symbol
  Cu1      1.0000 0.00000  0.50000  0.00000  Biso   1.000  Cu
  Cu2      1.0000 0.00000  0.00000  0.50000  Biso   1.000  Cu
  Cu3      1.0000 0.22113  0.49321  0.97462  Biso   1.000  Cu
  Cu4      1.0000 0.77887  0.99321  0.52538  Biso   1.000  Cu
  Cu5      1.0000 0.77887  0.50679  0.02538  Biso   1.000  Cu
  Cu6      1.0000 0.22113  0.00679  0.47462  Biso   1.000  Cu
  O1       1.0000 0.10020  0.43865  0.47500  Biso   1.000  O
  O2       1.0000 0.89980  0.93865  0.02500  Biso   1.000  O
  O3       1.0000 0.89980  0.56135  0.52500  Biso   1.000  O
  O4       1.0000 0.10020  0.06135  0.97500  Biso   1.000  O
  O5       1.0000 0.87100  0.32680  0.63360  Biso   1.000  O
  O6       1.0000 0.12900  0.82680  0.86640  Biso   1.000  O
  O7       1.0000 0.12900  0.67320  0.36640  Biso   1.000  O
  O8       1.0000 0.87100  0.17320  0.13360  Biso   1.000  O
  O9       1.0000 0.96850  0.26120  0.31930  Biso   1.000  O
  O10      1.0000 0.03150  0.76120  0.18070  Biso   1.000  O
  O11      1.0000 0.03150  0.73880  0.68070  Biso   1.000  O
  O12      1.0000 0.96850  0.23880  0.81930  Biso   1.000  O
  O13      1.0000 0.10330  0.44582  0.05780  Biso   1.000  O
  O14      1.0000 0.89670  0.94582  0.44220  Biso   1.000  O
  O15      1.0000 0.89670  0.55418  0.94220  Biso   1.000  O
  O16      1.0000 0.10330  0.05418  0.55780  Biso   1.000  O
  O17      1.0000 0.20320  0.38120  0.14290  Biso   1.000  O
  O18      1.0000 0.79680  0.88120  0.35710  Biso   1.000  O
  O19      1.0000 0.79680  0.61880  0.85710  Biso   1.000  O
  O20      1.0000 0.20320  0.11880  0.64290  Biso   1.000  O
  O21      1.0000 0.01680  0.45625  0.86500  Biso   1.000  O
  O22      1.0000 0.98320  0.95625  0.63500  Biso   1.000  O
  O23      1.0000 0.98320  0.54375  0.13500  Biso   1.000  O
  O24      1.0000 0.01680  0.04375  0.36500  Biso   1.000  O
  O25      1.0000 0.17520  0.45407  0.84580  Biso   1.000  O
  O26      1.0000 0.82480  0.95407  0.65420  Biso   1.000  O
  O27      1.0000 0.82480  0.54593  0.15420  Biso   1.000  O
  O28      1.0000 0.17520  0.04593  0.34580  Biso   1.000  O
  O29      1.0000 0.75170  0.13180  0.56620  Biso   1.000  O
  O30      1.0000 0.24830  0.63180  0.93380  Biso   1.000  O
  O31      1.0000 0.24830  0.86820  0.43380  Biso   1.000  O
  O32      1.0000 0.75170  0.36820  0.06620  Biso   1.000  O
  O33      1.0000 0.86790  0.06683  0.53310  Biso   1.000  O
  O34      1.0000 0.13210  0.56683  0.96690  Biso   1.000  O
  O35      1.0000 0.13210  0.93317  0.46690  Biso   1.000  O
  O36      1.0000 0.86790  0.43317  0.03310  Biso   1.000  O
  N1       1.0000 0.03390  0.35110  0.39320  Biso   1.000  N
  N2       1.0000 0.96610  0.85110  0.10680  Biso   1.000  N
  N3       1.0000 0.96610  0.64890  0.60680  Biso   1.000  N
  N4       1.0000 0.03390  0.14890  0.89320  Biso   1.000  N
  N5       1.0000 0.98740  0.38262  0.55650  Biso   1.000  N
  N6       1.0000 0.01260  0.88262  0.94350  Biso   1.000  N
  N7       1.0000 0.01260  0.61738  0.44350  Biso   1.000  N
  N8       1.0000 0.98740  0.11738  0.05650  Biso   1.000  N
  N9       1.0000 0.91920  0.29209  0.47700  Biso   1.000  N
  N10      1.0000 0.08080  0.79209  0.02300  Biso   1.000  N
  N11      1.0000 0.08080  0.70791  0.52300  Biso   1.000  N
  N12      1.0000 0.91920  0.20791  0.97700  Biso   1.000  N
  N13      1.0000 0.28100  0.51970  0.11170  Biso   1.000  N
  N14      1.0000 0.71900  0.01970  0.38830  Biso   1.000  N
  N15      1.0000 0.71900  0.48030  0.88830  Biso   1.000  N
  N16      1.0000 0.28100  0.98030  0.61170  Biso   1.000  N
  N17      1.0000 0.34390  0.44300  0.96690  Biso   1.000  N
  N18      1.0000 0.65610  0.94300  0.53310  Biso   1.000  N
  N19      1.0000 0.65610  0.55700  0.03310  Biso   1.000  N
  N20      1.0000 0.34390  0.05700  0.46690  Biso   1.000  N
  C1       1.0000 0.04450  0.39330  0.47480  Biso   1.000  C
  C2       1.0000 0.95550  0.89330  0.02520  Biso   1.000  C
  C3       1.0000 0.95550  0.60670  0.52520  Biso   1.000  C
  C4       1.0000 0.04450  0.10670  0.97480  Biso   1.000  C
  C5       1.0000 0.92070  0.33330  0.56240  Biso   1.000  C
  C6       1.0000 0.07930  0.83330  0.93760  Biso   1.000  C
  C7       1.0000 0.07930  0.66670  0.43760  Biso   1.000  C
  C8       1.0000 0.92070  0.16670  0.06240  Biso   1.000  C
  C9       1.0000 0.97270  0.29830  0.39090  Biso   1.000  C
  C10      1.0000 0.02730  0.79830  0.10910  Biso   1.000  C
  C11      1.0000 0.02730  0.70170  0.60910  Biso   1.000  C
  C12      1.0000 0.97270  0.20170  0.89090  Biso   1.000  C
  C13      1.0000 0.09780  0.35710  0.30600  Biso   1.000  C
  C14      1.0000 0.90220  0.85710  0.19400  Biso   1.000  C
  C15      1.0000 0.90220  0.64290  0.69400  Biso   1.000  C
  C16      1.0000 0.09780  0.14290  0.80600  Biso   1.000  C
  H1       1.0000 0.10400  0.31550  0.27300  Biso   1.000  H
  H2       1.0000 0.89600  0.81550  0.22700  Biso   1.000  H
  H3       1.0000 0.89600  0.68450  0.72700  Biso   1.000  H
  H4       1.0000 0.10400  0.18450  0.77300  Biso   1.000  H
  H5       1.0000 0.15930  0.37010  0.33260  Biso   1.000  H
  H6       1.0000 0.84070  0.87010  0.16740  Biso   1.000  H
  H7       1.0000 0.84070  0.62990  0.66740  Biso   1.000  H
  H8       1.0000 0.15930  0.12990  0.83260  Biso   1.000  H
  C17      1.0000 0.06180  0.40630  0.22560  Biso   1.000  C
  C18      1.0000 0.93820  0.90630  0.27440  Biso   1.000  C
  C19      1.0000 0.93820  0.59370  0.77440  Biso   1.000  C
  C20      1.0000 0.06180  0.09370  0.72560  Biso   1.000  C
  H9       1.0000 0.00000  0.39370  0.19940  Biso   1.000  H
  H10      1.0000 0.00000  0.89370  0.30060  Biso   1.000  H
  H11      1.0000 0.00000  0.60630  0.80060  Biso   1.000  H
  H12      1.0000 0.00000  0.10630  0.69940  Biso   1.000  H
  H13      1.0000 0.05680  0.44820  0.25790  Biso   1.000  H
  H14      1.0000 0.94320  0.94820  0.24210  Biso   1.000  H
  H15      1.0000 0.94320  0.55180  0.74210  Biso   1.000  H
  H16      1.0000 0.05680  0.05180  0.75790  Biso   1.000  H
  C21      1.0000 0.12780  0.41070  0.13610  Biso   1.000  C
  C22      1.0000 0.87220  0.91070  0.36390  Biso   1.000  C
  C23      1.0000 0.87220  0.58930  0.86390  Biso   1.000  C
  C24      1.0000 0.12780  0.08930  0.63610  Biso   1.000  C
  C25      1.0000 0.00000  0.42430  0.65050  Biso   1.000  C
  C26      1.0000 0.00000  0.92430  0.84950  Biso   1.000  C
  C27      1.0000 0.00000  0.57570  0.34950  Biso   1.000  C
  C28      1.0000 0.00000  0.07570  0.15050  Biso   1.000  C
  H17      1.0000 0.01570  0.46760  0.62960  Biso   1.000  H
  H18      1.0000 0.98430  0.96760  0.87040  Biso   1.000  H
  H19      1.0000 0.98430  0.53240  0.37040  Biso   1.000  H
  H20      1.0000 0.01570  0.03240  0.12960  Biso   1.000  H
  H21      1.0000 0.94170  0.42610  0.68620  Biso   1.000  H
  H22      1.0000 0.05830  0.92610  0.81380  Biso   1.000  H
  H23      1.0000 0.05830  0.57390  0.31380  Biso   1.000  H
  H24      1.0000 0.94170  0.07390  0.18620  Biso   1.000  H
  C29      1.0000 0.07590  0.39890  0.72270  Biso   1.000  C
  C30      1.0000 0.92410  0.89890  0.77730  Biso   1.000  C
  C31      1.0000 0.92410  0.60110  0.27730  Biso   1.000  C
  C32      1.0000 0.07590  0.10110  0.22270  Biso   1.000  C
  H25      1.0000 0.13410  0.39710  0.68670  Biso   1.000  H
  H26      1.0000 0.86590  0.89710  0.81330  Biso   1.000  H
  H27      1.0000 0.86590  0.60290  0.31330  Biso   1.000  H
  H28      1.0000 0.13410  0.10290  0.18670  Biso   1.000  H
  H29      1.0000 0.06020  0.35540  0.74300  Biso   1.000  H
  H30      1.0000 0.93980  0.85540  0.75700  Biso   1.000  H
  H31      1.0000 0.93980  0.64460  0.25700  Biso   1.000  H
  H32      1.0000 0.06020  0.14460  0.24300  Biso   1.000  H
  C33      1.0000 0.09020  0.44040  0.81960  Biso   1.000  C
  C34      1.0000 0.90980  0.94040  0.68040  Biso   1.000  C
  C35      1.0000 0.90980  0.55960  0.18040  Biso   1.000  C
  C36      1.0000 0.09020  0.05960  0.31960  Biso   1.000  C
  C37      1.0000 0.85230  0.23710  0.48150  Biso   1.000  C
  C38      1.0000 0.14770  0.73710  0.01850  Biso   1.000  C
  C39      1.0000 0.14770  0.76290  0.51850  Biso   1.000  C
  C40      1.0000 0.85230  0.26290  0.98150  Biso   1.000  C
  H33      1.0000 0.83210  0.22480  0.41190  Biso   1.000  H
  H34      1.0000 0.16790  0.72480  0.08810  Biso   1.000  H
  H35      1.0000 0.16790  0.77520  0.58810  Biso   1.000  H
  H36      1.0000 0.83210  0.27520  0.91190  Biso   1.000  H
  H37      1.0000 0.79750  0.25030  0.51800  Biso   1.000  H
  H38      1.0000 0.20250  0.75030  0.98200  Biso   1.000  H
  H39      1.0000 0.20250  0.74970  0.48200  Biso   1.000  H
  H40      1.0000 0.79750  0.24970  0.01800  Biso   1.000  H
  C41      1.0000 0.89750  0.18010  0.53590  Biso   1.000  C
  C42      1.0000 0.10250  0.68010  0.96410  Biso   1.000  C
  C43      1.0000 0.10250  0.81990  0.46410  Biso   1.000  C
  C44      1.0000 0.89750  0.31990  0.03590  Biso   1.000  C
  H41      1.0000 0.91980  0.19350  0.60440  Biso   1.000  H
  H42      1.0000 0.08020  0.69350  0.89560  Biso   1.000  H
  H43      1.0000 0.08020  0.80650  0.39560  Biso   1.000  H
  H44      1.0000 0.91980  0.30650  0.10440  Biso   1.000  H
  H45      1.0000 0.95160  0.16700  0.49820  Biso   1.000  H
  H46      1.0000 0.04840  0.66700  0.00180  Biso   1.000  H
  H47      1.0000 0.04840  0.83300  0.50180  Biso   1.000  H
  H48      1.0000 0.95160  0.33300  0.99820  Biso   1.000  H
  C45      1.0000 0.83350  0.12270  0.54650  Biso   1.000  C
  C46      1.0000 0.16650  0.62270  0.95350  Biso   1.000  C
  C47      1.0000 0.16650  0.87730  0.45350  Biso   1.000  C
  C48      1.0000 0.83350  0.37730  0.04650  Biso   1.000  C
  C49      1.0000 0.24480  0.55600  0.18540  Biso   1.000  C
  C50      1.0000 0.75520  0.05600  0.31460  Biso   1.000  C
  C51      1.0000 0.75520  0.44400  0.81460  Biso   1.000  C
  C52      1.0000 0.24480  0.94400  0.68540  Biso   1.000  C
  H49      1.0000 0.18640  0.57460  0.17260  Biso   1.000  H
  H50      1.0000 0.81360  0.07460  0.32740  Biso   1.000  H
  H51      1.0000 0.81360  0.42540  0.82740  Biso   1.000  H
  H52      1.0000 0.18640  0.92540  0.67260  Biso   1.000  H
  C53      1.0000 0.29150  0.56740  0.28210  Biso   1.000  C
  C54      1.0000 0.70850  0.06740  0.21790  Biso   1.000  C
  C55      1.0000 0.70850  0.43260  0.71790  Biso   1.000  C
  C56      1.0000 0.29150  0.93260  0.78210  Biso   1.000  C
  H53      1.0000 0.26530  0.59390  0.33110  Biso   1.000  H
  H54      1.0000 0.73470  0.09390  0.16890  Biso   1.000  H
  H55      1.0000 0.73470  0.40610  0.66890  Biso   1.000  H
  H56      1.0000 0.26530  0.90610  0.83110  Biso   1.000  H
  C57      1.0000 0.37630  0.53840  0.30160  Biso   1.000  C
  C58      1.0000 0.62370  0.03840  0.19840  Biso   1.000  C
  C59      1.0000 0.62370  0.46160  0.69840  Biso   1.000  C
  C60      1.0000 0.37630  0.96160  0.80160  Biso   1.000  C
  H57      1.0000 0.40780  0.54510  0.36490  Biso   1.000  H
  H58      1.0000 0.59220  0.04510  0.13510  Biso   1.000  H
  H59      1.0000 0.59220  0.45490  0.63510  Biso   1.000  H
  H60      1.0000 0.40780  0.95490  0.86490  Biso   1.000  H
  C61      1.0000 0.41790  0.49740  0.22530  Biso   1.000  C
  C62      1.0000 0.58210  0.99740  0.27470  Biso   1.000  C
  C63      1.0000 0.58210  0.50260  0.77470  Biso   1.000  C
  C64      1.0000 0.41790  0.00260  0.72530  Biso   1.000  C
  C65      1.0000 0.50650  0.46550  0.23960  Biso   1.000  C
  C66      1.0000 0.49350  0.96550  0.26040  Biso   1.000  C
  C67      1.0000 0.49350  0.53450  0.76040  Biso   1.000  C
  C68      1.0000 0.50650  0.03450  0.73960  Biso   1.000  C
  H61      1.0000 0.54140  0.46950  0.30140  Biso   1.000  H
  H62      1.0000 0.45860  0.96950  0.19860  Biso   1.000  H
  H63      1.0000 0.45860  0.53050  0.69860  Biso   1.000  H
  H64      1.0000 0.54140  0.03050  0.80140  Biso   1.000  H
  C69      1.0000 0.53790  0.42990  0.16240  Biso   1.000  C
  C70      1.0000 0.46210  0.92990  0.33760  Biso   1.000  C
  C71      1.0000 0.46210  0.57010  0.83760  Biso   1.000  C
  C72      1.0000 0.53790  0.07010  0.66240  Biso   1.000  C
  H65      1.0000 0.59670  0.41120  0.17160  Biso   1.000  H
  H66      1.0000 0.40330  0.91120  0.32840  Biso   1.000  H
  H67      1.0000 0.40330  0.58880  0.82840  Biso   1.000  H
  H68      1.0000 0.59670  0.08880  0.67160  Biso   1.000  H
  C73      1.0000 0.48730  0.41850  0.06590  Biso   1.000  C
  C74      1.0000 0.51270  0.91850  0.43410  Biso   1.000  C
  C75      1.0000 0.51270  0.58150  0.93410  Biso   1.000  C
  C76      1.0000 0.48730  0.08150  0.56590  Biso   1.000  C
  C77      1.0000 0.51630  0.38210  0.98440  Biso   1.000  C
  C78      1.0000 0.48370  0.88210  0.51560  Biso   1.000  C
  C79      1.0000 0.48370  0.61790  0.01560  Biso   1.000  C
  C80      1.0000 0.51630  0.11790  0.48440  Biso   1.000  C
  H69      1.0000 0.57460  0.36220  0.98890  Biso   1.000  H
  H70      1.0000 0.42540  0.86220  0.51110  Biso   1.000  H
  H71      1.0000 0.42540  0.63780  0.01110  Biso   1.000  H
  H72      1.0000 0.57460  0.13780  0.48890  Biso   1.000  H
  C81      1.0000 0.46190  0.37500  0.89850  Biso   1.000  C
  C82      1.0000 0.53810  0.87500  0.60150  Biso   1.000  C
  C83      1.0000 0.53810  0.62500  0.10150  Biso   1.000  C
  C84      1.0000 0.46190  0.12500  0.39850  Biso   1.000  C
  H73      1.0000 0.48220  0.34960  0.84470  Biso   1.000  H
  H74      1.0000 0.51780  0.84960  0.65530  Biso   1.000  H
  H75      1.0000 0.51780  0.65040  0.15530  Biso   1.000  H
  H76      1.0000 0.48220  0.15040  0.34470  Biso   1.000  H
  C85      1.0000 0.37370  0.40610  0.88890  Biso   1.000  C
  C86      1.0000 0.62630  0.90610  0.61110  Biso   1.000  C
  C87      1.0000 0.62630  0.59390  0.11110  Biso   1.000  C
  C88      1.0000 0.37370  0.09390  0.38890  Biso   1.000  C
  H77      1.0000 0.33630  0.40100  0.82910  Biso   1.000  H
  H78      1.0000 0.66370  0.90100  0.67090  Biso   1.000  H
  H79      1.0000 0.66370  0.59900  0.17090  Biso   1.000  H
  H80      1.0000 0.33630  0.09900  0.32910  Biso   1.000  H
  C89      1.0000 0.40140  0.44940  0.05400  Biso   1.000  C
  C90      1.0000 0.59860  0.94940  0.44600  Biso   1.000  C
  C91      1.0000 0.59860  0.55060  0.94600  Biso   1.000  C
  C92      1.0000 0.40140  0.05060  0.55400  Biso   1.000  C
  C93      1.0000 0.36500  0.48980  0.13200  Biso   1.000  C
  C94      1.0000 0.63500  0.98980  0.36800  Biso   1.000  C
  C95      1.0000 0.63500  0.51020  0.86800  Biso   1.000  C
  C96      1.0000 0.36500  0.01020  0.63200  Biso   1.000  C
