data_image0
_cell_length_a       13.1259
_cell_length_b       13.1259
_cell_length_c       22.2808
_cell_angle_alpha    90
_cell_angle_beta     90
_cell_angle_gamma    90

_symmetry_space_group_name_H-M    "P 1"
_symmetry_int_tables_number       1

loop_
  _symmetry_equiv_pos_as_xyz
  'x, y, z'

loop_
  _atom_site_label
  _atom_site_occupancy
  _atom_site_fract_x
  _atom_site_fract_y
  _atom_site_fract_z
  _atom_site_thermal_displace_type
  _atom_site_B_iso_or_equiv
  _atom_site_type_symbol
  Cu1      1.0000 0.13268  0.71075  0.08536  Biso   1.000  Cu
  Cu2      1.0000 0.03925  0.38268  0.33536  Biso   1.000  Cu
  Cu3      1.0000 0.96075  0.11732  0.33536  Biso   1.000  Cu
  Cu4      1.0000 0.63268  0.21075  0.58536  Biso   1.000  Cu
  Cu5      1.0000 0.53925  0.88268  0.83536  Biso   1.000  Cu
  Cu6      1.0000 0.86732  0.78925  0.08536  Biso   1.000  Cu
  Cu7      1.0000 0.36732  0.28925  0.58536  Biso   1.000  Cu
  Cu8      1.0000 0.46075  0.61732  0.83536  Biso   1.000  Cu
  Cu9      1.0000 0.86732  0.28925  0.91464  Biso   1.000  Cu
  Cu10     1.0000 0.46075  0.11732  0.16464  Biso   1.000  Cu
  Cu11     1.0000 0.53925  0.38268  0.16464  Biso   1.000  Cu
  Cu12     1.0000 0.36732  0.78925  0.41464  Biso   1.000  Cu
  Cu13     1.0000 0.96075  0.61732  0.66464  Biso   1.000  Cu
  Cu14     1.0000 0.13268  0.21075  0.91464  Biso   1.000  Cu
  Cu15     1.0000 0.63268  0.71075  0.41464  Biso   1.000  Cu
  Cu16     1.0000 0.03925  0.88268  0.66464  Biso   1.000  Cu
  Cl1      1.0000 0.08542  0.85263  0.03803  Biso   1.000  Cl
  Cl2      1.0000 0.89737  0.33542  0.28803  Biso   1.000  Cl
  Cl3      1.0000 0.10263  0.16458  0.28803  Biso   1.000  Cl
  Cl4      1.0000 0.58542  0.35263  0.53803  Biso   1.000  Cl
  Cl5      1.0000 0.39737  0.83542  0.78803  Biso   1.000  Cl
  Cl6      1.0000 0.91458  0.64737  0.03803  Biso   1.000  Cl
  Cl7      1.0000 0.41458  0.14737  0.53803  Biso   1.000  Cl
  Cl8      1.0000 0.60263  0.66458  0.78803  Biso   1.000  Cl
  Cl9      1.0000 0.91458  0.14737  0.96197  Biso   1.000  Cl
  Cl10     1.0000 0.60263  0.16458  0.21197  Biso   1.000  Cl
  Cl11     1.0000 0.39737  0.33542  0.21197  Biso   1.000  Cl
  Cl12     1.0000 0.41458  0.64737  0.46197  Biso   1.000  Cl
  Cl13     1.0000 0.10263  0.66458  0.71197  Biso   1.000  Cl
  Cl14     1.0000 0.08542  0.35263  0.96197  Biso   1.000  Cl
  Cl15     1.0000 0.58542  0.85263  0.46197  Biso   1.000  Cl
  Cl16     1.0000 0.89737  0.83542  0.71197  Biso   1.000  Cl
  O1       1.0000 0.13156  0.65190  0.31945  Biso   1.000  O
  O2       1.0000 0.09810  0.38156  0.56945  Biso   1.000  O
  O3       1.0000 0.90190  0.11844  0.56945  Biso   1.000  O
  O4       1.0000 0.63156  0.15190  0.81945  Biso   1.000  O
  O5       1.0000 0.59810  0.88156  0.06945  Biso   1.000  O
  O6       1.0000 0.86844  0.84810  0.31945  Biso   1.000  O
  O7       1.0000 0.36844  0.34810  0.81945  Biso   1.000  O
  O8       1.0000 0.40190  0.61844  0.06945  Biso   1.000  O
  O9       1.0000 0.86844  0.34810  0.68055  Biso   1.000  O
  O10      1.0000 0.40190  0.11844  0.93055  Biso   1.000  O
  O11      1.0000 0.59810  0.38156  0.93055  Biso   1.000  O
  O12      1.0000 0.36844  0.84810  0.18055  Biso   1.000  O
  O13      1.0000 0.90190  0.61844  0.43055  Biso   1.000  O
  O14      1.0000 0.13156  0.15190  0.68055  Biso   1.000  O
  O15      1.0000 0.63156  0.65190  0.18055  Biso   1.000  O
  O16      1.0000 0.09810  0.88156  0.43055  Biso   1.000  O
  H1       1.0000 0.13000  0.59160  0.30680  Biso   1.000  H
  H2       1.0000 0.15840  0.38000  0.55680  Biso   1.000  H
  H3       1.0000 0.84160  0.12000  0.55680  Biso   1.000  H
  H4       1.0000 0.63000  0.09160  0.80680  Biso   1.000  H
  H5       1.0000 0.65840  0.88000  0.05680  Biso   1.000  H
  H6       1.0000 0.87000  0.90840  0.30680  Biso   1.000  H
  H7       1.0000 0.37000  0.40840  0.80680  Biso   1.000  H
  H8       1.0000 0.34160  0.62000  0.05680  Biso   1.000  H
  H9       1.0000 0.87000  0.40840  0.69320  Biso   1.000  H
  H10      1.0000 0.34160  0.12000  0.94320  Biso   1.000  H
  H11      1.0000 0.65840  0.38000  0.94320  Biso   1.000  H
  H12      1.0000 0.37000  0.90840  0.19320  Biso   1.000  H
  H13      1.0000 0.84160  0.62000  0.44320  Biso   1.000  H
  H14      1.0000 0.13000  0.09160  0.69320  Biso   1.000  H
  H15      1.0000 0.63000  0.59160  0.19320  Biso   1.000  H
  H16      1.0000 0.15840  0.88000  0.44320  Biso   1.000  H
  N1       1.0000 0.12057  0.75965  0.16917  Biso   1.000  N
  N2       1.0000 0.99035  0.37057  0.41917  Biso   1.000  N
  N3       1.0000 0.00965  0.12943  0.41917  Biso   1.000  N
  N4       1.0000 0.62057  0.25965  0.66917  Biso   1.000  N
  N5       1.0000 0.49035  0.87057  0.91917  Biso   1.000  N
  N6       1.0000 0.87943  0.74035  0.16917  Biso   1.000  N
  N7       1.0000 0.37943  0.24035  0.66917  Biso   1.000  N
  N8       1.0000 0.50965  0.62943  0.91917  Biso   1.000  N
  N9       1.0000 0.87943  0.24035  0.83083  Biso   1.000  N
  N10      1.0000 0.50965  0.12943  0.08083  Biso   1.000  N
  N11      1.0000 0.49035  0.37057  0.08083  Biso   1.000  N
  N12      1.0000 0.37943  0.74035  0.33083  Biso   1.000  N
  N13      1.0000 0.00965  0.62943  0.58083  Biso   1.000  N
  N14      1.0000 0.12057  0.25965  0.83083  Biso   1.000  N
  N15      1.0000 0.62057  0.75965  0.33083  Biso   1.000  N
  N16      1.0000 0.99035  0.87057  0.58083  Biso   1.000  N
  O17      1.0000 0.08790  0.48363  0.27701  Biso   1.000  O
  O18      1.0000 0.26637  0.33790  0.52701  Biso   1.000  O
  O19      1.0000 0.73363  0.16210  0.52701  Biso   1.000  O
  O20      1.0000 0.58790  0.98363  0.77701  Biso   1.000  O
  O21      1.0000 0.76637  0.83790  0.02701  Biso   1.000  O
  O22      1.0000 0.91210  0.01637  0.27701  Biso   1.000  O
  O23      1.0000 0.41210  0.51637  0.77701  Biso   1.000  O
  O24      1.0000 0.23363  0.66210  0.02701  Biso   1.000  O
  O25      1.0000 0.91210  0.51637  0.72299  Biso   1.000  O
  O26      1.0000 0.23363  0.16210  0.97299  Biso   1.000  O
  O27      1.0000 0.76637  0.33790  0.97299  Biso   1.000  O
  O28      1.0000 0.41210  0.01637  0.22299  Biso   1.000  O
  O29      1.0000 0.73363  0.66210  0.47299  Biso   1.000  O
  O30      1.0000 0.08790  0.98363  0.72299  Biso   1.000  O
  O31      1.0000 0.58790  0.48363  0.22299  Biso   1.000  O
  O32      1.0000 0.26637  0.83790  0.47299  Biso   1.000  O
  N17      1.0000 0.13256  0.57888  0.12680  Biso   1.000  N
  N18      1.0000 0.17112  0.38256  0.37680  Biso   1.000  N
  N19      1.0000 0.82888  0.11744  0.37680  Biso   1.000  N
  N20      1.0000 0.63256  0.07888  0.62680  Biso   1.000  N
  N21      1.0000 0.67112  0.88256  0.87680  Biso   1.000  N
  N22      1.0000 0.86744  0.92112  0.12680  Biso   1.000  N
  N23      1.0000 0.36744  0.42112  0.62680  Biso   1.000  N
  N24      1.0000 0.32888  0.61744  0.87680  Biso   1.000  N
  N25      1.0000 0.86744  0.42112  0.87320  Biso   1.000  N
  N26      1.0000 0.32888  0.11744  0.12320  Biso   1.000  N
  N27      1.0000 0.67112  0.38256  0.12320  Biso   1.000  N
  N28      1.0000 0.36744  0.92112  0.37320  Biso   1.000  N
  N29      1.0000 0.82888  0.61744  0.62320  Biso   1.000  N
  N30      1.0000 0.13256  0.07888  0.87320  Biso   1.000  N
  N31      1.0000 0.63256  0.57888  0.37320  Biso   1.000  N
  N32      1.0000 0.17112  0.88256  0.62320  Biso   1.000  N
  C1       1.0000 0.12050  0.68560  0.21230  Biso   1.000  C
  C2       1.0000 0.06440  0.37050  0.46230  Biso   1.000  C
  C3       1.0000 0.93560  0.12950  0.46230  Biso   1.000  C
  C4       1.0000 0.62050  0.18560  0.71230  Biso   1.000  C
  C5       1.0000 0.56440  0.87050  0.96230  Biso   1.000  C
  C6       1.0000 0.87950  0.81440  0.21230  Biso   1.000  C
  C7       1.0000 0.37950  0.31440  0.71230  Biso   1.000  C
  C8       1.0000 0.43560  0.62950  0.96230  Biso   1.000  C
  C9       1.0000 0.87950  0.31440  0.78770  Biso   1.000  C
  C10      1.0000 0.43560  0.12950  0.03770  Biso   1.000  C
  C11      1.0000 0.56440  0.37050  0.03770  Biso   1.000  C
  C12      1.0000 0.37950  0.81440  0.28770  Biso   1.000  C
  C13      1.0000 0.93560  0.62950  0.53770  Biso   1.000  C
  C14      1.0000 0.12050  0.18560  0.78770  Biso   1.000  C
  C15      1.0000 0.62050  0.68560  0.28770  Biso   1.000  C
  C16      1.0000 0.06440  0.87050  0.53770  Biso   1.000  C
  C17      1.0000 0.11940  0.58040  0.18741  Biso   1.000  C
  C18      1.0000 0.16960  0.36940  0.43741  Biso   1.000  C
  C19      1.0000 0.83040  0.13060  0.43741  Biso   1.000  C
  C20      1.0000 0.61940  0.08040  0.68741  Biso   1.000  C
  C21      1.0000 0.66960  0.86940  0.93741  Biso   1.000  C
  C22      1.0000 0.88060  0.91960  0.18741  Biso   1.000  C
  C23      1.0000 0.38060  0.41960  0.68741  Biso   1.000  C
  C24      1.0000 0.33040  0.63060  0.93741  Biso   1.000  C
  C25      1.0000 0.88060  0.41960  0.81259  Biso   1.000  C
  C26      1.0000 0.33040  0.13060  0.06259  Biso   1.000  C
  C27      1.0000 0.66960  0.36940  0.06259  Biso   1.000  C
  C28      1.0000 0.38060  0.91960  0.31259  Biso   1.000  C
  C29      1.0000 0.83040  0.63060  0.56259  Biso   1.000  C
  C30      1.0000 0.11940  0.08040  0.81259  Biso   1.000  C
  C31      1.0000 0.61940  0.58040  0.31259  Biso   1.000  C
  C32      1.0000 0.16960  0.86940  0.56259  Biso   1.000  C
  C33      1.0000 0.12510  0.71600  0.27324  Biso   1.000  C
  C34      1.0000 0.03400  0.37510  0.52324  Biso   1.000  C
  C35      1.0000 0.96600  0.12490  0.52324  Biso   1.000  C
  C36      1.0000 0.62510  0.21600  0.77324  Biso   1.000  C
  C37      1.0000 0.53400  0.87510  0.02324  Biso   1.000  C
  C38      1.0000 0.87490  0.78400  0.27324  Biso   1.000  C
  C39      1.0000 0.37490  0.28400  0.77324  Biso   1.000  C
  C40      1.0000 0.46600  0.62490  0.02324  Biso   1.000  C
  C41      1.0000 0.87490  0.28400  0.72676  Biso   1.000  C
  C42      1.0000 0.46600  0.12490  0.97676  Biso   1.000  C
  C43      1.0000 0.53400  0.37510  0.97676  Biso   1.000  C
  C44      1.0000 0.37490  0.78400  0.22676  Biso   1.000  C
  C45      1.0000 0.96600  0.62490  0.47676  Biso   1.000  C
  C46      1.0000 0.12510  0.21600  0.72676  Biso   1.000  C
  C47      1.0000 0.62510  0.71600  0.22676  Biso   1.000  C
  C48      1.0000 0.03400  0.87510  0.47676  Biso   1.000  C
  C49      1.0000 0.10590  0.48680  0.21855  Biso   1.000  C
  C50      1.0000 0.26320  0.35590  0.46855  Biso   1.000  C
  C51      1.0000 0.73680  0.14410  0.46855  Biso   1.000  C
  C52      1.0000 0.60590  0.98680  0.71855  Biso   1.000  C
  C53      1.0000 0.76320  0.85590  0.96855  Biso   1.000  C
  C54      1.0000 0.89410  0.01320  0.21855  Biso   1.000  C
  C55      1.0000 0.39410  0.51320  0.71855  Biso   1.000  C
  C56      1.0000 0.23680  0.64410  0.96855  Biso   1.000  C
  C57      1.0000 0.89410  0.51320  0.78145  Biso   1.000  C
  C58      1.0000 0.23680  0.14410  0.03145  Biso   1.000  C
  C59      1.0000 0.76320  0.35590  0.03145  Biso   1.000  C
  C60      1.0000 0.39410  0.01320  0.28145  Biso   1.000  C
  C61      1.0000 0.73680  0.64410  0.53145  Biso   1.000  C
  C62      1.0000 0.10590  0.98680  0.78145  Biso   1.000  C
  C63      1.0000 0.60590  0.48680  0.28145  Biso   1.000  C
  C64      1.0000 0.26320  0.85590  0.53145  Biso   1.000  C
  C65      1.0000 0.12670  0.81920  0.28677  Biso   1.000  C
  C66      1.0000 0.93080  0.37670  0.53677  Biso   1.000  C
  C67      1.0000 0.06920  0.12330  0.53677  Biso   1.000  C
  C68      1.0000 0.62670  0.31920  0.78677  Biso   1.000  C
  C69      1.0000 0.43080  0.87670  0.03677  Biso   1.000  C
  C70      1.0000 0.87330  0.68080  0.28677  Biso   1.000  C
  C71      1.0000 0.37330  0.18080  0.78677  Biso   1.000  C
  C72      1.0000 0.56920  0.62330  0.03677  Biso   1.000  C
  C73      1.0000 0.87330  0.18080  0.71323  Biso   1.000  C
  C74      1.0000 0.56920  0.12330  0.96323  Biso   1.000  C
  C75      1.0000 0.43080  0.37670  0.96323  Biso   1.000  C
  C76      1.0000 0.37330  0.68080  0.21323  Biso   1.000  C
  C77      1.0000 0.06920  0.62330  0.46323  Biso   1.000  C
  C78      1.0000 0.12670  0.31920  0.71323  Biso   1.000  C
  C79      1.0000 0.62670  0.81920  0.21323  Biso   1.000  C
  C80      1.0000 0.93080  0.87670  0.46323  Biso   1.000  C
  H17      1.0000 0.12800  0.83500  0.32180  Biso   1.000  H
  H18      1.0000 0.91500  0.37800  0.57180  Biso   1.000  H
  H19      1.0000 0.08500  0.12200  0.57180  Biso   1.000  H
  H20      1.0000 0.62800  0.33500  0.82180  Biso   1.000  H
  H21      1.0000 0.41500  0.87800  0.07180  Biso   1.000  H
  H22      1.0000 0.87200  0.66500  0.32180  Biso   1.000  H
  H23      1.0000 0.37200  0.16500  0.82180  Biso   1.000  H
  H24      1.0000 0.58500  0.62200  0.07180  Biso   1.000  H
  H25      1.0000 0.87200  0.16500  0.67820  Biso   1.000  H
  H26      1.0000 0.58500  0.12200  0.92820  Biso   1.000  H
  H27      1.0000 0.41500  0.37800  0.92820  Biso   1.000  H
  H28      1.0000 0.37200  0.66500  0.17820  Biso   1.000  H
  H29      1.0000 0.08500  0.62200  0.42820  Biso   1.000  H
  H30      1.0000 0.12800  0.33500  0.67820  Biso   1.000  H
  H31      1.0000 0.62800  0.83500  0.17820  Biso   1.000  H
  H32      1.0000 0.91500  0.87800  0.42820  Biso   1.000  H
  C81      1.0000 0.11210  0.39640  0.18526  Biso   1.000  C
  C82      1.0000 0.35360  0.36210  0.43526  Biso   1.000  C
  C83      1.0000 0.64640  0.13790  0.43526  Biso   1.000  C
  C84      1.0000 0.61210  0.89640  0.68526  Biso   1.000  C
  C85      1.0000 0.85360  0.86210  0.93526  Biso   1.000  C
  C86      1.0000 0.88790  0.10360  0.18526  Biso   1.000  C
  C87      1.0000 0.38790  0.60360  0.68526  Biso   1.000  C
  C88      1.0000 0.14640  0.63790  0.93526  Biso   1.000  C
  C89      1.0000 0.88790  0.60360  0.81474  Biso   1.000  C
  C90      1.0000 0.14640  0.13790  0.06474  Biso   1.000  C
  C91      1.0000 0.85360  0.36210  0.06474  Biso   1.000  C
  C92      1.0000 0.38790  0.10360  0.31474  Biso   1.000  C
  C93      1.0000 0.64640  0.63790  0.56474  Biso   1.000  C
  C94      1.0000 0.11210  0.89640  0.81474  Biso   1.000  C
  C95      1.0000 0.61210  0.39640  0.31474  Biso   1.000  C
  C96      1.0000 0.35360  0.86210  0.56474  Biso   1.000  C
  H33      1.0000 0.10400  0.34300  0.20450  Biso   1.000  H
  H34      1.0000 0.40700  0.35400  0.45450  Biso   1.000  H
  H35      1.0000 0.59300  0.14600  0.45450  Biso   1.000  H
  H36      1.0000 0.60400  0.84300  0.70450  Biso   1.000  H
  H37      1.0000 0.90700  0.85400  0.95450  Biso   1.000  H
  H38      1.0000 0.89600  0.15700  0.20450  Biso   1.000  H
  H39      1.0000 0.39600  0.65700  0.70450  Biso   1.000  H
  H40      1.0000 0.09300  0.64600  0.95450  Biso   1.000  H
  H41      1.0000 0.89600  0.65700  0.79550  Biso   1.000  H
  H42      1.0000 0.09300  0.14600  0.04550  Biso   1.000  H
  H43      1.0000 0.90700  0.35400  0.04550  Biso   1.000  H
  H44      1.0000 0.39600  0.15700  0.29550  Biso   1.000  H
  H45      1.0000 0.59300  0.64600  0.54550  Biso   1.000  H
  H46      1.0000 0.10400  0.84300  0.79550  Biso   1.000  H
  H47      1.0000 0.60400  0.34300  0.29550  Biso   1.000  H
  H48      1.0000 0.40700  0.85400  0.54550  Biso   1.000  H
  C97      1.0000 0.12710  0.89100  0.24209  Biso   1.000  C
  C98      1.0000 0.85900  0.37710  0.49209  Biso   1.000  C
  C99      1.0000 0.14100  0.12290  0.49209  Biso   1.000  C
  C100     1.0000 0.62710  0.39100  0.74209  Biso   1.000  C
  C101     1.0000 0.35900  0.87710  0.99209  Biso   1.000  C
  C102     1.0000 0.87290  0.60900  0.24209  Biso   1.000  C
  C103     1.0000 0.37290  0.10900  0.74209  Biso   1.000  C
  C104     1.0000 0.64100  0.62290  0.99209  Biso   1.000  C
  C105     1.0000 0.87290  0.10900  0.75791  Biso   1.000  C
  C106     1.0000 0.64100  0.12290  0.00791  Biso   1.000  C
  C107     1.0000 0.35900  0.37710  0.00791  Biso   1.000  C
  C108     1.0000 0.37290  0.60900  0.25791  Biso   1.000  C
  C109     1.0000 0.14100  0.62290  0.50791  Biso   1.000  C
  C110     1.0000 0.12710  0.39100  0.75791  Biso   1.000  C
  C111     1.0000 0.62710  0.89100  0.25791  Biso   1.000  C
  C112     1.0000 0.85900  0.87710  0.50791  Biso   1.000  C
  H49      1.0000 0.13000  0.95900  0.25030  Biso   1.000  H
  H50      1.0000 0.79100  0.38000  0.50030  Biso   1.000  H
  H51      1.0000 0.20900  0.12000  0.50030  Biso   1.000  H
  H52      1.0000 0.63000  0.45900  0.75030  Biso   1.000  H
  H53      1.0000 0.29100  0.88000  0.00030  Biso   1.000  H
  H54      1.0000 0.87000  0.54100  0.25030  Biso   1.000  H
  H55      1.0000 0.37000  0.04100  0.75030  Biso   1.000  H
  H56      1.0000 0.70900  0.62000  0.00030  Biso   1.000  H
  H57      1.0000 0.87000  0.04100  0.74970  Biso   1.000  H
  H58      1.0000 0.70900  0.12000  0.99970  Biso   1.000  H
  H59      1.0000 0.29100  0.38000  0.99970  Biso   1.000  H
  H60      1.0000 0.37000  0.54100  0.24970  Biso   1.000  H
  H61      1.0000 0.20900  0.62000  0.49970  Biso   1.000  H
  H62      1.0000 0.13000  0.45900  0.74970  Biso   1.000  H
  H63      1.0000 0.63000  0.95900  0.24970  Biso   1.000  H
  H64      1.0000 0.79100  0.88000  0.49970  Biso   1.000  H
  C113     1.0000 0.12580  0.39860  0.12424  Biso   1.000  C
  C114     1.0000 0.35140  0.37580  0.37424  Biso   1.000  C
  C115     1.0000 0.64860  0.12420  0.37424  Biso   1.000  C
  C116     1.0000 0.62580  0.89860  0.62424  Biso   1.000  C
  C117     1.0000 0.85140  0.87580  0.87424  Biso   1.000  C
  C118     1.0000 0.87420  0.10140  0.12424  Biso   1.000  C
  C119     1.0000 0.37420  0.60140  0.62424  Biso   1.000  C
  C120     1.0000 0.14860  0.62420  0.87424  Biso   1.000  C
  C121     1.0000 0.87420  0.60140  0.87576  Biso   1.000  C
  C122     1.0000 0.14860  0.12420  0.12576  Biso   1.000  C
  C123     1.0000 0.85140  0.37580  0.12576  Biso   1.000  C
  C124     1.0000 0.37420  0.10140  0.37576  Biso   1.000  C
  C125     1.0000 0.64860  0.62420  0.62576  Biso   1.000  C
  C126     1.0000 0.12580  0.89860  0.87576  Biso   1.000  C
  C127     1.0000 0.62580  0.39860  0.37576  Biso   1.000  C
  C128     1.0000 0.35140  0.87580  0.62576  Biso   1.000  C
  H65      1.0000 0.13200  0.34000  0.10380  Biso   1.000  H
  H66      1.0000 0.41000  0.38200  0.35380  Biso   1.000  H
  H67      1.0000 0.59000  0.11800  0.35380  Biso   1.000  H
  H68      1.0000 0.63200  0.84000  0.60380  Biso   1.000  H
  H69      1.0000 0.91000  0.88200  0.85380  Biso   1.000  H
  H70      1.0000 0.86800  0.16000  0.10380  Biso   1.000  H
  H71      1.0000 0.36800  0.66000  0.60380  Biso   1.000  H
  H72      1.0000 0.09000  0.61800  0.85380  Biso   1.000  H
  H73      1.0000 0.86800  0.66000  0.89620  Biso   1.000  H
  H74      1.0000 0.09000  0.11800  0.14620  Biso   1.000  H
  H75      1.0000 0.91000  0.38200  0.14620  Biso   1.000  H
  H76      1.0000 0.36800  0.16000  0.39620  Biso   1.000  H
  H77      1.0000 0.59000  0.61800  0.64620  Biso   1.000  H
  H78      1.0000 0.13200  0.84000  0.89620  Biso   1.000  H
  H79      1.0000 0.63200  0.34000  0.39620  Biso   1.000  H
  H80      1.0000 0.41000  0.88200  0.64620  Biso   1.000  H
  C129     1.0000 0.12440  0.85840  0.18302  Biso   1.000  C
  C130     1.0000 0.89160  0.37440  0.43302  Biso   1.000  C
  C131     1.0000 0.10840  0.12560  0.43302  Biso   1.000  C
  C132     1.0000 0.62440  0.35840  0.68302  Biso   1.000  C
  C133     1.0000 0.39160  0.87440  0.93302  Biso   1.000  C
  C134     1.0000 0.87560  0.64160  0.18302  Biso   1.000  C
  C135     1.0000 0.37560  0.14160  0.68302  Biso   1.000  C
  C136     1.0000 0.60840  0.62560  0.93302  Biso   1.000  C
  C137     1.0000 0.87560  0.14160  0.81698  Biso   1.000  C
  C138     1.0000 0.60840  0.12560  0.06698  Biso   1.000  C
  C139     1.0000 0.39160  0.37440  0.06698  Biso   1.000  C
  C140     1.0000 0.37560  0.64160  0.31698  Biso   1.000  C
  C141     1.0000 0.10840  0.62560  0.56698  Biso   1.000  C
  C142     1.0000 0.12440  0.35840  0.81698  Biso   1.000  C
  C143     1.0000 0.62440  0.85840  0.31698  Biso   1.000  C
  C144     1.0000 0.89160  0.87440  0.56698  Biso   1.000  C
  H81      1.0000 0.12100  0.90600  0.14990  Biso   1.000  H
  H82      1.0000 0.84400  0.37100  0.39990  Biso   1.000  H
  H83      1.0000 0.15600  0.12900  0.39990  Biso   1.000  H
  H84      1.0000 0.62100  0.40600  0.64990  Biso   1.000  H
  H85      1.0000 0.34400  0.87100  0.89990  Biso   1.000  H
  H86      1.0000 0.87900  0.59400  0.14990  Biso   1.000  H
  H87      1.0000 0.37900  0.09400  0.64990  Biso   1.000  H
  H88      1.0000 0.65600  0.62900  0.89990  Biso   1.000  H
  H89      1.0000 0.87900  0.09400  0.85010  Biso   1.000  H
  H90      1.0000 0.65600  0.12900  0.10010  Biso   1.000  H
  H91      1.0000 0.34400  0.37100  0.10010  Biso   1.000  H
  H92      1.0000 0.37900  0.59400  0.35010  Biso   1.000  H
  H93      1.0000 0.15600  0.62900  0.60010  Biso   1.000  H
  H94      1.0000 0.12100  0.40600  0.85010  Biso   1.000  H
  H95      1.0000 0.62100  0.90600  0.35010  Biso   1.000  H
  H96      1.0000 0.84400  0.87100  0.60010  Biso   1.000  H
  C145     1.0000 0.13470  0.49140  0.09593  Biso   1.000  C
  C146     1.0000 0.25860  0.38470  0.34593  Biso   1.000  C
  C147     1.0000 0.74140  0.11530  0.34593  Biso   1.000  C
  C148     1.0000 0.63470  0.99140  0.59593  Biso   1.000  C
  C149     1.0000 0.75860  0.88470  0.84593  Biso   1.000  C
  C150     1.0000 0.86530  0.00860  0.09593  Biso   1.000  C
  C151     1.0000 0.36530  0.50860  0.59593  Biso   1.000  C
  C152     1.0000 0.24140  0.61530  0.84593  Biso   1.000  C
  C153     1.0000 0.86530  0.50860  0.90407  Biso   1.000  C
  C154     1.0000 0.24140  0.11530  0.15407  Biso   1.000  C
  C155     1.0000 0.75860  0.38470  0.15407  Biso   1.000  C
  C156     1.0000 0.36530  0.00860  0.40407  Biso   1.000  C
  C157     1.0000 0.74140  0.61530  0.65407  Biso   1.000  C
  C158     1.0000 0.13470  0.99140  0.90407  Biso   1.000  C
  C159     1.0000 0.63470  0.49140  0.40407  Biso   1.000  C
  C160     1.0000 0.25860  0.88470  0.65407  Biso   1.000  C
  H97      1.0000 0.14700  0.49700  0.05440  Biso   1.000  H
  H98      1.0000 0.25300  0.39700  0.30440  Biso   1.000  H
  H99      1.0000 0.74700  0.10300  0.30440  Biso   1.000  H
  H100     1.0000 0.64700  0.99700  0.55440  Biso   1.000  H
  H101     1.0000 0.75300  0.89700  0.80440  Biso   1.000  H
  H102     1.0000 0.85300  0.00300  0.05440  Biso   1.000  H
  H103     1.0000 0.35300  0.50300  0.55440  Biso   1.000  H
  H104     1.0000 0.24700  0.60300  0.80440  Biso   1.000  H
  H105     1.0000 0.85300  0.50300  0.94560  Biso   1.000  H
  H106     1.0000 0.24700  0.10300  0.19560  Biso   1.000  H
  H107     1.0000 0.75300  0.39700  0.19560  Biso   1.000  H
  H108     1.0000 0.35300  0.00300  0.44560  Biso   1.000  H
  H109     1.0000 0.74700  0.60300  0.69560  Biso   1.000  H
  H110     1.0000 0.14700  0.99700  0.94560  Biso   1.000  H
  H111     1.0000 0.64700  0.49700  0.44560  Biso   1.000  H
  H112     1.0000 0.25300  0.89700  0.69560  Biso   1.000  H
