data_image0
_cell_length_a       13.2775
_cell_length_b       13.2775
_cell_length_c       22.4184
_cell_angle_alpha    90
_cell_angle_beta     90
_cell_angle_gamma    90

_symmetry_space_group_name_H-M    "P 1"
_symmetry_int_tables_number       1

loop_
  _symmetry_equiv_pos_as_xyz
  'x, y, z'

loop_
  _atom_site_label
  _atom_site_occupancy
  _atom_site_fract_x
  _atom_site_fract_y
  _atom_site_fract_z
  _atom_site_thermal_displace_type
  _atom_site_B_iso_or_equiv
  _atom_site_type_symbol
  Br1      1.0000 0.08623  0.64135  0.03853  Biso   1.000  Br
  Br2      1.0000 0.10865  0.33623  0.28853  Biso   1.000  Br
  Br3      1.0000 0.89135  0.16377  0.28853  Biso   1.000  Br
  Br4      1.0000 0.58623  0.14135  0.53853  Biso   1.000  Br
  Br5      1.0000 0.60865  0.83623  0.78853  Biso   1.000  Br
  Br6      1.0000 0.91377  0.85865  0.03853  Biso   1.000  Br
  Br7      1.0000 0.41377  0.35865  0.53853  Biso   1.000  Br
  Br8      1.0000 0.39135  0.66377  0.78853  Biso   1.000  Br
  Br9      1.0000 0.91377  0.35865  0.96147  Biso   1.000  Br
  Br10     1.0000 0.39135  0.16377  0.21147  Biso   1.000  Br
  Br11     1.0000 0.60865  0.33623  0.21147  Biso   1.000  Br
  Br12     1.0000 0.41377  0.85865  0.46147  Biso   1.000  Br
  Br13     1.0000 0.89135  0.66377  0.71147  Biso   1.000  Br
  Br14     1.0000 0.08623  0.14135  0.96147  Biso   1.000  Br
  Br15     1.0000 0.58623  0.64135  0.46147  Biso   1.000  Br
  Br16     1.0000 0.10865  0.83623  0.71147  Biso   1.000  Br
  Cu1      1.0000 0.13671  0.79076  0.08857  Biso   1.000  Cu
  Cu2      1.0000 0.95924  0.38671  0.33857  Biso   1.000  Cu
  Cu3      1.0000 0.04076  0.11329  0.33857  Biso   1.000  Cu
  Cu4      1.0000 0.63671  0.29076  0.58857  Biso   1.000  Cu
  Cu5      1.0000 0.45924  0.88671  0.83857  Biso   1.000  Cu
  Cu6      1.0000 0.86329  0.70924  0.08857  Biso   1.000  Cu
  Cu7      1.0000 0.36329  0.20924  0.58857  Biso   1.000  Cu
  Cu8      1.0000 0.54076  0.61329  0.83857  Biso   1.000  Cu
  Cu9      1.0000 0.86329  0.20924  0.91143  Biso   1.000  Cu
  Cu10     1.0000 0.54076  0.11329  0.16143  Biso   1.000  Cu
  Cu11     1.0000 0.45924  0.38671  0.16143  Biso   1.000  Cu
  Cu12     1.0000 0.36329  0.70924  0.41143  Biso   1.000  Cu
  Cu13     1.0000 0.04076  0.61329  0.66143  Biso   1.000  Cu
  Cu14     1.0000 0.13671  0.29076  0.91143  Biso   1.000  Cu
  Cu15     1.0000 0.63671  0.79076  0.41143  Biso   1.000  Cu
  Cu16     1.0000 0.95924  0.88671  0.66143  Biso   1.000  Cu
  O1       1.0000 0.13440  0.85070  0.32090  Biso   1.000  O
  O2       1.0000 0.89930  0.38440  0.57090  Biso   1.000  O
  O3       1.0000 0.10070  0.11560  0.57090  Biso   1.000  O
  O4       1.0000 0.63440  0.35070  0.82090  Biso   1.000  O
  O5       1.0000 0.39930  0.88440  0.07090  Biso   1.000  O
  O6       1.0000 0.86560  0.64930  0.32090  Biso   1.000  O
  O7       1.0000 0.36560  0.14930  0.82090  Biso   1.000  O
  O8       1.0000 0.60070  0.61560  0.07090  Biso   1.000  O
  O9       1.0000 0.86560  0.14930  0.67910  Biso   1.000  O
  O10      1.0000 0.60070  0.11560  0.92910  Biso   1.000  O
  O11      1.0000 0.39930  0.38440  0.92910  Biso   1.000  O
  O12      1.0000 0.36560  0.64930  0.17910  Biso   1.000  O
  O13      1.0000 0.10070  0.61560  0.42910  Biso   1.000  O
  O14      1.0000 0.13440  0.35070  0.67910  Biso   1.000  O
  O15      1.0000 0.63440  0.85070  0.17910  Biso   1.000  O
  O16      1.0000 0.89930  0.88440  0.42910  Biso   1.000  O
  H1       1.0000 0.11980  0.90920  0.30940  Biso   1.000  H
  H2       1.0000 0.84080  0.36980  0.55940  Biso   1.000  H
  H3       1.0000 0.15920  0.13020  0.55940  Biso   1.000  H
  H4       1.0000 0.61980  0.40920  0.80940  Biso   1.000  H
  H5       1.0000 0.34080  0.86980  0.05940  Biso   1.000  H
  H6       1.0000 0.88020  0.59080  0.30940  Biso   1.000  H
  H7       1.0000 0.38020  0.09080  0.80940  Biso   1.000  H
  H8       1.0000 0.65920  0.63020  0.05940  Biso   1.000  H
  H9       1.0000 0.88020  0.09080  0.69060  Biso   1.000  H
  H10      1.0000 0.65920  0.13020  0.94060  Biso   1.000  H
  H11      1.0000 0.34080  0.36980  0.94060  Biso   1.000  H
  H12      1.0000 0.38020  0.59080  0.19060  Biso   1.000  H
  H13      1.0000 0.15920  0.63020  0.44060  Biso   1.000  H
  H14      1.0000 0.11980  0.40920  0.69060  Biso   1.000  H
  H15      1.0000 0.61980  0.90920  0.19060  Biso   1.000  H
  H16      1.0000 0.84080  0.86980  0.44060  Biso   1.000  H
  N1       1.0000 0.12120  0.74300  0.17200  Biso   1.000  N
  N2       1.0000 0.00700  0.37120  0.42200  Biso   1.000  N
  N3       1.0000 0.99300  0.12880  0.42200  Biso   1.000  N
  N4       1.0000 0.62120  0.24300  0.67200  Biso   1.000  N
  N5       1.0000 0.50700  0.87120  0.92200  Biso   1.000  N
  N6       1.0000 0.87880  0.75700  0.17200  Biso   1.000  N
  N7       1.0000 0.37880  0.25700  0.67200  Biso   1.000  N
  N8       1.0000 0.49300  0.62880  0.92200  Biso   1.000  N
  N9       1.0000 0.87880  0.25700  0.82800  Biso   1.000  N
  N10      1.0000 0.49300  0.12880  0.07800  Biso   1.000  N
  N11      1.0000 0.50700  0.37120  0.07800  Biso   1.000  N
  N12      1.0000 0.37880  0.75700  0.32800  Biso   1.000  N
  N13      1.0000 0.99300  0.62880  0.57800  Biso   1.000  N
  N14      1.0000 0.12120  0.24300  0.82800  Biso   1.000  N
  N15      1.0000 0.62120  0.74300  0.32800  Biso   1.000  N
  N16      1.0000 0.00700  0.87120  0.57800  Biso   1.000  N
  O17      1.0000 0.08850  0.01450  0.27900  Biso   1.000  O
  O18      1.0000 0.73550  0.33850  0.52900  Biso   1.000  O
  O19      1.0000 0.26450  0.16150  0.52900  Biso   1.000  O
  O20      1.0000 0.58850  0.51450  0.77900  Biso   1.000  O
  O21      1.0000 0.23550  0.83850  0.02900  Biso   1.000  O
  O22      1.0000 0.91150  0.48550  0.27900  Biso   1.000  O
  O23      1.0000 0.41150  0.98550  0.77900  Biso   1.000  O
  O24      1.0000 0.76450  0.66150  0.02900  Biso   1.000  O
  O25      1.0000 0.91150  0.98550  0.72100  Biso   1.000  O
  O26      1.0000 0.76450  0.16150  0.97100  Biso   1.000  O
  O27      1.0000 0.23550  0.33850  0.97100  Biso   1.000  O
  O28      1.0000 0.41150  0.48550  0.22100  Biso   1.000  O
  O29      1.0000 0.26450  0.66150  0.47100  Biso   1.000  O
  O30      1.0000 0.08850  0.51450  0.72100  Biso   1.000  O
  O31      1.0000 0.58850  0.01450  0.22100  Biso   1.000  O
  O32      1.0000 0.73550  0.83850  0.47100  Biso   1.000  O
  N17      1.0000 0.13710  0.92210  0.12960  Biso   1.000  N
  N18      1.0000 0.82790  0.38710  0.37960  Biso   1.000  N
  N19      1.0000 0.17210  0.11290  0.37960  Biso   1.000  N
  N20      1.0000 0.63710  0.42210  0.62960  Biso   1.000  N
  N21      1.0000 0.32790  0.88710  0.87960  Biso   1.000  N
  N22      1.0000 0.86290  0.57790  0.12960  Biso   1.000  N
  N23      1.0000 0.36290  0.07790  0.62960  Biso   1.000  N
  N24      1.0000 0.67210  0.61290  0.87960  Biso   1.000  N
  N25      1.0000 0.86290  0.07790  0.87040  Biso   1.000  N
  N26      1.0000 0.67210  0.11290  0.12040  Biso   1.000  N
  N27      1.0000 0.32790  0.38710  0.12040  Biso   1.000  N
  N28      1.0000 0.36290  0.57790  0.37040  Biso   1.000  N
  N29      1.0000 0.17210  0.61290  0.62040  Biso   1.000  N
  N30      1.0000 0.13710  0.42210  0.87040  Biso   1.000  N
  N31      1.0000 0.63710  0.92210  0.37040  Biso   1.000  N
  N32      1.0000 0.82790  0.88710  0.62040  Biso   1.000  N
  C1       1.0000 0.12200  0.81660  0.21460  Biso   1.000  C
  C2       1.0000 0.93340  0.37200  0.46460  Biso   1.000  C
  C3       1.0000 0.06660  0.12800  0.46460  Biso   1.000  C
  C4       1.0000 0.62200  0.31660  0.71460  Biso   1.000  C
  C5       1.0000 0.43340  0.87200  0.96460  Biso   1.000  C
  C6       1.0000 0.87800  0.68340  0.21460  Biso   1.000  C
  C7       1.0000 0.37800  0.18340  0.71460  Biso   1.000  C
  C8       1.0000 0.56660  0.62800  0.96460  Biso   1.000  C
  C9       1.0000 0.87800  0.18340  0.78540  Biso   1.000  C
  C10      1.0000 0.56660  0.12800  0.03540  Biso   1.000  C
  C11      1.0000 0.43340  0.37200  0.03540  Biso   1.000  C
  C12      1.0000 0.37800  0.68340  0.28540  Biso   1.000  C
  C13      1.0000 0.06660  0.62800  0.53540  Biso   1.000  C
  C14      1.0000 0.12200  0.31660  0.78540  Biso   1.000  C
  C15      1.0000 0.62200  0.81660  0.28540  Biso   1.000  C
  C16      1.0000 0.93340  0.87200  0.53540  Biso   1.000  C
  C17      1.0000 0.12120  0.92000  0.19030  Biso   1.000  C
  C18      1.0000 0.83000  0.37120  0.44030  Biso   1.000  C
  C19      1.0000 0.17000  0.12880  0.44030  Biso   1.000  C
  C20      1.0000 0.62120  0.42000  0.69030  Biso   1.000  C
  C21      1.0000 0.33000  0.87120  0.94030  Biso   1.000  C
  C22      1.0000 0.87880  0.58000  0.19030  Biso   1.000  C
  C23      1.0000 0.37880  0.08000  0.69030  Biso   1.000  C
  C24      1.0000 0.67000  0.62880  0.94030  Biso   1.000  C
  C25      1.0000 0.87880  0.08000  0.80970  Biso   1.000  C
  C26      1.0000 0.67000  0.12880  0.05970  Biso   1.000  C
  C27      1.0000 0.33000  0.37120  0.05970  Biso   1.000  C
  C28      1.0000 0.37880  0.58000  0.30970  Biso   1.000  C
  C29      1.0000 0.17000  0.62880  0.55970  Biso   1.000  C
  C30      1.0000 0.12120  0.42000  0.80970  Biso   1.000  C
  C31      1.0000 0.62120  0.92000  0.30970  Biso   1.000  C
  C32      1.0000 0.83000  0.87120  0.55970  Biso   1.000  C
  C33      1.0000 0.12740  0.78720  0.27510  Biso   1.000  C
  C34      1.0000 0.96280  0.37740  0.52510  Biso   1.000  C
  C35      1.0000 0.03720  0.12260  0.52510  Biso   1.000  C
  C36      1.0000 0.62740  0.28720  0.77510  Biso   1.000  C
  C37      1.0000 0.46280  0.87740  0.02510  Biso   1.000  C
  C38      1.0000 0.87260  0.71280  0.27510  Biso   1.000  C
  C39      1.0000 0.37260  0.21280  0.77510  Biso   1.000  C
  C40      1.0000 0.53720  0.62260  0.02510  Biso   1.000  C
  C41      1.0000 0.87260  0.21280  0.72490  Biso   1.000  C
  C42      1.0000 0.53720  0.12260  0.97490  Biso   1.000  C
  C43      1.0000 0.46280  0.37740  0.97490  Biso   1.000  C
  C44      1.0000 0.37260  0.71280  0.22490  Biso   1.000  C
  C45      1.0000 0.03720  0.62260  0.47490  Biso   1.000  C
  C46      1.0000 0.12740  0.28720  0.72490  Biso   1.000  C
  C47      1.0000 0.62740  0.78720  0.22490  Biso   1.000  C
  C48      1.0000 0.96280  0.87740  0.47490  Biso   1.000  C
  C49      1.0000 0.10640  0.01210  0.22100  Biso   1.000  C
  C50      1.0000 0.73790  0.35640  0.47100  Biso   1.000  C
  C51      1.0000 0.26210  0.14360  0.47100  Biso   1.000  C
  C52      1.0000 0.60640  0.51210  0.72100  Biso   1.000  C
  C53      1.0000 0.23790  0.85640  0.97100  Biso   1.000  C
  C54      1.0000 0.89360  0.48790  0.22100  Biso   1.000  C
  C55      1.0000 0.39360  0.98790  0.72100  Biso   1.000  C
  C56      1.0000 0.76210  0.64360  0.97100  Biso   1.000  C
  C57      1.0000 0.89360  0.98790  0.77900  Biso   1.000  C
  C58      1.0000 0.76210  0.14360  0.02900  Biso   1.000  C
  C59      1.0000 0.23790  0.35640  0.02900  Biso   1.000  C
  C60      1.0000 0.39360  0.48790  0.27900  Biso   1.000  C
  C61      1.0000 0.26210  0.64360  0.52900  Biso   1.000  C
  C62      1.0000 0.10640  0.51210  0.77900  Biso   1.000  C
  C63      1.0000 0.60640  0.01210  0.27900  Biso   1.000  C
  C64      1.0000 0.73790  0.85640  0.52900  Biso   1.000  C
  C65      1.0000 0.12670  0.68490  0.28960  Biso   1.000  C
  C66      1.0000 0.06510  0.37670  0.53960  Biso   1.000  C
  C67      1.0000 0.93490  0.12330  0.53960  Biso   1.000  C
  C68      1.0000 0.62670  0.18490  0.78960  Biso   1.000  C
  C69      1.0000 0.56510  0.87670  0.03960  Biso   1.000  C
  C70      1.0000 0.87330  0.81510  0.28960  Biso   1.000  C
  C71      1.0000 0.37330  0.31510  0.78960  Biso   1.000  C
  C72      1.0000 0.43490  0.62330  0.03960  Biso   1.000  C
  C73      1.0000 0.87330  0.31510  0.71040  Biso   1.000  C
  C74      1.0000 0.43490  0.12330  0.96040  Biso   1.000  C
  C75      1.0000 0.56510  0.37670  0.96040  Biso   1.000  C
  C76      1.0000 0.37330  0.81510  0.21040  Biso   1.000  C
  C77      1.0000 0.93490  0.62330  0.46040  Biso   1.000  C
  C78      1.0000 0.12670  0.18490  0.71040  Biso   1.000  C
  C79      1.0000 0.62670  0.68490  0.21040  Biso   1.000  C
  C80      1.0000 0.06510  0.87670  0.46040  Biso   1.000  C
  H17      1.0000 0.12630  0.66480  0.33020  Biso   1.000  H
  H18      1.0000 0.08520  0.37630  0.58020  Biso   1.000  H
  H19      1.0000 0.91480  0.12370  0.58020  Biso   1.000  H
  H20      1.0000 0.62630  0.16480  0.83020  Biso   1.000  H
  H21      1.0000 0.58520  0.87630  0.08020  Biso   1.000  H
  H22      1.0000 0.87370  0.83520  0.33020  Biso   1.000  H
  H23      1.0000 0.37370  0.33520  0.83020  Biso   1.000  H
  H24      1.0000 0.41480  0.62370  0.08020  Biso   1.000  H
  H25      1.0000 0.87370  0.33520  0.66980  Biso   1.000  H
  H26      1.0000 0.41480  0.12370  0.91980  Biso   1.000  H
  H27      1.0000 0.58520  0.37630  0.91980  Biso   1.000  H
  H28      1.0000 0.37370  0.83520  0.16980  Biso   1.000  H
  H29      1.0000 0.91480  0.62370  0.41980  Biso   1.000  H
  H30      1.0000 0.12630  0.16480  0.66980  Biso   1.000  H
  H31      1.0000 0.62630  0.66480  0.16980  Biso   1.000  H
  H32      1.0000 0.08520  0.87630  0.41980  Biso   1.000  H
  C81      1.0000 0.11140  0.10260  0.18770  Biso   1.000  C
  C82      1.0000 0.64740  0.36140  0.43770  Biso   1.000  C
  C83      1.0000 0.35260  0.13860  0.43770  Biso   1.000  C
  C84      1.0000 0.61140  0.60260  0.68770  Biso   1.000  C
  C85      1.0000 0.14740  0.86140  0.93770  Biso   1.000  C
  C86      1.0000 0.88860  0.39740  0.18770  Biso   1.000  C
  C87      1.0000 0.38860  0.89740  0.68770  Biso   1.000  C
  C88      1.0000 0.85260  0.63860  0.93770  Biso   1.000  C
  C89      1.0000 0.88860  0.89740  0.81230  Biso   1.000  C
  C90      1.0000 0.85260  0.13860  0.06230  Biso   1.000  C
  C91      1.0000 0.14740  0.36140  0.06230  Biso   1.000  C
  C92      1.0000 0.38860  0.39740  0.31230  Biso   1.000  C
  C93      1.0000 0.35260  0.63860  0.56230  Biso   1.000  C
  C94      1.0000 0.11140  0.60260  0.81230  Biso   1.000  C
  C95      1.0000 0.61140  0.10260  0.31230  Biso   1.000  C
  C96      1.0000 0.64740  0.86140  0.56230  Biso   1.000  C
  H33      1.0000 0.10360  0.16550  0.20740  Biso   1.000  H
  H34      1.0000 0.58450  0.35360  0.45740  Biso   1.000  H
  H35      1.0000 0.41550  0.14640  0.45740  Biso   1.000  H
  H36      1.0000 0.60360  0.66550  0.70740  Biso   1.000  H
  H37      1.0000 0.08450  0.85360  0.95740  Biso   1.000  H
  H38      1.0000 0.89640  0.33450  0.20740  Biso   1.000  H
  H39      1.0000 0.39640  0.83450  0.70740  Biso   1.000  H
  H40      1.0000 0.91550  0.64640  0.95740  Biso   1.000  H
  H41      1.0000 0.89640  0.83450  0.79260  Biso   1.000  H
  H42      1.0000 0.91550  0.14640  0.04260  Biso   1.000  H
  H43      1.0000 0.08450  0.35360  0.04260  Biso   1.000  H
  H44      1.0000 0.39640  0.33450  0.29260  Biso   1.000  H
  H45      1.0000 0.41550  0.64640  0.54260  Biso   1.000  H
  H46      1.0000 0.10360  0.66550  0.79260  Biso   1.000  H
  H47      1.0000 0.60360  0.16550  0.29260  Biso   1.000  H
  H48      1.0000 0.58450  0.85360  0.54260  Biso   1.000  H
  C97      1.0000 0.12670  0.61350  0.24550  Biso   1.000  C
  C98      1.0000 0.13650  0.37670  0.49550  Biso   1.000  C
  C99      1.0000 0.86350  0.12330  0.49550  Biso   1.000  C
  C100     1.0000 0.62670  0.11350  0.74550  Biso   1.000  C
  C101     1.0000 0.63650  0.87670  0.99550  Biso   1.000  C
  C102     1.0000 0.87330  0.88650  0.24550  Biso   1.000  C
  C103     1.0000 0.37330  0.38650  0.74550  Biso   1.000  C
  C104     1.0000 0.36350  0.62330  0.99550  Biso   1.000  C
  C105     1.0000 0.87330  0.38650  0.75450  Biso   1.000  C
  C106     1.0000 0.36350  0.12330  0.00450  Biso   1.000  C
  C107     1.0000 0.63650  0.37670  0.00450  Biso   1.000  C
  C108     1.0000 0.37330  0.88650  0.25450  Biso   1.000  C
  C109     1.0000 0.86350  0.62330  0.50450  Biso   1.000  C
  C110     1.0000 0.12670  0.11350  0.75450  Biso   1.000  C
  C111     1.0000 0.62670  0.61350  0.25450  Biso   1.000  C
  C112     1.0000 0.13650  0.87670  0.50450  Biso   1.000  C
  H49      1.0000 0.12800  0.54380  0.25510  Biso   1.000  H
  H50      1.0000 0.20620  0.37800  0.50510  Biso   1.000  H
  H51      1.0000 0.79380  0.12200  0.50510  Biso   1.000  H
  H52      1.0000 0.62800  0.04380  0.75510  Biso   1.000  H
  H53      1.0000 0.70620  0.87800  0.00510  Biso   1.000  H
  H54      1.0000 0.87200  0.95620  0.25510  Biso   1.000  H
  H55      1.0000 0.37200  0.45620  0.75510  Biso   1.000  H
  H56      1.0000 0.29380  0.62200  0.00510  Biso   1.000  H
  H57      1.0000 0.87200  0.45620  0.74490  Biso   1.000  H
  H58      1.0000 0.29380  0.12200  0.99490  Biso   1.000  H
  H59      1.0000 0.70620  0.37800  0.99490  Biso   1.000  H
  H60      1.0000 0.37200  0.95620  0.24490  Biso   1.000  H
  H61      1.0000 0.79380  0.62200  0.49490  Biso   1.000  H
  H62      1.0000 0.12800  0.04380  0.74490  Biso   1.000  H
  H63      1.0000 0.62800  0.54380  0.24490  Biso   1.000  H
  H64      1.0000 0.20620  0.87800  0.49490  Biso   1.000  H
  C113     1.0000 0.12760  0.10000  0.12700  Biso   1.000  C
  C114     1.0000 0.65000  0.37760  0.37700  Biso   1.000  C
  C115     1.0000 0.35000  0.12240  0.37700  Biso   1.000  C
  C116     1.0000 0.62760  0.60000  0.62700  Biso   1.000  C
  C117     1.0000 0.15000  0.87760  0.87700  Biso   1.000  C
  C118     1.0000 0.87240  0.40000  0.12700  Biso   1.000  C
  C119     1.0000 0.37240  0.90000  0.62700  Biso   1.000  C
  C120     1.0000 0.85000  0.62240  0.87700  Biso   1.000  C
  C121     1.0000 0.87240  0.90000  0.87300  Biso   1.000  C
  C122     1.0000 0.85000  0.12240  0.12300  Biso   1.000  C
  C123     1.0000 0.15000  0.37760  0.12300  Biso   1.000  C
  C124     1.0000 0.37240  0.40000  0.37300  Biso   1.000  C
  C125     1.0000 0.35000  0.62240  0.62300  Biso   1.000  C
  C126     1.0000 0.12760  0.60000  0.87300  Biso   1.000  C
  C127     1.0000 0.62760  0.10000  0.37300  Biso   1.000  C
  C128     1.0000 0.65000  0.87760  0.62300  Biso   1.000  C
  H65      1.0000 0.13080  0.16060  0.10460  Biso   1.000  H
  H66      1.0000 0.58940  0.38080  0.35460  Biso   1.000  H
  H67      1.0000 0.41060  0.11920  0.35460  Biso   1.000  H
  H68      1.0000 0.63080  0.66060  0.60460  Biso   1.000  H
  H69      1.0000 0.08940  0.88080  0.85460  Biso   1.000  H
  H70      1.0000 0.86920  0.33940  0.10460  Biso   1.000  H
  H71      1.0000 0.36920  0.83940  0.60460  Biso   1.000  H
  H72      1.0000 0.91060  0.61920  0.85460  Biso   1.000  H
  H73      1.0000 0.86920  0.83940  0.89540  Biso   1.000  H
  H74      1.0000 0.91060  0.11920  0.14540  Biso   1.000  H
  H75      1.0000 0.08940  0.38080  0.14540  Biso   1.000  H
  H76      1.0000 0.36920  0.33940  0.39540  Biso   1.000  H
  H77      1.0000 0.41060  0.61920  0.64540  Biso   1.000  H
  H78      1.0000 0.13080  0.66060  0.89540  Biso   1.000  H
  H79      1.0000 0.63080  0.16060  0.39540  Biso   1.000  H
  H80      1.0000 0.58940  0.88080  0.64540  Biso   1.000  H
  C129     1.0000 0.12470  0.64530  0.18600  Biso   1.000  C
  C130     1.0000 0.10470  0.37470  0.43600  Biso   1.000  C
  C131     1.0000 0.89530  0.12530  0.43600  Biso   1.000  C
  C132     1.0000 0.62470  0.14530  0.68600  Biso   1.000  C
  C133     1.0000 0.60470  0.87470  0.93600  Biso   1.000  C
  C134     1.0000 0.87530  0.85470  0.18600  Biso   1.000  C
  C135     1.0000 0.37530  0.35470  0.68600  Biso   1.000  C
  C136     1.0000 0.39530  0.62530  0.93600  Biso   1.000  C
  C137     1.0000 0.87530  0.35470  0.81400  Biso   1.000  C
  C138     1.0000 0.39530  0.12530  0.06400  Biso   1.000  C
  C139     1.0000 0.60470  0.37470  0.06400  Biso   1.000  C
  C140     1.0000 0.37530  0.85470  0.31400  Biso   1.000  C
  C141     1.0000 0.89530  0.62530  0.56400  Biso   1.000  C
  C142     1.0000 0.12470  0.14530  0.81400  Biso   1.000  C
  C143     1.0000 0.62470  0.64530  0.31400  Biso   1.000  C
  C144     1.0000 0.10470  0.87470  0.56400  Biso   1.000  C
  H81      1.0000 0.12590  0.59650  0.15500  Biso   1.000  H
  H82      1.0000 0.15350  0.37590  0.40500  Biso   1.000  H
  H83      1.0000 0.84650  0.12410  0.40500  Biso   1.000  H
  H84      1.0000 0.62590  0.09650  0.65500  Biso   1.000  H
  H85      1.0000 0.65350  0.87590  0.90500  Biso   1.000  H
  H86      1.0000 0.87410  0.90350  0.15500  Biso   1.000  H
  H87      1.0000 0.37410  0.40350  0.65500  Biso   1.000  H
  H88      1.0000 0.34650  0.62410  0.90500  Biso   1.000  H
  H89      1.0000 0.87410  0.40350  0.84500  Biso   1.000  H
  H90      1.0000 0.34650  0.12410  0.09500  Biso   1.000  H
  H91      1.0000 0.65350  0.37590  0.09500  Biso   1.000  H
  H92      1.0000 0.37410  0.90350  0.34500  Biso   1.000  H
  H93      1.0000 0.84650  0.62410  0.59500  Biso   1.000  H
  H94      1.0000 0.12590  0.09650  0.84500  Biso   1.000  H
  H95      1.0000 0.62590  0.59650  0.34500  Biso   1.000  H
  H96      1.0000 0.15350  0.87590  0.59500  Biso   1.000  H
  C145     1.0000 0.13920  0.00730  0.09900  Biso   1.000  C
  C146     1.0000 0.74270  0.38920  0.34900  Biso   1.000  C
  C147     1.0000 0.25730  0.11080  0.34900  Biso   1.000  C
  C148     1.0000 0.63920  0.50730  0.59900  Biso   1.000  C
  C149     1.0000 0.24270  0.88920  0.84900  Biso   1.000  C
  C150     1.0000 0.86080  0.49270  0.09900  Biso   1.000  C
  C151     1.0000 0.36080  0.99270  0.59900  Biso   1.000  C
  C152     1.0000 0.75730  0.61080  0.84900  Biso   1.000  C
  C153     1.0000 0.86080  0.99270  0.90100  Biso   1.000  C
  C154     1.0000 0.75730  0.11080  0.15100  Biso   1.000  C
  C155     1.0000 0.24270  0.38920  0.15100  Biso   1.000  C
  C156     1.0000 0.36080  0.49270  0.40100  Biso   1.000  C
  C157     1.0000 0.25730  0.61080  0.65100  Biso   1.000  C
  C158     1.0000 0.13920  0.50730  0.90100  Biso   1.000  C
  C159     1.0000 0.63920  0.00730  0.40100  Biso   1.000  C
  C160     1.0000 0.74270  0.88920  0.65100  Biso   1.000  C
  H97      1.0000 0.14870  0.00510  0.05700  Biso   1.000  H
  H98      1.0000 0.74490  0.39870  0.30700  Biso   1.000  H
  H99      1.0000 0.25510  0.10130  0.30700  Biso   1.000  H
  H100     1.0000 0.64870  0.50510  0.55700  Biso   1.000  H
  H101     1.0000 0.24490  0.89870  0.80700  Biso   1.000  H
  H102     1.0000 0.85130  0.49490  0.05700  Biso   1.000  H
  H103     1.0000 0.35130  0.99490  0.55700  Biso   1.000  H
  H104     1.0000 0.75510  0.60130  0.80700  Biso   1.000  H
  H105     1.0000 0.85130  0.99490  0.94300  Biso   1.000  H
  H106     1.0000 0.75510  0.10130  0.19300  Biso   1.000  H
  H107     1.0000 0.24490  0.39870  0.19300  Biso   1.000  H
  H108     1.0000 0.35130  0.49490  0.44300  Biso   1.000  H
  H109     1.0000 0.25510  0.60130  0.69300  Biso   1.000  H
  H110     1.0000 0.14870  0.50510  0.94300  Biso   1.000  H
  H111     1.0000 0.64870  0.00510  0.44300  Biso   1.000  H
  H112     1.0000 0.74490  0.89870  0.69300  Biso   1.000  H
