data_image0
_cell_length_a       9.196
_cell_length_b       10.6603
_cell_length_c       11.4383
_cell_angle_alpha    90
_cell_angle_beta     103.196
_cell_angle_gamma    90

_symmetry_space_group_name_H-M    "P 1"
_symmetry_int_tables_number       1

loop_
  _symmetry_equiv_pos_as_xyz
  'x, y, z'

loop_
  _atom_site_label
  _atom_site_occupancy
  _atom_site_fract_x
  _atom_site_fract_y
  _atom_site_fract_z
  _atom_site_thermal_displace_type
  _atom_site_B_iso_or_equiv
  _atom_site_type_symbol
  Cu1      1.0000 0.12743  0.82493  0.72366  Biso   1.000  Cu
  Cu2      1.0000 0.37257  0.32493  0.77634  Biso   1.000  Cu
  Cu3      1.0000 0.87257  0.17507  0.27634  Biso   1.000  Cu
  Cu4      1.0000 0.62743  0.67507  0.22366  Biso   1.000  Cu
  O1       1.0000 0.74617  0.98879  0.34639  Biso   1.000  O
  O2       1.0000 0.75383  0.48879  0.15361  Biso   1.000  O
  O3       1.0000 0.25383  0.01121  0.65361  Biso   1.000  O
  O4       1.0000 0.24617  0.51121  0.84639  Biso   1.000  O
  H1       1.0000 0.80060  0.94010  0.31740  Biso   1.000  H
  H2       1.0000 0.69940  0.44010  0.18260  Biso   1.000  H
  H3       1.0000 0.19940  0.05990  0.68260  Biso   1.000  H
  H4       1.0000 0.30060  0.55990  0.81740  Biso   1.000  H
  N1       1.0000 0.93580  0.90873  0.65255  Biso   1.000  N
  N2       1.0000 0.56420  0.40873  0.84745  Biso   1.000  N
  N3       1.0000 0.06420  0.09127  0.34745  Biso   1.000  N
  N4       1.0000 0.43580  0.59127  0.15255  Biso   1.000  N
  O5       1.0000 0.15258  0.90367  0.88434  Biso   1.000  O
  O6       1.0000 0.34742  0.40367  0.61566  Biso   1.000  O
  O7       1.0000 0.84742  0.09633  0.11566  Biso   1.000  O
  O8       1.0000 0.65258  0.59633  0.38434  Biso   1.000  O
  N5       1.0000 0.09580  0.82466  0.94869  Biso   1.000  N
  N6       1.0000 0.40420  0.32466  0.55131  Biso   1.000  N
  N7       1.0000 0.90420  0.17534  0.05131  Biso   1.000  N
  N8       1.0000 0.59580  0.67534  0.44869  Biso   1.000  N
  C1       1.0000 0.88860  0.89480  0.53139  Biso   1.000  C
  C2       1.0000 0.61140  0.39480  0.96861  Biso   1.000  C
  C3       1.0000 0.11140  0.10520  0.46861  Biso   1.000  C
  C4       1.0000 0.38860  0.60520  0.03139  Biso   1.000  C
  O9       1.0000 0.03080  0.73142  0.89630  Biso   1.000  O
  O10      1.0000 0.46920  0.23142  0.60370  Biso   1.000  O
  O11      1.0000 0.96920  0.26858  0.10370  Biso   1.000  O
  O12      1.0000 0.53080  0.76858  0.39630  Biso   1.000  O
  C5       1.0000 0.77930  0.97740  0.46747  Biso   1.000  C
  C6       1.0000 0.72070  0.47740  0.03253  Biso   1.000  C
  C7       1.0000 0.22070  0.02260  0.53253  Biso   1.000  C
  C8       1.0000 0.27930  0.52260  0.96747  Biso   1.000  C
  O13      1.0000 0.10970  0.84470  0.05562  Biso   1.000  O
  O14      1.0000 0.39030  0.34470  0.44438  Biso   1.000  O
  O15      1.0000 0.89030  0.15530  0.94438  Biso   1.000  O
  O16      1.0000 0.60970  0.65530  0.55562  Biso   1.000  O
  C9       1.0000 0.70660  0.05830  0.53180  Biso   1.000  C
  C10      1.0000 0.79340  0.55830  0.96820  Biso   1.000  C
  C11      1.0000 0.29340  0.94170  0.46820  Biso   1.000  C
  C12      1.0000 0.20660  0.44170  0.03180  Biso   1.000  C
  H5       1.0000 0.62580  0.10870  0.49060  Biso   1.000  H
  H6       1.0000 0.87420  0.60870  0.00940  Biso   1.000  H
  H7       1.0000 0.37420  0.89130  0.50940  Biso   1.000  H
  H8       1.0000 0.12580  0.39130  0.99060  Biso   1.000  H
  C13      1.0000 0.75240  0.06490  0.65480  Biso   1.000  C
  C14      1.0000 0.74760  0.56490  0.84520  Biso   1.000  C
  C15      1.0000 0.24760  0.93510  0.34520  Biso   1.000  C
  C16      1.0000 0.25240  0.43510  0.15480  Biso   1.000  C
  H9       1.0000 0.70310  0.11900  0.69930  Biso   1.000  H
  H10      1.0000 0.79690  0.61900  0.80070  Biso   1.000  H
  H11      1.0000 0.29690  0.88100  0.30070  Biso   1.000  H
  H12      1.0000 0.20310  0.38100  0.19930  Biso   1.000  H
  C17      1.0000 0.87100  0.99150  0.71268  Biso   1.000  C
  C18      1.0000 0.62900  0.49150  0.78732  Biso   1.000  C
  C19      1.0000 0.12900  0.00850  0.28732  Biso   1.000  C
  C20      1.0000 0.37100  0.50850  0.21268  Biso   1.000  C
  H13      1.0000 0.90740  0.99990  0.79700  Biso   1.000  H
  H14      1.0000 0.59260  0.49990  0.70300  Biso   1.000  H
  H15      1.0000 0.09260  0.00010  0.20300  Biso   1.000  H
  H16      1.0000 0.40740  0.50010  0.29700  Biso   1.000  H
  O17      1.0000 0.80545  0.77705  0.28455  Biso   1.000  O
  O18      1.0000 0.69455  0.27705  0.21545  Biso   1.000  O
  O19      1.0000 0.19455  0.22295  0.71545  Biso   1.000  O
  O20      1.0000 0.30545  0.72295  0.78455  Biso   1.000  O
  N9       1.0000 0.08851  0.74757  0.56273  Biso   1.000  N
  N10      1.0000 0.41149  0.24757  0.93727  Biso   1.000  N
  N11      1.0000 0.91149  0.25243  0.43727  Biso   1.000  N
  N12      1.0000 0.58851  0.75243  0.06273  Biso   1.000  N
  C21      1.0000 0.96710  0.79300  0.48190  Biso   1.000  C
  C22      1.0000 0.53290  0.29300  0.01810  Biso   1.000  C
  C23      1.0000 0.03290  0.20700  0.51810  Biso   1.000  C
  C24      1.0000 0.46710  0.70700  0.98190  Biso   1.000  C
  C25      1.0000 0.92530  0.73890  0.36631  Biso   1.000  C
  C26      1.0000 0.57470  0.23890  0.13369  Biso   1.000  C
  C27      1.0000 0.07470  0.26110  0.63369  Biso   1.000  C
  C28      1.0000 0.42530  0.76110  0.86631  Biso   1.000  C
  C29      1.0000 0.01400  0.64150  0.33795  Biso   1.000  C
  C30      1.0000 0.48600  0.14150  0.16205  Biso   1.000  C
  C31      1.0000 0.98600  0.35850  0.66205  Biso   1.000  C
  C32      1.0000 0.51400  0.85850  0.83795  Biso   1.000  C
  H17      1.0000 0.98990  0.60520  0.26010  Biso   1.000  H
  H18      1.0000 0.51010  0.10520  0.23990  Biso   1.000  H
  H19      1.0000 0.01010  0.39480  0.73990  Biso   1.000  H
  H20      1.0000 0.48990  0.89480  0.76010  Biso   1.000  H
  C33      1.0000 0.13490  0.59830  0.42140  Biso   1.000  C
  C34      1.0000 0.36510  0.09830  0.07860  Biso   1.000  C
  C35      1.0000 0.86510  0.40170  0.57860  Biso   1.000  C
  C36      1.0000 0.63490  0.90170  0.92140  Biso   1.000  C
  H21      1.0000 0.19360  0.53120  0.40250  Biso   1.000  H
  H22      1.0000 0.30640  0.03120  0.09750  Biso   1.000  H
  H23      1.0000 0.80640  0.46880  0.59750  Biso   1.000  H
  H24      1.0000 0.69360  0.96880  0.90250  Biso   1.000  H
  C37      1.0000 0.17030  0.65410  0.53410  Biso   1.000  C
  C38      1.0000 0.32970  0.15410  0.96590  Biso   1.000  C
  C39      1.0000 0.82970  0.34590  0.46590  Biso   1.000  C
  C40      1.0000 0.67030  0.84590  0.03410  Biso   1.000  C
  H25      1.0000 0.25470  0.62500  0.59210  Biso   1.000  H
  H26      1.0000 0.24530  0.12500  0.90790  Biso   1.000  H
  H27      1.0000 0.74530  0.37500  0.40790  Biso   1.000  H
  H28      1.0000 0.75470  0.87500  0.09210  Biso   1.000  H
