data_image0
_cell_length_a       13.1335
_cell_length_b       13.1335
_cell_length_c       46.919
_cell_angle_alpha    90
_cell_angle_beta     90
_cell_angle_gamma    120

_symmetry_space_group_name_H-M    "P 1"
_symmetry_int_tables_number       1

loop_
  _symmetry_equiv_pos_as_xyz
  'x, y, z'

loop_
  _atom_site_label
  _atom_site_occupancy
  _atom_site_fract_x
  _atom_site_fract_y
  _atom_site_fract_z
  _atom_site_thermal_displace_type
  _atom_site_B_iso_or_equiv
  _atom_site_type_symbol
  Gd1      1.0000 0.66670  0.33330  0.99333  Biso   1.000  Gd
  Gd2      1.0000 0.33330  0.66670  0.50667  Biso   1.000  Gd
  Gd3      1.0000 0.33337  0.66663  0.32666  Biso   1.000  Gd
  Gd4      1.0000 0.99997  0.00003  0.84001  Biso   1.000  Gd
  Gd5      1.0000 0.00003  0.99997  0.65999  Biso   1.000  Gd
  Gd6      1.0000 0.66663  0.33337  0.17334  Biso   1.000  Gd
  Gd7      1.0000 0.33330  0.66670  0.00667  Biso   1.000  Gd
  Gd8      1.0000 0.66670  0.33330  0.49333  Biso   1.000  Gd
  Gd9      1.0000 0.99997  0.00003  0.34001  Biso   1.000  Gd
  Gd10     1.0000 0.33337  0.66663  0.82666  Biso   1.000  Gd
  Gd11     1.0000 0.66663  0.33337  0.67334  Biso   1.000  Gd
  Gd12     1.0000 0.00003  0.99997  0.15999  Biso   1.000  Gd
  Cu1      1.0000 0.50000  0.00000  0.00000  Biso   1.000  Cu
  Cu2      1.0000 0.00000  0.50000  0.00000  Biso   1.000  Cu
  Cu3      1.0000 0.50000  0.50000  0.00000  Biso   1.000  Cu
  Cu4      1.0000 0.00000  0.50000  0.50000  Biso   1.000  Cu
  Cu5      1.0000 0.16667  0.33333  0.33333  Biso   1.000  Cu
  Cu6      1.0000 0.66667  0.83333  0.33333  Biso   1.000  Cu
  Cu7      1.0000 0.16667  0.83333  0.33333  Biso   1.000  Cu
  Cu8      1.0000 0.66667  0.83333  0.83333  Biso   1.000  Cu
  Cu9      1.0000 0.83333  0.66667  0.66667  Biso   1.000  Cu
  Cu10     1.0000 0.33333  0.16667  0.16667  Biso   1.000  Cu
  Cu11     1.0000 0.50000  0.00000  0.50000  Biso   1.000  Cu
  Cu12     1.0000 0.50000  0.50000  0.50000  Biso   1.000  Cu
  Cu13     1.0000 0.33333  0.16667  0.66667  Biso   1.000  Cu
  Cu14     1.0000 0.83333  0.16667  0.66667  Biso   1.000  Cu
  Cu15     1.0000 0.83333  0.66667  0.16667  Biso   1.000  Cu
  Cu16     1.0000 0.83333  0.16667  0.16667  Biso   1.000  Cu
  Cu17     1.0000 0.16667  0.33333  0.83333  Biso   1.000  Cu
  Cu18     1.0000 0.16667  0.83333  0.83333  Biso   1.000  Cu
  O1       1.0000 0.47899  0.13773  0.00192  Biso   1.000  O
  O2       1.0000 0.86227  0.34126  0.00192  Biso   1.000  O
  O3       1.0000 0.65874  0.52101  0.00192  Biso   1.000  O
  O4       1.0000 0.13773  0.47899  0.49808  Biso   1.000  O
  O5       1.0000 0.14566  0.47106  0.33525  Biso   1.000  O
  O6       1.0000 0.52894  0.67459  0.33525  Biso   1.000  O
  O7       1.0000 0.32541  0.85434  0.33525  Biso   1.000  O
  O8       1.0000 0.80440  0.81232  0.83141  Biso   1.000  O
  O9       1.0000 0.81232  0.80440  0.66859  Biso   1.000  O
  O10      1.0000 0.47106  0.14566  0.16475  Biso   1.000  O
  O11      1.0000 0.34126  0.86227  0.49808  Biso   1.000  O
  O12      1.0000 0.52101  0.65874  0.49808  Biso   1.000  O
  O13      1.0000 0.19560  0.00793  0.66859  Biso   1.000  O
  O14      1.0000 0.99207  0.18768  0.66859  Biso   1.000  O
  O15      1.0000 0.67459  0.52894  0.16475  Biso   1.000  O
  O16      1.0000 0.85434  0.32541  0.16475  Biso   1.000  O
  O17      1.0000 0.00793  0.19560  0.83141  Biso   1.000  O
  O18      1.0000 0.18768  0.99207  0.83141  Biso   1.000  O
  O19      1.0000 0.52101  0.86227  0.99808  Biso   1.000  O
  O20      1.0000 0.13773  0.65874  0.99808  Biso   1.000  O
  O21      1.0000 0.34126  0.47899  0.99808  Biso   1.000  O
  O22      1.0000 0.86227  0.52101  0.50192  Biso   1.000  O
  O23      1.0000 0.18768  0.19560  0.33141  Biso   1.000  O
  O24      1.0000 0.80440  0.99207  0.33141  Biso   1.000  O
  O25      1.0000 0.00793  0.81232  0.33141  Biso   1.000  O
  O26      1.0000 0.52894  0.85434  0.83525  Biso   1.000  O
  O27      1.0000 0.85434  0.52894  0.66475  Biso   1.000  O
  O28      1.0000 0.19560  0.18768  0.16859  Biso   1.000  O
  O29      1.0000 0.65874  0.13773  0.50192  Biso   1.000  O
  O30      1.0000 0.47899  0.34126  0.50192  Biso   1.000  O
  O31      1.0000 0.47106  0.32541  0.66475  Biso   1.000  O
  O32      1.0000 0.67459  0.14566  0.66475  Biso   1.000  O
  O33      1.0000 0.99207  0.80440  0.16859  Biso   1.000  O
  O34      1.0000 0.81232  0.00793  0.16859  Biso   1.000  O
  O35      1.0000 0.32541  0.47106  0.83525  Biso   1.000  O
  O36      1.0000 0.14566  0.67459  0.83525  Biso   1.000  O
  O37      1.0000 0.50700  0.28700  0.02789  Biso   1.000  O
  O38      1.0000 0.71300  0.22000  0.02789  Biso   1.000  O
  O39      1.0000 0.78000  0.49300  0.02789  Biso   1.000  O
  O40      1.0000 0.28700  0.50700  0.47211  Biso   1.000  O
  O41      1.0000 0.17367  0.62033  0.36122  Biso   1.000  O
  O42      1.0000 0.37967  0.55333  0.36122  Biso   1.000  O
  O43      1.0000 0.44667  0.82633  0.36122  Biso   1.000  O
  O44      1.0000 0.95367  0.84033  0.80544  Biso   1.000  O
  O45      1.0000 0.84033  0.95367  0.69456  Biso   1.000  O
  O46      1.0000 0.62033  0.17367  0.13878  Biso   1.000  O
  O47      1.0000 0.22000  0.71300  0.47211  Biso   1.000  O
  O48      1.0000 0.49300  0.78000  0.47211  Biso   1.000  O
  O49      1.0000 0.04633  0.88667  0.69456  Biso   1.000  O
  O50      1.0000 0.11333  0.15967  0.69456  Biso   1.000  O
  O51      1.0000 0.55333  0.37967  0.13878  Biso   1.000  O
  O52      1.0000 0.82633  0.44667  0.13878  Biso   1.000  O
  O53      1.0000 0.88667  0.04633  0.80544  Biso   1.000  O
  O54      1.0000 0.15967  0.11333  0.80544  Biso   1.000  O
  O55      1.0000 0.49300  0.71300  0.97211  Biso   1.000  O
  O56      1.0000 0.28700  0.78000  0.97211  Biso   1.000  O
  O57      1.0000 0.22000  0.50700  0.97211  Biso   1.000  O
  O58      1.0000 0.71300  0.49300  0.52789  Biso   1.000  O
  O59      1.0000 0.15967  0.04633  0.30544  Biso   1.000  O
  O60      1.0000 0.95367  0.11333  0.30544  Biso   1.000  O
  O61      1.0000 0.88667  0.84033  0.30544  Biso   1.000  O
  O62      1.0000 0.37967  0.82633  0.86122  Biso   1.000  O
  O63      1.0000 0.82633  0.37967  0.63878  Biso   1.000  O
  O64      1.0000 0.04633  0.15967  0.19456  Biso   1.000  O
  O65      1.0000 0.78000  0.28700  0.52789  Biso   1.000  O
  O66      1.0000 0.50700  0.22000  0.52789  Biso   1.000  O
  O67      1.0000 0.62033  0.44667  0.63878  Biso   1.000  O
  O68      1.0000 0.55333  0.17367  0.63878  Biso   1.000  O
  O69      1.0000 0.11333  0.95367  0.19456  Biso   1.000  O
  O70      1.0000 0.84033  0.88667  0.19456  Biso   1.000  O
  O71      1.0000 0.44667  0.62033  0.86122  Biso   1.000  O
  O72      1.0000 0.17367  0.55333  0.86122  Biso   1.000  O
  O73      1.0000 0.31790  0.15380  0.12599  Biso   1.000  O
  O74      1.0000 0.84620  0.16410  0.12599  Biso   1.000  O
  O75      1.0000 0.83590  0.68210  0.12599  Biso   1.000  O
  O76      1.0000 0.15380  0.31790  0.37401  Biso   1.000  O
  O77      1.0000 0.98457  0.48713  0.45932  Biso   1.000  O
  O78      1.0000 0.51287  0.49743  0.45932  Biso   1.000  O
  O79      1.0000 0.50257  0.01543  0.45932  Biso   1.000  O
  O80      1.0000 0.82047  0.65123  0.70734  Biso   1.000  O
  O81      1.0000 0.65123  0.82047  0.79266  Biso   1.000  O
  O82      1.0000 0.48713  0.98457  0.04068  Biso   1.000  O
  O83      1.0000 0.16410  0.84620  0.37401  Biso   1.000  O
  O84      1.0000 0.68210  0.83590  0.37401  Biso   1.000  O
  O85      1.0000 0.17953  0.83077  0.79266  Biso   1.000  O
  O86      1.0000 0.16923  0.34877  0.79266  Biso   1.000  O
  O87      1.0000 0.49743  0.51287  0.04068  Biso   1.000  O
  O88      1.0000 0.01543  0.50257  0.04068  Biso   1.000  O
  O89      1.0000 0.83077  0.17953  0.70734  Biso   1.000  O
  O90      1.0000 0.34877  0.16923  0.70734  Biso   1.000  O
  O91      1.0000 0.68210  0.84620  0.87401  Biso   1.000  O
  O92      1.0000 0.15380  0.83590  0.87401  Biso   1.000  O
  O93      1.0000 0.16410  0.31790  0.87401  Biso   1.000  O
  O94      1.0000 0.84620  0.68210  0.62599  Biso   1.000  O
  O95      1.0000 0.34877  0.17953  0.20734  Biso   1.000  O
  O96      1.0000 0.82047  0.16923  0.20734  Biso   1.000  O
  O97      1.0000 0.83077  0.65123  0.20734  Biso   1.000  O
  O98      1.0000 0.51287  0.01543  0.95932  Biso   1.000  O
  O99      1.0000 0.01543  0.51287  0.54068  Biso   1.000  O
  O100     1.0000 0.17953  0.34877  0.29266  Biso   1.000  O
  O101     1.0000 0.83590  0.15380  0.62599  Biso   1.000  O
  O102     1.0000 0.31790  0.16410  0.62599  Biso   1.000  O
  O103     1.0000 0.48713  0.50257  0.54068  Biso   1.000  O
  O104     1.0000 0.49743  0.98457  0.54068  Biso   1.000  O
  O105     1.0000 0.16923  0.82047  0.29266  Biso   1.000  O
  O106     1.0000 0.65123  0.83077  0.29266  Biso   1.000  O
  O107     1.0000 0.50257  0.48713  0.95932  Biso   1.000  O
  O108     1.0000 0.98457  0.49743  0.95932  Biso   1.000  O
  O109     1.0000 0.13550  0.00119  0.12777  Biso   1.000  O
  O110     1.0000 0.99881  0.13431  0.12777  Biso   1.000  O
  O111     1.0000 0.86569  0.86450  0.12777  Biso   1.000  O
  O112     1.0000 0.00119  0.13550  0.37223  Biso   1.000  O
  O113     1.0000 0.80217  0.33452  0.46110  Biso   1.000  O
  O114     1.0000 0.66548  0.46764  0.46110  Biso   1.000  O
  O115     1.0000 0.53236  0.19783  0.46110  Biso   1.000  O
  O116     1.0000 0.66786  0.46883  0.70556  Biso   1.000  O
  O117     1.0000 0.46883  0.66786  0.79444  Biso   1.000  O
  O118     1.0000 0.33452  0.80217  0.03890  Biso   1.000  O
  O119     1.0000 0.13431  0.99881  0.37223  Biso   1.000  O
  O120     1.0000 0.86450  0.86569  0.37223  Biso   1.000  O
  O121     1.0000 0.33214  0.80098  0.79444  Biso   1.000  O
  O122     1.0000 0.19902  0.53117  0.79444  Biso   1.000  O
  O123     1.0000 0.46764  0.66548  0.03890  Biso   1.000  O
  O124     1.0000 0.19783  0.53236  0.03890  Biso   1.000  O
  O125     1.0000 0.80098  0.33214  0.70556  Biso   1.000  O
  O126     1.0000 0.53117  0.19902  0.70556  Biso   1.000  O
  O127     1.0000 0.86450  0.99881  0.87223  Biso   1.000  O
  O128     1.0000 0.00119  0.86569  0.87223  Biso   1.000  O
  O129     1.0000 0.13431  0.13550  0.87223  Biso   1.000  O
  O130     1.0000 0.99881  0.86450  0.62777  Biso   1.000  O
  O131     1.0000 0.53117  0.33214  0.20556  Biso   1.000  O
  O132     1.0000 0.66786  0.19902  0.20556  Biso   1.000  O
  O133     1.0000 0.80098  0.46883  0.20556  Biso   1.000  O
  O134     1.0000 0.66548  0.19783  0.96110  Biso   1.000  O
  O135     1.0000 0.19783  0.66548  0.53890  Biso   1.000  O
  O136     1.0000 0.33214  0.53117  0.29444  Biso   1.000  O
  O137     1.0000 0.86569  0.00119  0.62777  Biso   1.000  O
  O138     1.0000 0.13550  0.13431  0.62777  Biso   1.000  O
  O139     1.0000 0.33452  0.53236  0.53890  Biso   1.000  O
  O140     1.0000 0.46764  0.80217  0.53890  Biso   1.000  O
  O141     1.0000 0.19902  0.66786  0.29444  Biso   1.000  O
  O142     1.0000 0.46883  0.80098  0.29444  Biso   1.000  O
  O143     1.0000 0.53236  0.33452  0.96110  Biso   1.000  O
  O144     1.0000 0.80217  0.46764  0.96110  Biso   1.000  O
  C1       1.0000 0.33800  0.10270  0.03877  Biso   1.000  C
  C2       1.0000 0.89730  0.23530  0.03877  Biso   1.000  C
  C3       1.0000 0.76470  0.66200  0.03877  Biso   1.000  C
  C4       1.0000 0.10270  0.33800  0.46123  Biso   1.000  C
  C5       1.0000 0.00467  0.43603  0.37210  Biso   1.000  C
  C6       1.0000 0.56397  0.56863  0.37210  Biso   1.000  C
  C7       1.0000 0.43137  0.99533  0.37210  Biso   1.000  C
  C8       1.0000 0.76937  0.67133  0.79456  Biso   1.000  C
  C9       1.0000 0.67133  0.76937  0.70544  Biso   1.000  C
  C10      1.0000 0.43603  0.00467  0.12790  Biso   1.000  C
  C11      1.0000 0.23530  0.89730  0.46123  Biso   1.000  C
  C12      1.0000 0.66200  0.76470  0.46123  Biso   1.000  C
  C13      1.0000 0.23063  0.90197  0.70544  Biso   1.000  C
  C14      1.0000 0.09803  0.32867  0.70544  Biso   1.000  C
  C15      1.0000 0.56863  0.56397  0.12790  Biso   1.000  C
  C16      1.0000 0.99533  0.43137  0.12790  Biso   1.000  C
  C17      1.0000 0.90197  0.23063  0.79456  Biso   1.000  C
  C18      1.0000 0.32867  0.09803  0.79456  Biso   1.000  C
  C19      1.0000 0.66200  0.89730  0.96123  Biso   1.000  C
  C20      1.0000 0.10270  0.76470  0.96123  Biso   1.000  C
  C21      1.0000 0.23530  0.33800  0.96123  Biso   1.000  C
  C22      1.0000 0.89730  0.66200  0.53877  Biso   1.000  C
  C23      1.0000 0.32867  0.23063  0.29456  Biso   1.000  C
  C24      1.0000 0.76937  0.09803  0.29456  Biso   1.000  C
  C25      1.0000 0.90197  0.67133  0.29456  Biso   1.000  C
  C26      1.0000 0.56397  0.99533  0.87210  Biso   1.000  C
  C27      1.0000 0.99533  0.56397  0.62790  Biso   1.000  C
  C28      1.0000 0.23063  0.32867  0.20544  Biso   1.000  C
  C29      1.0000 0.76470  0.10270  0.53877  Biso   1.000  C
  C30      1.0000 0.33800  0.23530  0.53877  Biso   1.000  C
  C31      1.0000 0.43603  0.43137  0.62790  Biso   1.000  C
  C32      1.0000 0.56863  0.00467  0.62790  Biso   1.000  C
  C33      1.0000 0.09803  0.76937  0.20544  Biso   1.000  C
  C34      1.0000 0.67133  0.90197  0.20544  Biso   1.000  C
  C35      1.0000 0.43137  0.43603  0.87210  Biso   1.000  C
  C36      1.0000 0.00467  0.56863  0.87210  Biso   1.000  C
  C37      1.0000 0.33010  0.12910  0.06720  Biso   1.000  C
  C38      1.0000 0.87090  0.20100  0.06720  Biso   1.000  C
  C39      1.0000 0.79900  0.66990  0.06720  Biso   1.000  C
  C40      1.0000 0.12910  0.33010  0.43280  Biso   1.000  C
  C41      1.0000 0.99677  0.46243  0.40053  Biso   1.000  C
  C42      1.0000 0.53757  0.53433  0.40053  Biso   1.000  C
  C43      1.0000 0.46567  0.00323  0.40053  Biso   1.000  C
  C44      1.0000 0.79577  0.66343  0.76613  Biso   1.000  C
  C45      1.0000 0.66343  0.79577  0.73387  Biso   1.000  C
  C46      1.0000 0.46243  0.99677  0.09947  Biso   1.000  C
  C47      1.0000 0.20100  0.87090  0.43280  Biso   1.000  C
  C48      1.0000 0.66990  0.79900  0.43280  Biso   1.000  C
  C49      1.0000 0.20423  0.86767  0.73387  Biso   1.000  C
  C50      1.0000 0.13233  0.33657  0.73387  Biso   1.000  C
  C51      1.0000 0.53433  0.53757  0.09947  Biso   1.000  C
  C52      1.0000 0.00323  0.46567  0.09947  Biso   1.000  C
  C53      1.0000 0.86767  0.20423  0.76613  Biso   1.000  C
  C54      1.0000 0.33657  0.13233  0.76613  Biso   1.000  C
  C55      1.0000 0.66990  0.87090  0.93280  Biso   1.000  C
  C56      1.0000 0.12910  0.79900  0.93280  Biso   1.000  C
  C57      1.0000 0.20100  0.33010  0.93280  Biso   1.000  C
  C58      1.0000 0.87090  0.66990  0.56720  Biso   1.000  C
  C59      1.0000 0.33657  0.20423  0.26613  Biso   1.000  C
  C60      1.0000 0.79577  0.13233  0.26613  Biso   1.000  C
  C61      1.0000 0.86767  0.66343  0.26613  Biso   1.000  C
  C62      1.0000 0.53757  0.00323  0.90053  Biso   1.000  C
  C63      1.0000 0.00323  0.53757  0.59947  Biso   1.000  C
  C64      1.0000 0.20423  0.33657  0.23387  Biso   1.000  C
  C65      1.0000 0.79900  0.12910  0.56720  Biso   1.000  C
  C66      1.0000 0.33010  0.20100  0.56720  Biso   1.000  C
  C67      1.0000 0.46243  0.46567  0.59947  Biso   1.000  C
  C68      1.0000 0.53433  0.99677  0.59947  Biso   1.000  C
  C69      1.0000 0.13233  0.79577  0.23387  Biso   1.000  C
  C70      1.0000 0.66343  0.86767  0.23387  Biso   1.000  C
  C71      1.0000 0.46567  0.46243  0.90053  Biso   1.000  C
  C72      1.0000 0.99677  0.53433  0.90053  Biso   1.000  C
  H1       1.0000 0.39030  0.19720  0.07540  Biso   1.000  H
  H2       1.0000 0.80280  0.19310  0.07540  Biso   1.000  H
  H3       1.0000 0.80690  0.60970  0.07540  Biso   1.000  H
  H4       1.0000 0.19720  0.39030  0.42460  Biso   1.000  H
  H5       1.0000 0.05697  0.53053  0.40873  Biso   1.000  H
  H6       1.0000 0.46947  0.52643  0.40873  Biso   1.000  H
  H7       1.0000 0.47357  0.94303  0.40873  Biso   1.000  H
  H8       1.0000 0.86387  0.72363  0.75793  Biso   1.000  H
  H9       1.0000 0.72363  0.86387  0.74207  Biso   1.000  H
  H10      1.0000 0.53053  0.05697  0.09127  Biso   1.000  H
  H11      1.0000 0.19310  0.80280  0.42460  Biso   1.000  H
  H12      1.0000 0.60970  0.80690  0.42460  Biso   1.000  H
  H13      1.0000 0.13613  0.85977  0.74207  Biso   1.000  H
  H14      1.0000 0.14023  0.27637  0.74207  Biso   1.000  H
  H15      1.0000 0.52643  0.46947  0.09127  Biso   1.000  H
  H16      1.0000 0.94303  0.47357  0.09127  Biso   1.000  H
  H17      1.0000 0.85977  0.13613  0.75793  Biso   1.000  H
  H18      1.0000 0.27637  0.14023  0.75793  Biso   1.000  H
  H19      1.0000 0.60970  0.80280  0.92460  Biso   1.000  H
  H20      1.0000 0.19720  0.80690  0.92460  Biso   1.000  H
  H21      1.0000 0.19310  0.39030  0.92460  Biso   1.000  H
  H22      1.0000 0.80280  0.60970  0.57540  Biso   1.000  H
  H23      1.0000 0.27637  0.13613  0.25793  Biso   1.000  H
  H24      1.0000 0.86387  0.14023  0.25793  Biso   1.000  H
  H25      1.0000 0.85977  0.72363  0.25793  Biso   1.000  H
  H26      1.0000 0.46947  0.94303  0.90873  Biso   1.000  H
  H27      1.0000 0.94303  0.46947  0.59127  Biso   1.000  H
  H28      1.0000 0.13613  0.27637  0.24207  Biso   1.000  H
  H29      1.0000 0.80690  0.19720  0.57540  Biso   1.000  H
  H30      1.0000 0.39030  0.19310  0.57540  Biso   1.000  H
  H31      1.0000 0.53053  0.47357  0.59127  Biso   1.000  H
  H32      1.0000 0.52643  0.05697  0.59127  Biso   1.000  H
  H33      1.0000 0.14023  0.86387  0.24207  Biso   1.000  H
  H34      1.0000 0.72363  0.85977  0.24207  Biso   1.000  H
  H35      1.0000 0.47357  0.53053  0.90873  Biso   1.000  H
  H36      1.0000 0.05697  0.52643  0.90873  Biso   1.000  H
  C73      1.0000 0.23240  0.05360  0.08320  Biso   1.000  C
  C74      1.0000 0.94640  0.17880  0.08320  Biso   1.000  C
  C75      1.0000 0.82120  0.76760  0.08320  Biso   1.000  C
  C76      1.0000 0.05360  0.23240  0.41680  Biso   1.000  C
  C77      1.0000 0.89907  0.38693  0.41653  Biso   1.000  C
  C78      1.0000 0.61307  0.51213  0.41653  Biso   1.000  C
  C79      1.0000 0.48787  0.10093  0.41653  Biso   1.000  C
  C80      1.0000 0.72027  0.56573  0.75013  Biso   1.000  C
  C81      1.0000 0.56573  0.72027  0.74987  Biso   1.000  C
  C82      1.0000 0.38693  0.89907  0.08347  Biso   1.000  C
  C83      1.0000 0.17880  0.94640  0.41680  Biso   1.000  C
  C84      1.0000 0.76760  0.82120  0.41680  Biso   1.000  C
  C85      1.0000 0.27973  0.84547  0.74987  Biso   1.000  C
  C86      1.0000 0.15453  0.43427  0.74987  Biso   1.000  C
  C87      1.0000 0.51213  0.61307  0.08347  Biso   1.000  C
  C88      1.0000 0.10093  0.48787  0.08347  Biso   1.000  C
  C89      1.0000 0.84547  0.27973  0.75013  Biso   1.000  C
  C90      1.0000 0.43427  0.15453  0.75013  Biso   1.000  C
  C91      1.0000 0.76760  0.94640  0.91680  Biso   1.000  C
  C92      1.0000 0.05360  0.82120  0.91680  Biso   1.000  C
  C93      1.0000 0.17880  0.23240  0.91680  Biso   1.000  C
  C94      1.0000 0.94640  0.76760  0.58320  Biso   1.000  C
  C95      1.0000 0.43427  0.27973  0.25013  Biso   1.000  C
  C96      1.0000 0.72027  0.15453  0.25013  Biso   1.000  C
  C97      1.0000 0.84547  0.56573  0.25013  Biso   1.000  C
  C98      1.0000 0.61307  0.10093  0.91653  Biso   1.000  C
  C99      1.0000 0.10093  0.61307  0.58347  Biso   1.000  C
  C100     1.0000 0.27973  0.43427  0.24987  Biso   1.000  C
  C101     1.0000 0.82120  0.05360  0.58320  Biso   1.000  C
  C102     1.0000 0.23240  0.17880  0.58320  Biso   1.000  C
  C103     1.0000 0.38693  0.48787  0.58347  Biso   1.000  C
  C104     1.0000 0.51213  0.89907  0.58347  Biso   1.000  C
  C105     1.0000 0.15453  0.72027  0.24987  Biso   1.000  C
  C106     1.0000 0.56573  0.84547  0.24987  Biso   1.000  C
  C107     1.0000 0.48787  0.38693  0.91653  Biso   1.000  C
  C108     1.0000 0.89907  0.51213  0.91653  Biso   1.000  C
  C109     1.0000 0.14070  0.95540  0.07041  Biso   1.000  C
  C110     1.0000 0.04460  0.18530  0.07041  Biso   1.000  C
  C111     1.0000 0.81470  0.85930  0.07041  Biso   1.000  C
  C112     1.0000 0.95540  0.14070  0.42959  Biso   1.000  C
  C113     1.0000 0.80737  0.28873  0.40374  Biso   1.000  C
  C114     1.0000 0.71127  0.51863  0.40374  Biso   1.000  C
  C115     1.0000 0.48137  0.19263  0.40374  Biso   1.000  C
  C116     1.0000 0.62207  0.47403  0.76292  Biso   1.000  C
  C117     1.0000 0.47403  0.62207  0.73708  Biso   1.000  C
  C118     1.0000 0.28873  0.80737  0.09626  Biso   1.000  C
  C119     1.0000 0.18530  0.04460  0.42959  Biso   1.000  C
  C120     1.0000 0.85930  0.81470  0.42959  Biso   1.000  C
  C121     1.0000 0.37793  0.85197  0.73708  Biso   1.000  C
  C122     1.0000 0.14803  0.52597  0.73708  Biso   1.000  C
  C123     1.0000 0.51863  0.71127  0.09626  Biso   1.000  C
  C124     1.0000 0.19263  0.48137  0.09626  Biso   1.000  C
  C125     1.0000 0.85197  0.37793  0.76292  Biso   1.000  C
  C126     1.0000 0.52597  0.14803  0.76292  Biso   1.000  C
  C127     1.0000 0.85930  0.04460  0.92959  Biso   1.000  C
  C128     1.0000 0.95540  0.81470  0.92959  Biso   1.000  C
  C129     1.0000 0.18530  0.14070  0.92959  Biso   1.000  C
  C130     1.0000 0.04460  0.85930  0.57041  Biso   1.000  C
  C131     1.0000 0.52597  0.37793  0.26292  Biso   1.000  C
  C132     1.0000 0.62207  0.14803  0.26292  Biso   1.000  C
  C133     1.0000 0.85197  0.47403  0.26292  Biso   1.000  C
  C134     1.0000 0.71127  0.19263  0.90374  Biso   1.000  C
  C135     1.0000 0.19263  0.71127  0.59626  Biso   1.000  C
  C136     1.0000 0.37793  0.52597  0.23708  Biso   1.000  C
  C137     1.0000 0.81470  0.95540  0.57041  Biso   1.000  C
  C138     1.0000 0.14070  0.18530  0.57041  Biso   1.000  C
  C139     1.0000 0.28873  0.48137  0.59626  Biso   1.000  C
  C140     1.0000 0.51863  0.80737  0.59626  Biso   1.000  C
  C141     1.0000 0.14803  0.62207  0.23708  Biso   1.000  C
  C142     1.0000 0.47403  0.85197  0.23708  Biso   1.000  C
  C143     1.0000 0.48137  0.28873  0.90374  Biso   1.000  C
  C144     1.0000 0.80737  0.51863  0.90374  Biso   1.000  C
  H37      1.0000 0.07380  0.90600  0.08090  Biso   1.000  H
  H38      1.0000 0.09400  0.16780  0.08090  Biso   1.000  H
  H39      1.0000 0.83220  0.92620  0.08090  Biso   1.000  H
  H40      1.0000 0.90600  0.07380  0.41910  Biso   1.000  H
  H41      1.0000 0.74047  0.23933  0.41423  Biso   1.000  H
  H42      1.0000 0.76067  0.50113  0.41423  Biso   1.000  H
  H43      1.0000 0.49887  0.25953  0.41423  Biso   1.000  H
  H44      1.0000 0.57267  0.40713  0.75243  Biso   1.000  H
  H45      1.0000 0.40713  0.57267  0.74757  Biso   1.000  H
  H46      1.0000 0.23933  0.74047  0.08577  Biso   1.000  H
  H47      1.0000 0.16780  0.09400  0.41910  Biso   1.000  H
  H48      1.0000 0.92620  0.83220  0.41910  Biso   1.000  H
  H49      1.0000 0.42733  0.83447  0.74757  Biso   1.000  H
  H50      1.0000 0.16553  0.59287  0.74757  Biso   1.000  H
  H51      1.0000 0.50113  0.76067  0.08577  Biso   1.000  H
  H52      1.0000 0.25953  0.49887  0.08577  Biso   1.000  H
  H53      1.0000 0.83447  0.42733  0.75243  Biso   1.000  H
  H54      1.0000 0.59287  0.16553  0.75243  Biso   1.000  H
  H55      1.0000 0.92620  0.09400  0.91910  Biso   1.000  H
  H56      1.0000 0.90600  0.83220  0.91910  Biso   1.000  H
  H57      1.0000 0.16780  0.07380  0.91910  Biso   1.000  H
  H58      1.0000 0.09400  0.92620  0.58090  Biso   1.000  H
  H59      1.0000 0.59287  0.42733  0.25243  Biso   1.000  H
  H60      1.0000 0.57267  0.16553  0.25243  Biso   1.000  H
  H61      1.0000 0.83447  0.40713  0.25243  Biso   1.000  H
  H62      1.0000 0.76067  0.25953  0.91423  Biso   1.000  H
  H63      1.0000 0.25953  0.76067  0.58577  Biso   1.000  H
  H64      1.0000 0.42733  0.59287  0.24757  Biso   1.000  H
  H65      1.0000 0.83220  0.90600  0.58090  Biso   1.000  H
  H66      1.0000 0.07380  0.16780  0.58090  Biso   1.000  H
  H67      1.0000 0.23933  0.49887  0.58577  Biso   1.000  H
  H68      1.0000 0.50113  0.74047  0.58577  Biso   1.000  H
  H69      1.0000 0.16553  0.57267  0.24757  Biso   1.000  H
  H70      1.0000 0.40713  0.83447  0.24757  Biso   1.000  H
  H71      1.0000 0.49887  0.23933  0.91423  Biso   1.000  H
  H72      1.0000 0.74047  0.50113  0.91423  Biso   1.000  H
  C145     1.0000 0.14830  0.93070  0.04210  Biso   1.000  C
  C146     1.0000 0.06930  0.21760  0.04210  Biso   1.000  C
  C147     1.0000 0.78240  0.85170  0.04210  Biso   1.000  C
  C148     1.0000 0.93070  0.14830  0.45790  Biso   1.000  C
  C149     1.0000 0.81497  0.26403  0.37543  Biso   1.000  C
  C150     1.0000 0.73597  0.55093  0.37543  Biso   1.000  C
  C151     1.0000 0.44907  0.18503  0.37543  Biso   1.000  C
  C152     1.0000 0.59737  0.48163  0.79123  Biso   1.000  C
  C153     1.0000 0.48163  0.59737  0.70877  Biso   1.000  C
  C154     1.0000 0.26403  0.81497  0.12457  Biso   1.000  C
  C155     1.0000 0.21760  0.06930  0.45790  Biso   1.000  C
  C156     1.0000 0.85170  0.78240  0.45790  Biso   1.000  C
  C157     1.0000 0.40263  0.88427  0.70877  Biso   1.000  C
  C158     1.0000 0.11573  0.51837  0.70877  Biso   1.000  C
  C159     1.0000 0.55093  0.73597  0.12457  Biso   1.000  C
  C160     1.0000 0.18503  0.44907  0.12457  Biso   1.000  C
  C161     1.0000 0.88427  0.40263  0.79123  Biso   1.000  C
  C162     1.0000 0.51837  0.11573  0.79123  Biso   1.000  C
  C163     1.0000 0.85170  0.06930  0.95790  Biso   1.000  C
  C164     1.0000 0.93070  0.78240  0.95790  Biso   1.000  C
  C165     1.0000 0.21760  0.14830  0.95790  Biso   1.000  C
  C166     1.0000 0.06930  0.85170  0.54210  Biso   1.000  C
  C167     1.0000 0.51837  0.40263  0.29123  Biso   1.000  C
  C168     1.0000 0.59737  0.11573  0.29123  Biso   1.000  C
  C169     1.0000 0.88427  0.48163  0.29123  Biso   1.000  C
  C170     1.0000 0.73597  0.18503  0.87543  Biso   1.000  C
  C171     1.0000 0.18503  0.73597  0.62457  Biso   1.000  C
  C172     1.0000 0.40263  0.51837  0.20877  Biso   1.000  C
  C173     1.0000 0.78240  0.93070  0.54210  Biso   1.000  C
  C174     1.0000 0.14830  0.21760  0.54210  Biso   1.000  C
  C175     1.0000 0.26403  0.44907  0.62457  Biso   1.000  C
  C176     1.0000 0.55093  0.81497  0.62457  Biso   1.000  C
  C177     1.0000 0.11573  0.59737  0.20877  Biso   1.000  C
  C178     1.0000 0.48163  0.88427  0.20877  Biso   1.000  C
  C179     1.0000 0.44907  0.26403  0.87543  Biso   1.000  C
  C180     1.0000 0.81497  0.55093  0.87543  Biso   1.000  C
  H73      1.0000 0.08640  0.86490  0.03360  Biso   1.000  H
  H74      1.0000 0.13510  0.22150  0.03360  Biso   1.000  H
  H75      1.0000 0.77850  0.91360  0.03360  Biso   1.000  H
  H76      1.0000 0.86490  0.08640  0.46640  Biso   1.000  H
  H77      1.0000 0.75307  0.19823  0.36693  Biso   1.000  H
  H78      1.0000 0.80177  0.55483  0.36693  Biso   1.000  H
  H79      1.0000 0.44517  0.24693  0.36693  Biso   1.000  H
  H80      1.0000 0.53157  0.41973  0.79973  Biso   1.000  H
  H81      1.0000 0.41973  0.53157  0.70027  Biso   1.000  H
  H82      1.0000 0.19823  0.75307  0.13307  Biso   1.000  H
  H83      1.0000 0.22150  0.13510  0.46640  Biso   1.000  H
  H84      1.0000 0.91360  0.77850  0.46640  Biso   1.000  H
  H85      1.0000 0.46843  0.88817  0.70027  Biso   1.000  H
  H86      1.0000 0.11183  0.58027  0.70027  Biso   1.000  H
  H87      1.0000 0.55483  0.80177  0.13307  Biso   1.000  H
  H88      1.0000 0.24693  0.44517  0.13307  Biso   1.000  H
  H89      1.0000 0.88817  0.46843  0.79973  Biso   1.000  H
  H90      1.0000 0.58027  0.11183  0.79973  Biso   1.000  H
  H91      1.0000 0.91360  0.13510  0.96640  Biso   1.000  H
  H92      1.0000 0.86490  0.77850  0.96640  Biso   1.000  H
  H93      1.0000 0.22150  0.08640  0.96640  Biso   1.000  H
  H94      1.0000 0.13510  0.91360  0.53360  Biso   1.000  H
  H95      1.0000 0.58027  0.46843  0.29973  Biso   1.000  H
  H96      1.0000 0.53157  0.11183  0.29973  Biso   1.000  H
  H97      1.0000 0.88817  0.41973  0.29973  Biso   1.000  H
  H98      1.0000 0.80177  0.24693  0.86693  Biso   1.000  H
  H99      1.0000 0.24693  0.80177  0.63307  Biso   1.000  H
  H100     1.0000 0.46843  0.58027  0.20027  Biso   1.000  H
  H101     1.0000 0.77850  0.86490  0.53360  Biso   1.000  H
  H102     1.0000 0.08640  0.22150  0.53360  Biso   1.000  H
  H103     1.0000 0.19823  0.44517  0.63307  Biso   1.000  H
  H104     1.0000 0.55483  0.75307  0.63307  Biso   1.000  H
  H105     1.0000 0.11183  0.53157  0.20027  Biso   1.000  H
  H106     1.0000 0.41973  0.88817  0.20027  Biso   1.000  H
  H107     1.0000 0.44517  0.19823  0.86693  Biso   1.000  H
  H108     1.0000 0.75307  0.55483  0.86693  Biso   1.000  H
  C181     1.0000 0.24650  0.00280  0.02653  Biso   1.000  C
  C182     1.0000 0.99720  0.24370  0.02653  Biso   1.000  C
  C183     1.0000 0.75630  0.75350  0.02653  Biso   1.000  C
  C184     1.0000 0.00280  0.24650  0.47347  Biso   1.000  C
  C185     1.0000 0.91317  0.33613  0.35986  Biso   1.000  C
  C186     1.0000 0.66387  0.57703  0.35986  Biso   1.000  C
  C187     1.0000 0.42297  0.08683  0.35986  Biso   1.000  C
  C188     1.0000 0.66947  0.57983  0.80680  Biso   1.000  C
  C189     1.0000 0.57983  0.66947  0.69320  Biso   1.000  C
  C190     1.0000 0.33613  0.91317  0.14014  Biso   1.000  C
  C191     1.0000 0.24370  0.99720  0.47347  Biso   1.000  C
  C192     1.0000 0.75350  0.75630  0.47347  Biso   1.000  C
  C193     1.0000 0.33053  0.91037  0.69320  Biso   1.000  C
  C194     1.0000 0.08963  0.42017  0.69320  Biso   1.000  C
  C195     1.0000 0.57703  0.66387  0.14014  Biso   1.000  C
  C196     1.0000 0.08683  0.42297  0.14014  Biso   1.000  C
  C197     1.0000 0.91037  0.33053  0.80680  Biso   1.000  C
  C198     1.0000 0.42017  0.08963  0.80680  Biso   1.000  C
  C199     1.0000 0.75350  0.99720  0.97347  Biso   1.000  C
  C200     1.0000 0.00280  0.75630  0.97347  Biso   1.000  C
  C201     1.0000 0.24370  0.24650  0.97347  Biso   1.000  C
  C202     1.0000 0.99720  0.75350  0.52653  Biso   1.000  C
  C203     1.0000 0.42017  0.33053  0.30680  Biso   1.000  C
  C204     1.0000 0.66947  0.08963  0.30680  Biso   1.000  C
  C205     1.0000 0.91037  0.57983  0.30680  Biso   1.000  C
  C206     1.0000 0.66387  0.08683  0.85986  Biso   1.000  C
  C207     1.0000 0.08683  0.66387  0.64014  Biso   1.000  C
  C208     1.0000 0.33053  0.42017  0.19320  Biso   1.000  C
  C209     1.0000 0.75630  0.00280  0.52653  Biso   1.000  C
  C210     1.0000 0.24650  0.24370  0.52653  Biso   1.000  C
  C211     1.0000 0.33613  0.42297  0.64014  Biso   1.000  C
  C212     1.0000 0.57703  0.91317  0.64014  Biso   1.000  C
  C213     1.0000 0.08963  0.66947  0.19320  Biso   1.000  C
  C214     1.0000 0.57983  0.91037  0.19320  Biso   1.000  C
  C215     1.0000 0.42297  0.33613  0.85986  Biso   1.000  C
  C216     1.0000 0.91317  0.57703  0.85986  Biso   1.000  C
  H109     1.0000 0.25190  0.98460  0.00760  Biso   1.000  H
  H110     1.0000 0.01540  0.26730  0.00760  Biso   1.000  H
  H111     1.0000 0.73270  0.74810  0.00760  Biso   1.000  H
  H112     1.0000 0.98460  0.25190  0.49240  Biso   1.000  H
  H113     1.0000 0.91857  0.31793  0.34093  Biso   1.000  H
  H114     1.0000 0.68207  0.60063  0.34093  Biso   1.000  H
  H115     1.0000 0.39937  0.08143  0.34093  Biso   1.000  H
  H116     1.0000 0.65127  0.58523  0.82573  Biso   1.000  H
  H117     1.0000 0.58523  0.65127  0.67427  Biso   1.000  H
  H118     1.0000 0.31793  0.91857  0.15907  Biso   1.000  H
  H119     1.0000 0.26730  0.01540  0.49240  Biso   1.000  H
  H120     1.0000 0.74810  0.73270  0.49240  Biso   1.000  H
  H121     1.0000 0.34873  0.93397  0.67427  Biso   1.000  H
  H122     1.0000 0.06603  0.41477  0.67427  Biso   1.000  H
  H123     1.0000 0.60063  0.68207  0.15907  Biso   1.000  H
  H124     1.0000 0.08143  0.39937  0.15907  Biso   1.000  H
  H125     1.0000 0.93397  0.34873  0.82573  Biso   1.000  H
  H126     1.0000 0.41477  0.06603  0.82573  Biso   1.000  H
  H127     1.0000 0.74810  0.01540  0.99240  Biso   1.000  H
  H128     1.0000 0.98460  0.73270  0.99240  Biso   1.000  H
  H129     1.0000 0.26730  0.25190  0.99240  Biso   1.000  H
  H130     1.0000 0.01540  0.74810  0.50760  Biso   1.000  H
  H131     1.0000 0.41477  0.34873  0.32573  Biso   1.000  H
  H132     1.0000 0.65127  0.06603  0.32573  Biso   1.000  H
  H133     1.0000 0.93397  0.58523  0.32573  Biso   1.000  H
  H134     1.0000 0.68207  0.08143  0.84093  Biso   1.000  H
  H135     1.0000 0.08143  0.68207  0.65907  Biso   1.000  H
  H136     1.0000 0.34873  0.41477  0.17427  Biso   1.000  H
  H137     1.0000 0.73270  0.98460  0.50760  Biso   1.000  H
  H138     1.0000 0.25190  0.26730  0.50760  Biso   1.000  H
  H139     1.0000 0.31793  0.39937  0.65907  Biso   1.000  H
  H140     1.0000 0.60063  0.91857  0.65907  Biso   1.000  H
  H141     1.0000 0.06603  0.65127  0.17427  Biso   1.000  H
  H142     1.0000 0.58523  0.93397  0.17427  Biso   1.000  H
  H143     1.0000 0.39937  0.31793  0.84093  Biso   1.000  H
  H144     1.0000 0.91857  0.60063  0.84093  Biso   1.000  H
  C217     1.0000 0.44720  0.18060  0.02246  Biso   1.000  C
  C218     1.0000 0.81940  0.26660  0.02246  Biso   1.000  C
  C219     1.0000 0.73340  0.55280  0.02246  Biso   1.000  C
  C220     1.0000 0.18060  0.44720  0.47754  Biso   1.000  C
  C221     1.0000 0.11387  0.51393  0.35579  Biso   1.000  C
  C222     1.0000 0.48607  0.59993  0.35579  Biso   1.000  C
  C223     1.0000 0.40007  0.88613  0.35579  Biso   1.000  C
  C224     1.0000 0.84727  0.78053  0.81087  Biso   1.000  C
  C225     1.0000 0.78053  0.84727  0.68913  Biso   1.000  C
  C226     1.0000 0.51393  0.11387  0.14421  Biso   1.000  C
  C227     1.0000 0.26660  0.81940  0.47754  Biso   1.000  C
  C228     1.0000 0.55280  0.73340  0.47754  Biso   1.000  C
  C229     1.0000 0.15273  0.93327  0.68913  Biso   1.000  C
  C230     1.0000 0.06673  0.21947  0.68913  Biso   1.000  C
  C231     1.0000 0.59993  0.48607  0.14421  Biso   1.000  C
  C232     1.0000 0.88613  0.40007  0.14421  Biso   1.000  C
  C233     1.0000 0.93327  0.15273  0.81087  Biso   1.000  C
  C234     1.0000 0.21947  0.06673  0.81087  Biso   1.000  C
  C235     1.0000 0.55280  0.81940  0.97754  Biso   1.000  C
  C236     1.0000 0.18060  0.73340  0.97754  Biso   1.000  C
  C237     1.0000 0.26660  0.44720  0.97754  Biso   1.000  C
  C238     1.0000 0.81940  0.55280  0.52246  Biso   1.000  C
  C239     1.0000 0.21947  0.15273  0.31087  Biso   1.000  C
  C240     1.0000 0.84727  0.06673  0.31087  Biso   1.000  C
  C241     1.0000 0.93327  0.78053  0.31087  Biso   1.000  C
  C242     1.0000 0.48607  0.88613  0.85579  Biso   1.000  C
  C243     1.0000 0.88613  0.48607  0.64421  Biso   1.000  C
  C244     1.0000 0.15273  0.21947  0.18913  Biso   1.000  C
  C245     1.0000 0.73340  0.18060  0.52246  Biso   1.000  C
  C246     1.0000 0.44720  0.26660  0.52246  Biso   1.000  C
  C247     1.0000 0.51393  0.40007  0.64421  Biso   1.000  C
  C248     1.0000 0.59993  0.11387  0.64421  Biso   1.000  C
  C249     1.0000 0.06673  0.84727  0.18913  Biso   1.000  C
  C250     1.0000 0.78053  0.93327  0.18913  Biso   1.000  C
  C251     1.0000 0.40007  0.51393  0.85579  Biso   1.000  C
  C252     1.0000 0.11387  0.59993  0.85579  Biso   1.000  C
  C253     1.0000 0.22680  0.07130  0.11455  Biso   1.000  C
  C254     1.0000 0.92870  0.15550  0.11455  Biso   1.000  C
  C255     1.0000 0.84450  0.77320  0.11455  Biso   1.000  C
  C256     1.0000 0.07130  0.22680  0.38545  Biso   1.000  C
  C257     1.0000 0.89347  0.40463  0.44788  Biso   1.000  C
  C258     1.0000 0.59537  0.48883  0.44788  Biso   1.000  C
  C259     1.0000 0.51117  0.10653  0.44788  Biso   1.000  C
  C260     1.0000 0.73797  0.56013  0.71878  Biso   1.000  C
  C261     1.0000 0.56013  0.73797  0.78122  Biso   1.000  C
  C262     1.0000 0.40463  0.89347  0.05212  Biso   1.000  C
  C263     1.0000 0.15550  0.92870  0.38545  Biso   1.000  C
  C264     1.0000 0.77320  0.84450  0.38545  Biso   1.000  C
  C265     1.0000 0.26203  0.82217  0.78122  Biso   1.000  C
  C266     1.0000 0.17783  0.43987  0.78122  Biso   1.000  C
  C267     1.0000 0.48883  0.59537  0.05212  Biso   1.000  C
  C268     1.0000 0.10653  0.51117  0.05212  Biso   1.000  C
  C269     1.0000 0.82217  0.26203  0.71878  Biso   1.000  C
  C270     1.0000 0.43987  0.17783  0.71878  Biso   1.000  C
  C271     1.0000 0.77320  0.92870  0.88545  Biso   1.000  C
  C272     1.0000 0.07130  0.84450  0.88545  Biso   1.000  C
  C273     1.0000 0.15550  0.22680  0.88545  Biso   1.000  C
  C274     1.0000 0.92870  0.77320  0.61455  Biso   1.000  C
  C275     1.0000 0.43987  0.26203  0.21878  Biso   1.000  C
  C276     1.0000 0.73797  0.17783  0.21878  Biso   1.000  C
  C277     1.0000 0.82217  0.56013  0.21878  Biso   1.000  C
  C278     1.0000 0.59537  0.10653  0.94788  Biso   1.000  C
  C279     1.0000 0.10653  0.59537  0.55212  Biso   1.000  C
  C280     1.0000 0.26203  0.43987  0.28122  Biso   1.000  C
  C281     1.0000 0.84450  0.07130  0.61455  Biso   1.000  C
  C282     1.0000 0.22680  0.15550  0.61455  Biso   1.000  C
  C283     1.0000 0.40463  0.51117  0.55212  Biso   1.000  C
  C284     1.0000 0.48883  0.89347  0.55212  Biso   1.000  C
  C285     1.0000 0.17783  0.73797  0.28122  Biso   1.000  C
  C286     1.0000 0.56013  0.82217  0.28122  Biso   1.000  C
  C287     1.0000 0.51117  0.40463  0.94788  Biso   1.000  C
  C288     1.0000 0.89347  0.48883  0.94788  Biso   1.000  C
