data_image0
_cell_length_a       11.0119
_cell_length_b       12.8729
_cell_length_c       13.295
_cell_angle_alpha    75.334
_cell_angle_beta     81.53
_cell_angle_gamma    69.204

_symmetry_space_group_name_H-M    "P 1"
_symmetry_int_tables_number       1

loop_
  _symmetry_equiv_pos_as_xyz
  'x, y, z'

loop_
  _atom_site_label
  _atom_site_occupancy
  _atom_site_fract_x
  _atom_site_fract_y
  _atom_site_fract_z
  _atom_site_thermal_displace_type
  _atom_site_B_iso_or_equiv
  _atom_site_type_symbol
  Gd1      1.0000 0.95331  0.31779  0.30146  Biso   1.000  Gd
  Gd2      1.0000 0.04669  0.68221  0.69854  Biso   1.000  Gd
  Cu1      1.0000 0.00000  0.50000  0.50000  Biso   1.000  Cu
  Cu2      1.0000 0.67394  0.37585  0.11072  Biso   1.000  Cu
  Cu3      1.0000 0.32606  0.62415  0.88928  Biso   1.000  Cu
  O1       1.0000 0.74730  0.47020  0.28040  Biso   1.000  O
  O2       1.0000 0.25270  0.52980  0.71960  Biso   1.000  O
  O3       1.0000 0.57790  0.45420  0.21750  Biso   1.000  O
  O4       1.0000 0.42210  0.54580  0.78250  Biso   1.000  O
  O5       1.0000 0.17010  0.51580  0.44340  Biso   1.000  O
  O6       1.0000 0.82990  0.48420  0.55660  Biso   1.000  O
  O7       1.0000 0.11310  0.65430  0.52940  Biso   1.000  O
  O8       1.0000 0.88690  0.34570  0.47060  Biso   1.000  O
  O9       1.0000 0.00510  0.48300  0.27720  Biso   1.000  O
  O10      1.0000 0.99490  0.51700  0.72280  Biso   1.000  O
  O11      1.0000 0.91960  0.60950  0.37650  Biso   1.000  O
  O12      1.0000 0.08040  0.39050  0.62350  Biso   1.000  O
  O13      1.0000 0.05840  0.63630  0.89120  Biso   1.000  O
  O14      1.0000 0.94160  0.36370  0.10880  Biso   1.000  O
  O15      1.0000 0.90550  0.79120  0.82250  Biso   1.000  O
  O16      1.0000 0.09450  0.20880  0.17750  Biso   1.000  O
  O17      1.0000 0.81080  0.22020  0.30430  Biso   1.000  O
  O18      1.0000 0.18920  0.77980  0.69570  Biso   1.000  O
  O19      1.0000 0.66930  0.23190  0.19600  Biso   1.000  O
  O20      1.0000 0.33070  0.76810  0.80400  Biso   1.000  O
  O21      1.0000 0.94800  0.86860  0.58350  Biso   1.000  O
  O22      1.0000 0.05200  0.13140  0.41650  Biso   1.000  O
  O23      1.0000 0.83360  0.75270  0.62210  Biso   1.000  O
  O24      1.0000 0.16640  0.24730  0.37790  Biso   1.000  O
  N1       1.0000 0.74290  0.30750  0.98830  Biso   1.000  N
  N2       1.0000 0.25710  0.69250  0.01170  Biso   1.000  N
  N3       1.0000 0.65600  0.51940  0.00240  Biso   1.000  N
  N4       1.0000 0.34400  0.48060  0.99760  Biso   1.000  N
  C1       1.0000 0.62810  0.48910  0.27700  Biso   1.000  C
  C2       1.0000 0.37190  0.51090  0.72300  Biso   1.000  C
  C3       1.0000 0.53200  0.56120  0.34590  Biso   1.000  C
  C4       1.0000 0.46800  0.43880  0.65410  Biso   1.000  C
  C5       1.0000 0.56140  0.64270  0.37980  Biso   1.000  C
  C6       1.0000 0.43860  0.35730  0.62020  Biso   1.000  C
  H1       1.0000 0.64210  0.65250  0.36160  Biso   1.000  H
  H2       1.0000 0.35790  0.34750  0.63840  Biso   1.000  H
  C7       1.0000 0.46940  0.70890  0.44080  Biso   1.000  C
  C8       1.0000 0.53060  0.29110  0.55920  Biso   1.000  C
  H3       1.0000 0.48810  0.76430  0.46280  Biso   1.000  H
  H4       1.0000 0.51190  0.23570  0.53720  Biso   1.000  H
  C9       1.0000 0.35060  0.69410  0.46950  Biso   1.000  C
  C10      1.0000 0.64940  0.30590  0.53050  Biso   1.000  C
  H5       1.0000 0.28930  0.74010  0.50990  Biso   1.000  H
  H6       1.0000 0.71070  0.25990  0.49010  Biso   1.000  H
  C11      1.0000 0.32130  0.61070  0.43840  Biso   1.000  C
  C12      1.0000 0.67870  0.38930  0.56160  Biso   1.000  C
  C13      1.0000 0.19370  0.59230  0.47330  Biso   1.000  C
  C14      1.0000 0.80630  0.40770  0.52670  Biso   1.000  C
  C15      1.0000 0.41190  0.54520  0.37600  Biso   1.000  C
  C16      1.0000 0.58810  0.45480  0.62400  Biso   1.000  C
  H7       1.0000 0.39280  0.49000  0.35390  Biso   1.000  H
  H8       1.0000 0.60720  0.51000  0.64610  Biso   1.000  H
  C17      1.0000 0.94290  0.58150  0.28930  Biso   1.000  C
  C18      1.0000 0.05710  0.41850  0.71070  Biso   1.000  C
  C19      1.0000 0.89790  0.67360  0.19470  Biso   1.000  C
  C20      1.0000 0.10210  0.32640  0.80530  Biso   1.000  C
  C21      1.0000 0.81820  0.78180  0.20560  Biso   1.000  C
  C22      1.0000 0.18180  0.21820  0.79440  Biso   1.000  C
  H9       1.0000 0.79160  0.79700  0.27160  Biso   1.000  H
  H10      1.0000 0.20840  0.20300  0.72840  Biso   1.000  H
  C23      1.0000 0.77820  0.86740  0.11740  Biso   1.000  C
  C24      1.0000 0.22180  0.13260  0.88260  Biso   1.000  C
  H11      1.0000 0.72120  0.93870  0.12470  Biso   1.000  H
  H12      1.0000 0.27880  0.06130  0.87530  Biso   1.000  H
  C25      1.0000 0.82200  0.84760  0.02040  Biso   1.000  C
  C26      1.0000 0.17800  0.15240  0.97960  Biso   1.000  C
  H13      1.0000 0.79560  0.90570  0.96210  Biso   1.000  H
  H14      1.0000 0.20440  0.09430  0.03790  Biso   1.000  H
  C27      1.0000 0.90650  0.74000  0.00810  Biso   1.000  C
  C28      1.0000 0.09350  0.26000  0.99190  Biso   1.000  C
  C29      1.0000 0.95980  0.72100  0.90220  Biso   1.000  C
  C30      1.0000 0.04020  0.27900  0.09780  Biso   1.000  C
  C31      1.0000 0.94070  0.65370  0.09620  Biso   1.000  C
  C32      1.0000 0.05930  0.34630  0.90380  Biso   1.000  C
  H15      1.0000 0.99340  0.58110  0.08880  Biso   1.000  H
  H16      1.0000 0.00660  0.41890  0.91120  Biso   1.000  H
  C33      1.0000 0.73100  0.18460  0.27700  Biso   1.000  C
  C34      1.0000 0.26900  0.81540  0.72300  Biso   1.000  C
  C35      1.0000 0.70560  0.08060  0.34480  Biso   1.000  C
  C36      1.0000 0.29440  0.91940  0.65520  Biso   1.000  C
  C37      1.0000 0.60690  0.04790  0.32310  Biso   1.000  C
  C38      1.0000 0.39310  0.95210  0.67690  Biso   1.000  C
  H17      1.0000 0.55450  0.09180  0.26840  Biso   1.000  H
  H18      1.0000 0.44550  0.90820  0.73160  Biso   1.000  H
  C39      1.0000 0.58670  0.95040  0.38260  Biso   1.000  C
  C40      1.0000 0.41330  0.04960  0.61740  Biso   1.000  C
  H19      1.0000 0.51990  0.92890  0.36850  Biso   1.000  H
  H20      1.0000 0.48010  0.07110  0.63150  Biso   1.000  H
  C41      1.0000 0.66470  0.88470  0.46290  Biso   1.000  C
  C42      1.0000 0.33530  0.11530  0.53710  Biso   1.000  C
  H21      1.0000 0.65080  0.81880  0.50270  Biso   1.000  H
  H22      1.0000 0.34920  0.18120  0.49730  Biso   1.000  H
  C43      1.0000 0.76310  0.91640  0.48430  Biso   1.000  C
  C44      1.0000 0.23690  0.08360  0.51570  Biso   1.000  C
  C45      1.0000 0.85220  0.84120  0.56920  Biso   1.000  C
  C46      1.0000 0.14780  0.15880  0.43080  Biso   1.000  C
  C47      1.0000 0.78360  0.01600  0.42580  Biso   1.000  C
  C48      1.0000 0.21640  0.98400  0.57420  Biso   1.000  C
  H23      1.0000 0.84890  0.03850  0.44120  Biso   1.000  H
  H24      1.0000 0.15110  0.96150  0.55880  Biso   1.000  H
  C49      1.0000 0.78670  0.19690  0.98820  Biso   1.000  C
  C50      1.0000 0.21330  0.80310  0.01180  Biso   1.000  C
  H25      1.0000 0.78340  0.14490  0.05060  Biso   1.000  H
  H26      1.0000 0.21660  0.85510  0.94940  Biso   1.000  H
  C51      1.0000 0.83680  0.15720  0.89900  Biso   1.000  C
  C52      1.0000 0.16320  0.84280  0.10100  Biso   1.000  C
  H27      1.0000 0.86560  0.07960  0.90060  Biso   1.000  H
  H28      1.0000 0.13440  0.92040  0.09940  Biso   1.000  H
  C53      1.0000 0.84350  0.23340  0.80820  Biso   1.000  C
  C54      1.0000 0.15650  0.76660  0.19180  Biso   1.000  C
  H29      1.0000 0.87890  0.20790  0.74740  Biso   1.000  H
  H30      1.0000 0.12110  0.79210  0.25260  Biso   1.000  H
  C55      1.0000 0.79870  0.34650  0.80620  Biso   1.000  C
  C56      1.0000 0.20130  0.65350  0.19380  Biso   1.000  C
  H31      1.0000 0.80140  0.39890  0.74400  Biso   1.000  H
  H32      1.0000 0.19860  0.60110  0.25600  Biso   1.000  H
  C57      1.0000 0.74900  0.38290  0.89750  Biso   1.000  C
  C58      1.0000 0.25100  0.61710  0.10250  Biso   1.000  C
  C59      1.0000 0.70220  0.50110  0.90580  Biso   1.000  C
  C60      1.0000 0.29780  0.49890  0.09420  Biso   1.000  C
  C61      1.0000 0.70330  0.59290  0.82310  Biso   1.000  C
  C62      1.0000 0.29670  0.40710  0.17690  Biso   1.000  C
  H33      1.0000 0.73640  0.58080  0.75700  Biso   1.000  H
  H34      1.0000 0.26360  0.41920  0.24300  Biso   1.000  H
  C63      1.0000 0.65570  0.69980  0.84040  Biso   1.000  C
  C64      1.0000 0.34430  0.30020  0.15960  Biso   1.000  C
  H35      1.0000 0.65540  0.76150  0.78580  Biso   1.000  H
  H36      1.0000 0.34460  0.23850  0.21420  Biso   1.000  H
  C65      1.0000 0.60810  0.71750  0.93760  Biso   1.000  C
  C66      1.0000 0.39190  0.28250  0.06240  Biso   1.000  C
  H37      1.0000 0.57540  0.79070  0.94990  Biso   1.000  H
  H38      1.0000 0.42460  0.20930  0.05010  Biso   1.000  H
  C67      1.0000 0.60940  0.62530  0.01700  Biso   1.000  C
  C68      1.0000 0.39060  0.37470  0.98300  Biso   1.000  C
  H39      1.0000 0.57660  0.63730  0.08330  Biso   1.000  H
  H40      1.0000 0.42340  0.36270  0.91670  Biso   1.000  H
  O25      1.0000 0.10140  0.91600  0.36960  Biso   1.000  O
  O26      1.0000 0.89860  0.08400  0.63040  Biso   1.000  O
  H41      1.0000 0.05840  0.94030  0.42530  Biso   1.000  H
  H42      1.0000 0.94160  0.05970  0.57470  Biso   1.000  H
  H43      1.0000 0.14960  0.95230  0.32990  Biso   1.000  H
  H44      1.0000 0.85040  0.04770  0.67010  Biso   1.000  H
  O27      1.0000 0.70160  0.00240  0.75660  Biso   1.000  O
  O28      1.0000 0.29840  0.99760  0.24340  Biso   1.000  O
  H45      1.0000 0.74380  0.92980  0.77160  Biso   1.000  H
  H46      1.0000 0.25620  0.07020  0.22840  Biso   1.000  H
  H47      1.0000 0.64620  0.03330  0.80690  Biso   1.000  H
  H48      1.0000 0.35380  0.96670  0.19310  Biso   1.000  H
  O29      1.0000 0.53750  0.09080  0.91800  Biso   1.000  O
  O30      1.0000 0.46250  0.90920  0.08200  Biso   1.000  O
  H49      1.0000 0.51430  0.14120  0.86130  Biso   1.000  H
  H50      1.0000 0.48570  0.85880  0.13870  Biso   1.000  H
  H51      1.0000 0.51020  0.03430  0.93200  Biso   1.000  H
  H52      1.0000 0.48980  0.96570  0.06800  Biso   1.000  H
