data_image0
_cell_length_a       10.9774
_cell_length_b       12.8338
_cell_length_c       13.234
_cell_angle_alpha    75.135
_cell_angle_beta     80.874
_cell_angle_gamma    69.436

_symmetry_space_group_name_H-M    "P 1"
_symmetry_int_tables_number       1

loop_
  _symmetry_equiv_pos_as_xyz
  'x, y, z'

loop_
  _atom_site_label
  _atom_site_occupancy
  _atom_site_fract_x
  _atom_site_fract_y
  _atom_site_fract_z
  _atom_site_thermal_displace_type
  _atom_site_B_iso_or_equiv
  _atom_site_type_symbol
  Yb1      1.0000 0.95196  0.81830  0.30660  Biso   1.000  Yb
  Yb2      1.0000 0.04804  0.18170  0.69340  Biso   1.000  Yb
  Cu1      1.0000 0.68277  0.87713  0.11180  Biso   1.000  Cu
  Cu2      1.0000 0.31723  0.12287  0.88820  Biso   1.000  Cu
  Cu3      1.0000 0.00000  0.00000  0.50000  Biso   1.000  Cu
  O1       1.0000 0.04620  0.63610  0.41560  Biso   1.000  O
  O2       1.0000 0.95380  0.36390  0.58440  Biso   1.000  O
  O3       1.0000 0.15900  0.75400  0.37960  Biso   1.000  O
  O4       1.0000 0.84100  0.24600  0.62040  Biso   1.000  O
  O5       1.0000 0.31950  0.26880  0.80270  Biso   1.000  O
  O6       1.0000 0.68050  0.73120  0.19730  Biso   1.000  O
  O7       1.0000 0.18360  0.27930  0.68960  Biso   1.000  O
  O8       1.0000 0.81640  0.72070  0.31040  Biso   1.000  O
  O9       1.0000 0.00700  0.97580  0.27350  Biso   1.000  O
  O10      1.0000 0.99300  0.02420  0.72650  Biso   1.000  O
  O11      1.0000 0.92540  0.10520  0.37210  Biso   1.000  O
  O12      1.0000 0.07460  0.89480  0.62790  Biso   1.000  O
  O13      1.0000 0.07040  0.13430  0.88210  Biso   1.000  O
  O14      1.0000 0.92960  0.86570  0.11790  Biso   1.000  O
  O15      1.0000 0.90930  0.28120  0.81650  Biso   1.000  O
  O16      1.0000 0.09070  0.71880  0.18350  Biso   1.000  O
  O17      1.0000 0.75350  0.96620  0.29090  Biso   1.000  O
  O18      1.0000 0.24650  0.03380  0.70910  Biso   1.000  O
  O19      1.0000 0.58770  0.95440  0.21980  Biso   1.000  O
  O20      1.0000 0.41230  0.04560  0.78020  Biso   1.000  O
  O21      1.0000 0.17210  0.01430  0.44540  Biso   1.000  O
  O22      1.0000 0.82790  0.98570  0.55460  Biso   1.000  O
  O23      1.0000 0.11020  0.15660  0.52840  Biso   1.000  O
  O24      1.0000 0.88980  0.84340  0.47160  Biso   1.000  O
  N1       1.0000 0.65710  0.02130  0.00270  Biso   1.000  N
  N2       1.0000 0.34290  0.97870  0.99730  Biso   1.000  N
  N3       1.0000 0.74360  0.80960  0.98700  Biso   1.000  N
  N4       1.0000 0.25640  0.19040  0.01300  Biso   1.000  N
  C1       1.0000 0.14240  0.66230  0.43100  Biso   1.000  C
  C2       1.0000 0.85760  0.33770  0.56900  Biso   1.000  C
  C3       1.0000 0.23090  0.58650  0.51390  Biso   1.000  C
  C4       1.0000 0.76910  0.41350  0.48610  Biso   1.000  C
  C5       1.0000 0.32910  0.61790  0.53800  Biso   1.000  C
  C6       1.0000 0.67090  0.38210  0.46200  Biso   1.000  C
  H1       1.0000 0.34270  0.68510  0.49980  Biso   1.000  H
  H2       1.0000 0.65730  0.31490  0.50020  Biso   1.000  H
  C7       1.0000 0.40740  0.55050  0.61840  Biso   1.000  C
  C8       1.0000 0.59260  0.44950  0.38160  Biso   1.000  C
  H3       1.0000 0.47500  0.57120  0.63260  Biso   1.000  H
  H4       1.0000 0.52500  0.42880  0.36740  Biso   1.000  H
  C9       1.0000 0.38540  0.45300  0.67730  Biso   1.000  C
  C10      1.0000 0.61460  0.54700  0.32270  Biso   1.000  C
  H5       1.0000 0.43630  0.40920  0.73270  Biso   1.000  H
  H6       1.0000 0.56370  0.59080  0.26730  Biso   1.000  H
  C11      1.0000 0.28690  0.41930  0.65420  Biso   1.000  C
  C12      1.0000 0.71310  0.58070  0.34580  Biso   1.000  C
  C13      1.0000 0.21170  0.48610  0.57150  Biso   1.000  C
  C14      1.0000 0.78830  0.51390  0.42850  Biso   1.000  C
  H7       1.0000 0.14740  0.46330  0.55450  Biso   1.000  H
  H8       1.0000 0.85260  0.53670  0.44550  Biso   1.000  H
  C15      1.0000 0.26140  0.31380  0.72030  Biso   1.000  C
  C16      1.0000 0.73860  0.68620  0.27970  Biso   1.000  C
  C17      1.0000 0.94810  0.07590  0.28460  Biso   1.000  C
  C18      1.0000 0.05190  0.92410  0.71540  Biso   1.000  C
  C19      1.0000 0.90420  0.16800  0.18980  Biso   1.000  C
  C20      1.0000 0.09580  0.83200  0.81020  Biso   1.000  C
  C21      1.0000 0.82370  0.27660  0.20020  Biso   1.000  C
  C22      1.0000 0.17630  0.72340  0.79980  Biso   1.000  C
  H9       1.0000 0.79490  0.29140  0.26670  Biso   1.000  H
  H10      1.0000 0.20510  0.70860  0.73330  Biso   1.000  H
  C23      1.0000 0.78620  0.36230  0.11290  Biso   1.000  C
  C24      1.0000 0.21380  0.63770  0.88710  Biso   1.000  C
  H11      1.0000 0.73130  0.43440  0.12030  Biso   1.000  H
  H12      1.0000 0.26870  0.56560  0.87970  Biso   1.000  H
  C25      1.0000 0.83070  0.34090  0.01370  Biso   1.000  C
  C26      1.0000 0.16930  0.65910  0.98630  Biso   1.000  C
  H13      1.0000 0.80390  0.39830  0.95470  Biso   1.000  H
  H14      1.0000 0.19610  0.60170  0.04530  Biso   1.000  H
  C27      1.0000 0.91410  0.23530  0.00220  Biso   1.000  C
  C28      1.0000 0.08590  0.76470  0.99780  Biso   1.000  C
  C29      1.0000 0.94770  0.14780  0.09050  Biso   1.000  C
  C30      1.0000 0.05230  0.85220  0.90950  Biso   1.000  C
  H15      1.0000 0.99990  0.07510  0.08260  Biso   1.000  H
  H16      1.0000 0.00010  0.92490  0.91740  Biso   1.000  H
  C31      1.0000 0.96800  0.21530  0.89480  Biso   1.000  C
  C32      1.0000 0.03200  0.78470  0.10520  Biso   1.000  C
  C33      1.0000 0.63490  0.98740  0.28270  Biso   1.000  C
  C34      1.0000 0.36510  0.01260  0.71730  Biso   1.000  C
  C35      1.0000 0.53580  0.06120  0.34850  Biso   1.000  C
  C36      1.0000 0.46420  0.93880  0.65150  Biso   1.000  C
  C37      1.0000 0.56300  0.14490  0.38270  Biso   1.000  C
  C38      1.0000 0.43700  0.85510  0.61730  Biso   1.000  C
  H17      1.0000 0.64450  0.15440  0.36580  Biso   1.000  H
  H18      1.0000 0.35550  0.84560  0.63420  Biso   1.000  H
  C39      1.0000 0.46880  0.21280  0.44130  Biso   1.000  C
  C40      1.0000 0.53120  0.78720  0.55870  Biso   1.000  C
  H19      1.0000 0.48600  0.26970  0.46240  Biso   1.000  H
  H20      1.0000 0.51400  0.73030  0.53760  Biso   1.000  H
  C41      1.0000 0.34900  0.19710  0.46900  Biso   1.000  C
  C42      1.0000 0.65100  0.80290  0.53100  Biso   1.000  C
  H21      1.0000 0.28590  0.24380  0.50840  Biso   1.000  H
  H22      1.0000 0.71410  0.75620  0.49160  Biso   1.000  H
  C43      1.0000 0.32120  0.11260  0.43890  Biso   1.000  C
  C44      1.0000 0.67880  0.88740  0.56110  Biso   1.000  C
  C45      1.0000 0.41540  0.04530  0.37790  Biso   1.000  C
  C46      1.0000 0.58460  0.95470  0.62210  Biso   1.000  C
  H23      1.0000 0.39750  0.98880  0.35660  Biso   1.000  H
  H24      1.0000 0.60250  0.01120  0.64340  Biso   1.000  H
  C47      1.0000 0.19320  0.09270  0.47390  Biso   1.000  C
  C48      1.0000 0.80680  0.90730  0.52610  Biso   1.000  C
  C49      1.0000 0.60840  0.12710  0.01840  Biso   1.000  C
  C50      1.0000 0.39160  0.87290  0.98160  Biso   1.000  C
  H25      1.0000 0.57670  0.13800  0.08570  Biso   1.000  H
  H26      1.0000 0.42330  0.86200  0.91430  Biso   1.000  H
  C51      1.0000 0.60360  0.22120  0.93790  Biso   1.000  C
  C52      1.0000 0.39640  0.77880  0.06210  Biso   1.000  C
  H27      1.0000 0.56920  0.29450  0.95050  Biso   1.000  H
  H28      1.0000 0.43080  0.70550  0.04950  Biso   1.000  H
  C53      1.0000 0.65030  0.20440  0.83970  Biso   1.000  C
  C54      1.0000 0.34970  0.79560  0.16030  Biso   1.000  C
  H29      1.0000 0.64970  0.26650  0.78480  Biso   1.000  H
  H30      1.0000 0.35030  0.73350  0.21520  Biso   1.000  H
  C55      1.0000 0.69790  0.09690  0.82150  Biso   1.000  C
  C56      1.0000 0.30210  0.90310  0.17850  Biso   1.000  C
  H31      1.0000 0.72920  0.08520  0.75440  Biso   1.000  H
  H32      1.0000 0.27080  0.91480  0.24560  Biso   1.000  H
  C57      1.0000 0.69910  0.00530  0.90470  Biso   1.000  C
  C58      1.0000 0.30090  0.99470  0.09530  Biso   1.000  C
  C59      1.0000 0.74710  0.88630  0.89600  Biso   1.000  C
  C60      1.0000 0.25290  0.11370  0.10400  Biso   1.000  C
  C61      1.0000 0.79310  0.85120  0.80300  Biso   1.000  C
  C62      1.0000 0.20690  0.14880  0.19700  Biso   1.000  C
  H33      1.0000 0.79320  0.90450  0.74040  Biso   1.000  H
  H34      1.0000 0.20680  0.09550  0.25960  Biso   1.000  H
  C63      1.0000 0.83870  0.73730  0.80360  Biso   1.000  C
  C64      1.0000 0.16130  0.26270  0.19640  Biso   1.000  C
  H35      1.0000 0.87260  0.71270  0.74160  Biso   1.000  H
  H36      1.0000 0.12740  0.28730  0.25840  Biso   1.000  H
  C65      1.0000 0.83440  0.66020  0.89500  Biso   1.000  C
  C66      1.0000 0.16560  0.33980  0.10500  Biso   1.000  C
  H37      1.0000 0.86250  0.58260  0.89610  Biso   1.000  H
  H38      1.0000 0.13750  0.41740  0.10390  Biso   1.000  H
  C67      1.0000 0.78720  0.69940  0.98660  Biso   1.000  C
  C68      1.0000 0.21280  0.30060  0.01340  Biso   1.000  C
  H39      1.0000 0.78600  0.64680  0.04960  Biso   1.000  H
  H40      1.0000 0.21400  0.35320  0.95040  Biso   1.000  H
  O25      1.0000 0.70110  0.49330  0.75710  Biso   1.000  O
  O26      1.0000 0.29890  0.50670  0.24290  Biso   1.000  O
  O27      1.0000 0.10160  0.42230  0.36590  Biso   1.000  O
  O28      1.0000 0.89840  0.57770  0.63410  Biso   1.000  O
  O29      1.0000 0.53830  0.58600  0.91360  Biso   1.000  O
  O30      1.0000 0.46170  0.41400  0.08640  Biso   1.000  O
