data_image0
_cell_length_a       13.1118
_cell_length_b       13.1118
_cell_length_c       46.936
_cell_angle_alpha    90
_cell_angle_beta     90
_cell_angle_gamma    120

_symmetry_space_group_name_H-M    "P 1"
_symmetry_int_tables_number       1

loop_
  _symmetry_equiv_pos_as_xyz
  'x, y, z'

loop_
  _atom_site_label
  _atom_site_occupancy
  _atom_site_fract_x
  _atom_site_fract_y
  _atom_site_fract_z
  _atom_site_thermal_displace_type
  _atom_site_B_iso_or_equiv
  _atom_site_type_symbol
  Eu1      1.0000 0.33330  0.66670  0.00671  Biso   1.000  Eu
  Eu2      1.0000 0.66670  0.33330  0.49329  Biso   1.000  Eu
  Eu3      1.0000 0.99997  0.00003  0.34005  Biso   1.000  Eu
  Eu4      1.0000 0.33337  0.66663  0.82662  Biso   1.000  Eu
  Eu5      1.0000 0.66663  0.33337  0.67338  Biso   1.000  Eu
  Eu6      1.0000 0.00003  0.99997  0.15995  Biso   1.000  Eu
  Eu7      1.0000 0.66670  0.33330  0.99329  Biso   1.000  Eu
  Eu8      1.0000 0.33330  0.66670  0.50671  Biso   1.000  Eu
  Eu9      1.0000 0.33337  0.66663  0.32662  Biso   1.000  Eu
  Eu10     1.0000 0.99997  0.00003  0.84005  Biso   1.000  Eu
  Eu11     1.0000 0.00003  0.99997  0.65995  Biso   1.000  Eu
  Eu12     1.0000 0.66663  0.33337  0.17338  Biso   1.000  Eu
  Cu1      1.0000 0.50000  0.00000  0.00000  Biso   1.000  Cu
  Cu2      1.0000 0.00000  0.50000  0.00000  Biso   1.000  Cu
  Cu3      1.0000 0.50000  0.50000  0.00000  Biso   1.000  Cu
  Cu4      1.0000 0.00000  0.50000  0.50000  Biso   1.000  Cu
  Cu5      1.0000 0.16667  0.33333  0.33333  Biso   1.000  Cu
  Cu6      1.0000 0.66667  0.83333  0.33333  Biso   1.000  Cu
  Cu7      1.0000 0.16667  0.83333  0.33333  Biso   1.000  Cu
  Cu8      1.0000 0.66667  0.83333  0.83333  Biso   1.000  Cu
  Cu9      1.0000 0.83333  0.66667  0.66667  Biso   1.000  Cu
  Cu10     1.0000 0.33333  0.16667  0.16667  Biso   1.000  Cu
  Cu11     1.0000 0.50000  0.00000  0.50000  Biso   1.000  Cu
  Cu12     1.0000 0.50000  0.50000  0.50000  Biso   1.000  Cu
  Cu13     1.0000 0.33333  0.16667  0.66667  Biso   1.000  Cu
  Cu14     1.0000 0.83333  0.16667  0.66667  Biso   1.000  Cu
  Cu15     1.0000 0.83333  0.66667  0.16667  Biso   1.000  Cu
  Cu16     1.0000 0.83333  0.16667  0.16667  Biso   1.000  Cu
  Cu17     1.0000 0.16667  0.33333  0.83333  Biso   1.000  Cu
  Cu18     1.0000 0.16667  0.83333  0.83333  Biso   1.000  Cu
  O1       1.0000 0.33450  0.80240  0.03886  Biso   1.000  O
  O2       1.0000 0.19760  0.53210  0.03886  Biso   1.000  O
  O3       1.0000 0.46790  0.66550  0.03886  Biso   1.000  O
  O4       1.0000 0.80240  0.33450  0.46114  Biso   1.000  O
  O5       1.0000 0.00117  0.13573  0.37219  Biso   1.000  O
  O6       1.0000 0.86427  0.86543  0.37219  Biso   1.000  O
  O7       1.0000 0.13457  0.99883  0.37219  Biso   1.000  O
  O8       1.0000 0.46907  0.66783  0.79447  Biso   1.000  O
  O9       1.0000 0.66783  0.46907  0.70553  Biso   1.000  O
  O10      1.0000 0.13573  0.00117  0.12781  Biso   1.000  O
  O11      1.0000 0.53210  0.19760  0.46114  Biso   1.000  O
  O12      1.0000 0.66550  0.46790  0.46114  Biso   1.000  O
  O13      1.0000 0.53093  0.19877  0.70553  Biso   1.000  O
  O14      1.0000 0.80123  0.33217  0.70553  Biso   1.000  O
  O15      1.0000 0.86543  0.86427  0.12781  Biso   1.000  O
  O16      1.0000 0.99883  0.13457  0.12781  Biso   1.000  O
  O17      1.0000 0.19877  0.53093  0.79447  Biso   1.000  O
  O18      1.0000 0.33217  0.80123  0.79447  Biso   1.000  O
  O19      1.0000 0.66550  0.19760  0.96114  Biso   1.000  O
  O20      1.0000 0.80240  0.46790  0.96114  Biso   1.000  O
  O21      1.0000 0.53210  0.33450  0.96114  Biso   1.000  O
  O22      1.0000 0.19760  0.66550  0.53886  Biso   1.000  O
  O23      1.0000 0.33217  0.53093  0.29447  Biso   1.000  O
  O24      1.0000 0.46907  0.80123  0.29447  Biso   1.000  O
  O25      1.0000 0.19877  0.66783  0.29447  Biso   1.000  O
  O26      1.0000 0.86427  0.99883  0.87219  Biso   1.000  O
  O27      1.0000 0.99883  0.86427  0.62781  Biso   1.000  O
  O28      1.0000 0.53093  0.33217  0.20553  Biso   1.000  O
  O29      1.0000 0.46790  0.80240  0.53886  Biso   1.000  O
  O30      1.0000 0.33450  0.53210  0.53886  Biso   1.000  O
  O31      1.0000 0.13573  0.13457  0.62781  Biso   1.000  O
  O32      1.0000 0.86543  0.00117  0.62781  Biso   1.000  O
  O33      1.0000 0.80123  0.46907  0.20553  Biso   1.000  O
  O34      1.0000 0.66783  0.19877  0.20553  Biso   1.000  O
  O35      1.0000 0.13457  0.13573  0.87219  Biso   1.000  O
  O36      1.0000 0.00117  0.86543  0.87219  Biso   1.000  O
  O37      1.0000 0.48750  0.98500  0.04067  Biso   1.000  O
  O38      1.0000 0.01500  0.50250  0.04067  Biso   1.000  O
  O39      1.0000 0.49750  0.51250  0.04067  Biso   1.000  O
  O40      1.0000 0.98500  0.48750  0.45933  Biso   1.000  O
  O41      1.0000 0.15417  0.31833  0.37400  Biso   1.000  O
  O42      1.0000 0.68167  0.83583  0.37400  Biso   1.000  O
  O43      1.0000 0.16417  0.84583  0.37400  Biso   1.000  O
  O44      1.0000 0.65167  0.82083  0.79266  Biso   1.000  O
  O45      1.0000 0.82083  0.65167  0.70734  Biso   1.000  O
  O46      1.0000 0.31833  0.15417  0.12600  Biso   1.000  O
  O47      1.0000 0.50250  0.01500  0.45933  Biso   1.000  O
  O48      1.0000 0.51250  0.49750  0.45933  Biso   1.000  O
  O49      1.0000 0.34833  0.16917  0.70734  Biso   1.000  O
  O50      1.0000 0.83083  0.17917  0.70734  Biso   1.000  O
  O51      1.0000 0.83583  0.68167  0.12600  Biso   1.000  O
  O52      1.0000 0.84583  0.16417  0.12600  Biso   1.000  O
  O53      1.0000 0.16917  0.34833  0.79266  Biso   1.000  O
  O54      1.0000 0.17917  0.83083  0.79266  Biso   1.000  O
  O55      1.0000 0.51250  0.01500  0.95933  Biso   1.000  O
  O56      1.0000 0.98500  0.49750  0.95933  Biso   1.000  O
  O57      1.0000 0.50250  0.48750  0.95933  Biso   1.000  O
  O58      1.0000 0.01500  0.51250  0.54067  Biso   1.000  O
  O59      1.0000 0.17917  0.34833  0.29266  Biso   1.000  O
  O60      1.0000 0.65167  0.83083  0.29266  Biso   1.000  O
  O61      1.0000 0.16917  0.82083  0.29266  Biso   1.000  O
  O62      1.0000 0.68167  0.84583  0.87400  Biso   1.000  O
  O63      1.0000 0.84583  0.68167  0.62600  Biso   1.000  O
  O64      1.0000 0.34833  0.17917  0.20734  Biso   1.000  O
  O65      1.0000 0.49750  0.98500  0.54067  Biso   1.000  O
  O66      1.0000 0.48750  0.50250  0.54067  Biso   1.000  O
  O67      1.0000 0.31833  0.16417  0.62600  Biso   1.000  O
  O68      1.0000 0.83583  0.15417  0.62600  Biso   1.000  O
  O69      1.0000 0.83083  0.65167  0.20734  Biso   1.000  O
  O70      1.0000 0.82083  0.16917  0.20734  Biso   1.000  O
  O71      1.0000 0.16417  0.31833  0.87400  Biso   1.000  O
  O72      1.0000 0.15417  0.83583  0.87400  Biso   1.000  O
  O73      1.0000 0.62060  0.17370  0.13875  Biso   1.000  O
  O74      1.0000 0.82630  0.44690  0.13875  Biso   1.000  O
  O75      1.0000 0.55310  0.37940  0.13875  Biso   1.000  O
  O76      1.0000 0.17370  0.62060  0.36125  Biso   1.000  O
  O77      1.0000 0.28727  0.50703  0.47208  Biso   1.000  O
  O78      1.0000 0.49297  0.78023  0.47208  Biso   1.000  O
  O79      1.0000 0.21977  0.71273  0.47208  Biso   1.000  O
  O80      1.0000 0.84037  0.95393  0.69458  Biso   1.000  O
  O81      1.0000 0.95393  0.84037  0.80542  Biso   1.000  O
  O82      1.0000 0.50703  0.28727  0.02792  Biso   1.000  O
  O83      1.0000 0.44690  0.82630  0.36125  Biso   1.000  O
  O84      1.0000 0.37940  0.55310  0.36125  Biso   1.000  O
  O85      1.0000 0.15963  0.11357  0.80542  Biso   1.000  O
  O86      1.0000 0.88643  0.04607  0.80542  Biso   1.000  O
  O87      1.0000 0.78023  0.49297  0.02792  Biso   1.000  O
  O88      1.0000 0.71273  0.21977  0.02792  Biso   1.000  O
  O89      1.0000 0.11357  0.15963  0.69458  Biso   1.000  O
  O90      1.0000 0.04607  0.88643  0.69458  Biso   1.000  O
  O91      1.0000 0.37940  0.82630  0.86125  Biso   1.000  O
  O92      1.0000 0.17370  0.55310  0.86125  Biso   1.000  O
  O93      1.0000 0.44690  0.62060  0.86125  Biso   1.000  O
  O94      1.0000 0.82630  0.37940  0.63875  Biso   1.000  O
  O95      1.0000 0.04607  0.15963  0.19458  Biso   1.000  O
  O96      1.0000 0.84037  0.88643  0.19458  Biso   1.000  O
  O97      1.0000 0.11357  0.95393  0.19458  Biso   1.000  O
  O98      1.0000 0.49297  0.71273  0.97208  Biso   1.000  O
  O99      1.0000 0.71273  0.49297  0.52792  Biso   1.000  O
  O100     1.0000 0.15963  0.04607  0.30542  Biso   1.000  O
  O101     1.0000 0.55310  0.17370  0.63875  Biso   1.000  O
  O102     1.0000 0.62060  0.44690  0.63875  Biso   1.000  O
  O103     1.0000 0.50703  0.21977  0.52792  Biso   1.000  O
  O104     1.0000 0.78023  0.28727  0.52792  Biso   1.000  O
  O105     1.0000 0.88643  0.84037  0.30542  Biso   1.000  O
  O106     1.0000 0.95393  0.11357  0.30542  Biso   1.000  O
  O107     1.0000 0.21977  0.50703  0.97208  Biso   1.000  O
  O108     1.0000 0.28727  0.78023  0.97208  Biso   1.000  O
  O109     1.0000 0.47110  0.14520  0.16486  Biso   1.000  O
  O110     1.0000 0.85480  0.32590  0.16486  Biso   1.000  O
  O111     1.0000 0.67410  0.52890  0.16486  Biso   1.000  O
  O112     1.0000 0.14520  0.47110  0.33514  Biso   1.000  O
  O113     1.0000 0.13777  0.47853  0.49819  Biso   1.000  O
  O114     1.0000 0.52147  0.65923  0.49819  Biso   1.000  O
  O115     1.0000 0.34077  0.86223  0.49819  Biso   1.000  O
  O116     1.0000 0.81187  0.80443  0.66847  Biso   1.000  O
  O117     1.0000 0.80443  0.81187  0.83153  Biso   1.000  O
  O118     1.0000 0.47853  0.13777  0.00181  Biso   1.000  O
  O119     1.0000 0.32590  0.85480  0.33514  Biso   1.000  O
  O120     1.0000 0.52890  0.67410  0.33514  Biso   1.000  O
  O121     1.0000 0.18813  0.99257  0.83153  Biso   1.000  O
  O122     1.0000 0.00743  0.19557  0.83153  Biso   1.000  O
  O123     1.0000 0.65923  0.52147  0.00181  Biso   1.000  O
  O124     1.0000 0.86223  0.34077  0.00181  Biso   1.000  O
  O125     1.0000 0.99257  0.18813  0.66847  Biso   1.000  O
  O126     1.0000 0.19557  0.00743  0.66847  Biso   1.000  O
  O127     1.0000 0.52890  0.85480  0.83514  Biso   1.000  O
  O128     1.0000 0.14520  0.67410  0.83514  Biso   1.000  O
  O129     1.0000 0.32590  0.47110  0.83514  Biso   1.000  O
  O130     1.0000 0.85480  0.52890  0.66486  Biso   1.000  O
  O131     1.0000 0.19557  0.18813  0.16847  Biso   1.000  O
  O132     1.0000 0.81187  0.00743  0.16847  Biso   1.000  O
  O133     1.0000 0.99257  0.80443  0.16847  Biso   1.000  O
  O134     1.0000 0.52147  0.86223  0.99819  Biso   1.000  O
  O135     1.0000 0.86223  0.52147  0.50181  Biso   1.000  O
  O136     1.0000 0.18813  0.19557  0.33153  Biso   1.000  O
  O137     1.0000 0.67410  0.14520  0.66486  Biso   1.000  O
  O138     1.0000 0.47110  0.32590  0.66486  Biso   1.000  O
  O139     1.0000 0.47853  0.34077  0.50181  Biso   1.000  O
  O140     1.0000 0.65923  0.13777  0.50181  Biso   1.000  O
  O141     1.0000 0.00743  0.81187  0.33153  Biso   1.000  O
  O142     1.0000 0.80443  0.99257  0.33153  Biso   1.000  O
  O143     1.0000 0.34077  0.47853  0.99819  Biso   1.000  O
  O144     1.0000 0.13777  0.65923  0.99819  Biso   1.000  O
  C1       1.0000 0.38680  0.89840  0.08347  Biso   1.000  C
  C2       1.0000 0.10160  0.48840  0.08347  Biso   1.000  C
  C3       1.0000 0.51160  0.61320  0.08347  Biso   1.000  C
  C4       1.0000 0.89840  0.38680  0.41653  Biso   1.000  C
  C5       1.0000 0.05347  0.23173  0.41680  Biso   1.000  C
  C6       1.0000 0.76827  0.82173  0.41680  Biso   1.000  C
  C7       1.0000 0.17827  0.94653  0.41680  Biso   1.000  C
  C8       1.0000 0.56507  0.72013  0.74986  Biso   1.000  C
  C9       1.0000 0.72013  0.56507  0.75014  Biso   1.000  C
  C10      1.0000 0.23173  0.05347  0.08320  Biso   1.000  C
  C11      1.0000 0.48840  0.10160  0.41653  Biso   1.000  C
  C12      1.0000 0.61320  0.51160  0.41653  Biso   1.000  C
  C13      1.0000 0.43493  0.15507  0.75014  Biso   1.000  C
  C14      1.0000 0.84493  0.27987  0.75014  Biso   1.000  C
  C15      1.0000 0.82173  0.76827  0.08320  Biso   1.000  C
  C16      1.0000 0.94653  0.17827  0.08320  Biso   1.000  C
  C17      1.0000 0.15507  0.43493  0.74986  Biso   1.000  C
  C18      1.0000 0.27987  0.84493  0.74986  Biso   1.000  C
  C19      1.0000 0.61320  0.10160  0.91653  Biso   1.000  C
  C20      1.0000 0.89840  0.51160  0.91653  Biso   1.000  C
  C21      1.0000 0.48840  0.38680  0.91653  Biso   1.000  C
  C22      1.0000 0.10160  0.61320  0.58347  Biso   1.000  C
  C23      1.0000 0.27987  0.43493  0.24986  Biso   1.000  C
  C24      1.0000 0.56507  0.84493  0.24986  Biso   1.000  C
  C25      1.0000 0.15507  0.72013  0.24986  Biso   1.000  C
  C26      1.0000 0.76827  0.94653  0.91680  Biso   1.000  C
  C27      1.0000 0.94653  0.76827  0.58320  Biso   1.000  C
  C28      1.0000 0.43493  0.27987  0.25014  Biso   1.000  C
  C29      1.0000 0.51160  0.89840  0.58347  Biso   1.000  C
  C30      1.0000 0.38680  0.48840  0.58347  Biso   1.000  C
  C31      1.0000 0.23173  0.17827  0.58320  Biso   1.000  C
  C32      1.0000 0.82173  0.05347  0.58320  Biso   1.000  C
  C33      1.0000 0.84493  0.56507  0.25014  Biso   1.000  C
  C34      1.0000 0.72013  0.15507  0.25014  Biso   1.000  C
  C35      1.0000 0.17827  0.23173  0.91680  Biso   1.000  C
  C36      1.0000 0.05347  0.82173  0.91680  Biso   1.000  C
  C37      1.0000 0.46240  0.99670  0.09953  Biso   1.000  C
  C38      1.0000 0.00330  0.46570  0.09953  Biso   1.000  C
  C39      1.0000 0.53430  0.53760  0.09953  Biso   1.000  C
  C40      1.0000 0.99670  0.46240  0.40047  Biso   1.000  C
  C41      1.0000 0.12907  0.33003  0.43286  Biso   1.000  C
  C42      1.0000 0.66997  0.79903  0.43286  Biso   1.000  C
  C43      1.0000 0.20097  0.87093  0.43286  Biso   1.000  C
  C44      1.0000 0.66337  0.79573  0.73380  Biso   1.000  C
  C45      1.0000 0.79573  0.66337  0.76620  Biso   1.000  C
  C46      1.0000 0.33003  0.12907  0.06714  Biso   1.000  C
  C47      1.0000 0.46570  0.00330  0.40047  Biso   1.000  C
  C48      1.0000 0.53760  0.53430  0.40047  Biso   1.000  C
  C49      1.0000 0.33663  0.13237  0.76620  Biso   1.000  C
  C50      1.0000 0.86763  0.20427  0.76620  Biso   1.000  C
  C51      1.0000 0.79903  0.66997  0.06714  Biso   1.000  C
  C52      1.0000 0.87093  0.20097  0.06714  Biso   1.000  C
  C53      1.0000 0.13237  0.33663  0.73380  Biso   1.000  C
  C54      1.0000 0.20427  0.86763  0.73380  Biso   1.000  C
  C55      1.0000 0.53760  0.00330  0.90047  Biso   1.000  C
  C56      1.0000 0.99670  0.53430  0.90047  Biso   1.000  C
  C57      1.0000 0.46570  0.46240  0.90047  Biso   1.000  C
  C58      1.0000 0.00330  0.53760  0.59953  Biso   1.000  C
  C59      1.0000 0.20427  0.33663  0.23380  Biso   1.000  C
  C60      1.0000 0.66337  0.86763  0.23380  Biso   1.000  C
  C61      1.0000 0.13237  0.79573  0.23380  Biso   1.000  C
  C62      1.0000 0.66997  0.87093  0.93286  Biso   1.000  C
  C63      1.0000 0.87093  0.66997  0.56714  Biso   1.000  C
  C64      1.0000 0.33663  0.20427  0.26620  Biso   1.000  C
  C65      1.0000 0.53430  0.99670  0.59953  Biso   1.000  C
  C66      1.0000 0.46240  0.46570  0.59953  Biso   1.000  C
  C67      1.0000 0.33003  0.20097  0.56714  Biso   1.000  C
  C68      1.0000 0.79903  0.12907  0.56714  Biso   1.000  C
  C69      1.0000 0.86763  0.66337  0.26620  Biso   1.000  C
  C70      1.0000 0.79573  0.13237  0.26620  Biso   1.000  C
  C71      1.0000 0.20097  0.33003  0.93286  Biso   1.000  C
  C72      1.0000 0.12907  0.79903  0.93286  Biso   1.000  C
  H1       1.0000 0.53010  0.05730  0.09130  Biso   1.000  H
  H2       1.0000 0.94270  0.47280  0.09130  Biso   1.000  H
  H3       1.0000 0.52720  0.46990  0.09130  Biso   1.000  H
  H4       1.0000 0.05730  0.53010  0.40870  Biso   1.000  H
  H5       1.0000 0.19677  0.39063  0.42463  Biso   1.000  H
  H6       1.0000 0.60937  0.80613  0.42463  Biso   1.000  H
  H7       1.0000 0.19387  0.80323  0.42463  Biso   1.000  H
  H8       1.0000 0.72397  0.86343  0.74203  Biso   1.000  H
  H9       1.0000 0.86343  0.72397  0.75797  Biso   1.000  H
  H10      1.0000 0.39063  0.19677  0.07537  Biso   1.000  H
  H11      1.0000 0.47280  0.94270  0.40870  Biso   1.000  H
  H12      1.0000 0.46990  0.52720  0.40870  Biso   1.000  H
  H13      1.0000 0.27603  0.13947  0.75797  Biso   1.000  H
  H14      1.0000 0.86053  0.13657  0.75797  Biso   1.000  H
  H15      1.0000 0.80613  0.60937  0.07537  Biso   1.000  H
  H16      1.0000 0.80323  0.19387  0.07537  Biso   1.000  H
  H17      1.0000 0.13947  0.27603  0.74203  Biso   1.000  H
  H18      1.0000 0.13657  0.86053  0.74203  Biso   1.000  H
  H19      1.0000 0.46990  0.94270  0.90870  Biso   1.000  H
  H20      1.0000 0.05730  0.52720  0.90870  Biso   1.000  H
  H21      1.0000 0.47280  0.53010  0.90870  Biso   1.000  H
  H22      1.0000 0.94270  0.46990  0.59130  Biso   1.000  H
  H23      1.0000 0.13657  0.27603  0.24203  Biso   1.000  H
  H24      1.0000 0.72397  0.86053  0.24203  Biso   1.000  H
  H25      1.0000 0.13947  0.86343  0.24203  Biso   1.000  H
  H26      1.0000 0.60937  0.80323  0.92463  Biso   1.000  H
  H27      1.0000 0.80323  0.60937  0.57537  Biso   1.000  H
  H28      1.0000 0.27603  0.13657  0.25797  Biso   1.000  H
  H29      1.0000 0.52720  0.05730  0.59130  Biso   1.000  H
  H30      1.0000 0.53010  0.47280  0.59130  Biso   1.000  H
  H31      1.0000 0.39063  0.19387  0.57537  Biso   1.000  H
  H32      1.0000 0.80613  0.19677  0.57537  Biso   1.000  H
  H33      1.0000 0.86053  0.72397  0.25797  Biso   1.000  H
  H34      1.0000 0.86343  0.13947  0.25797  Biso   1.000  H
  H35      1.0000 0.19387  0.39063  0.92463  Biso   1.000  H
  H36      1.0000 0.19677  0.80613  0.92463  Biso   1.000  H
  C73      1.0000 0.43680  0.00440  0.12793  Biso   1.000  C
  C74      1.0000 0.99560  0.43240  0.12793  Biso   1.000  C
  C75      1.0000 0.56760  0.56320  0.12793  Biso   1.000  C
  C76      1.0000 0.00440  0.43680  0.37207  Biso   1.000  C
  C77      1.0000 0.10347  0.33773  0.46126  Biso   1.000  C
  C78      1.0000 0.66227  0.76573  0.46126  Biso   1.000  C
  C79      1.0000 0.23427  0.89653  0.46126  Biso   1.000  C
  C80      1.0000 0.67107  0.77013  0.70540  Biso   1.000  C
  C81      1.0000 0.77013  0.67107  0.79460  Biso   1.000  C
  C82      1.0000 0.33773  0.10347  0.03874  Biso   1.000  C
  C83      1.0000 0.43240  0.99560  0.37207  Biso   1.000  C
  C84      1.0000 0.56320  0.56760  0.37207  Biso   1.000  C
  C85      1.0000 0.32893  0.09907  0.79460  Biso   1.000  C
  C86      1.0000 0.90093  0.22987  0.79460  Biso   1.000  C
  C87      1.0000 0.76573  0.66227  0.03874  Biso   1.000  C
  C88      1.0000 0.89653  0.23427  0.03874  Biso   1.000  C
  C89      1.0000 0.09907  0.32893  0.70540  Biso   1.000  C
  C90      1.0000 0.22987  0.90093  0.70540  Biso   1.000  C
  C91      1.0000 0.56320  0.99560  0.87207  Biso   1.000  C
  C92      1.0000 0.00440  0.56760  0.87207  Biso   1.000  C
  C93      1.0000 0.43240  0.43680  0.87207  Biso   1.000  C
  C94      1.0000 0.99560  0.56320  0.62793  Biso   1.000  C
  C95      1.0000 0.22987  0.32893  0.20540  Biso   1.000  C
  C96      1.0000 0.67107  0.90093  0.20540  Biso   1.000  C
  C97      1.0000 0.09907  0.77013  0.20540  Biso   1.000  C
  C98      1.0000 0.66227  0.89653  0.96126  Biso   1.000  C
  C99      1.0000 0.89653  0.66227  0.53874  Biso   1.000  C
  C100     1.0000 0.32893  0.22987  0.29460  Biso   1.000  C
  C101     1.0000 0.56760  0.00440  0.62793  Biso   1.000  C
  C102     1.0000 0.43680  0.43240  0.62793  Biso   1.000  C
  C103     1.0000 0.33773  0.23427  0.53874  Biso   1.000  C
  C104     1.0000 0.76573  0.10347  0.53874  Biso   1.000  C
  C105     1.0000 0.90093  0.67107  0.29460  Biso   1.000  C
  C106     1.0000 0.77013  0.09907  0.29460  Biso   1.000  C
  C107     1.0000 0.23427  0.33773  0.96126  Biso   1.000  C
  C108     1.0000 0.10347  0.76573  0.96126  Biso   1.000  C
  C109     1.0000 0.33590  0.91280  0.14021  Biso   1.000  C
  C110     1.0000 0.08720  0.42310  0.14021  Biso   1.000  C
  C111     1.0000 0.57690  0.66410  0.14021  Biso   1.000  C
  C112     1.0000 0.91280  0.33590  0.35979  Biso   1.000  C
  C113     1.0000 0.00257  0.24613  0.47354  Biso   1.000  C
  C114     1.0000 0.75387  0.75643  0.47354  Biso   1.000  C
  C115     1.0000 0.24357  0.99743  0.47354  Biso   1.000  C
  C116     1.0000 0.57947  0.66923  0.69312  Biso   1.000  C
  C117     1.0000 0.66923  0.57947  0.80688  Biso   1.000  C
  C118     1.0000 0.24613  0.00257  0.02646  Biso   1.000  C
  C119     1.0000 0.42310  0.08720  0.35979  Biso   1.000  C
  C120     1.0000 0.66410  0.57690  0.35979  Biso   1.000  C
  C121     1.0000 0.42053  0.08977  0.80688  Biso   1.000  C
  C122     1.0000 0.91023  0.33077  0.80688  Biso   1.000  C
  C123     1.0000 0.75643  0.75387  0.02646  Biso   1.000  C
  C124     1.0000 0.99743  0.24357  0.02646  Biso   1.000  C
  C125     1.0000 0.08977  0.42053  0.69312  Biso   1.000  C
  C126     1.0000 0.33077  0.91023  0.69312  Biso   1.000  C
  C127     1.0000 0.66410  0.08720  0.85979  Biso   1.000  C
  C128     1.0000 0.91280  0.57690  0.85979  Biso   1.000  C
  C129     1.0000 0.42310  0.33590  0.85979  Biso   1.000  C
  C130     1.0000 0.08720  0.66410  0.64021  Biso   1.000  C
  C131     1.0000 0.33077  0.42053  0.19312  Biso   1.000  C
  C132     1.0000 0.57947  0.91023  0.19312  Biso   1.000  C
  C133     1.0000 0.08977  0.66923  0.19312  Biso   1.000  C
  C134     1.0000 0.75387  0.99743  0.97354  Biso   1.000  C
  C135     1.0000 0.99743  0.75387  0.52646  Biso   1.000  C
  C136     1.0000 0.42053  0.33077  0.30688  Biso   1.000  C
  C137     1.0000 0.57690  0.91280  0.64021  Biso   1.000  C
  C138     1.0000 0.33590  0.42310  0.64021  Biso   1.000  C
  C139     1.0000 0.24613  0.24357  0.52646  Biso   1.000  C
  C140     1.0000 0.75643  0.00257  0.52646  Biso   1.000  C
  C141     1.0000 0.91023  0.57947  0.30688  Biso   1.000  C
  C142     1.0000 0.66923  0.08977  0.30688  Biso   1.000  C
  C143     1.0000 0.24357  0.24613  0.97354  Biso   1.000  C
  C144     1.0000 0.00257  0.75643  0.97354  Biso   1.000  C
  H37      1.0000 0.31750  0.91830  0.15910  Biso   1.000  H
  H38      1.0000 0.08170  0.39920  0.15910  Biso   1.000  H
  H39      1.0000 0.60080  0.68250  0.15910  Biso   1.000  H
  H40      1.0000 0.91830  0.31750  0.34090  Biso   1.000  H
  H41      1.0000 0.98417  0.25163  0.49243  Biso   1.000  H
  H42      1.0000 0.74837  0.73253  0.49243  Biso   1.000  H
  H43      1.0000 0.26747  0.01583  0.49243  Biso   1.000  H
  H44      1.0000 0.58497  0.65083  0.67423  Biso   1.000  H
  H45      1.0000 0.65083  0.58497  0.82577  Biso   1.000  H
  H46      1.0000 0.25163  0.98417  0.00757  Biso   1.000  H
  H47      1.0000 0.39920  0.08170  0.34090  Biso   1.000  H
  H48      1.0000 0.68250  0.60080  0.34090  Biso   1.000  H
  H49      1.0000 0.41503  0.06587  0.82577  Biso   1.000  H
  H50      1.0000 0.93413  0.34917  0.82577  Biso   1.000  H
  H51      1.0000 0.73253  0.74837  0.00757  Biso   1.000  H
  H52      1.0000 0.01583  0.26747  0.00757  Biso   1.000  H
  H53      1.0000 0.06587  0.41503  0.67423  Biso   1.000  H
  H54      1.0000 0.34917  0.93413  0.67423  Biso   1.000  H
  H55      1.0000 0.68250  0.08170  0.84090  Biso   1.000  H
  H56      1.0000 0.91830  0.60080  0.84090  Biso   1.000  H
  H57      1.0000 0.39920  0.31750  0.84090  Biso   1.000  H
  H58      1.0000 0.08170  0.68250  0.65910  Biso   1.000  H
  H59      1.0000 0.34917  0.41503  0.17423  Biso   1.000  H
  H60      1.0000 0.58497  0.93413  0.17423  Biso   1.000  H
  H61      1.0000 0.06587  0.65083  0.17423  Biso   1.000  H
  H62      1.0000 0.74837  0.01583  0.99243  Biso   1.000  H
  H63      1.0000 0.01583  0.74837  0.50757  Biso   1.000  H
  H64      1.0000 0.41503  0.34917  0.32577  Biso   1.000  H
  H65      1.0000 0.60080  0.91830  0.65910  Biso   1.000  H
  H66      1.0000 0.31750  0.39920  0.65910  Biso   1.000  H
  H67      1.0000 0.25163  0.26747  0.50757  Biso   1.000  H
  H68      1.0000 0.73253  0.98417  0.50757  Biso   1.000  H
  H69      1.0000 0.93413  0.58497  0.32577  Biso   1.000  H
  H70      1.0000 0.65083  0.06587  0.32577  Biso   1.000  H
  H71      1.0000 0.26747  0.25163  0.99243  Biso   1.000  H
  H72      1.0000 0.98417  0.73253  0.99243  Biso   1.000  H
  C145     1.0000 0.26350  0.81390  0.12452  Biso   1.000  C
  C146     1.0000 0.18610  0.44960  0.12452  Biso   1.000  C
  C147     1.0000 0.55040  0.73650  0.12452  Biso   1.000  C
  C148     1.0000 0.81390  0.26350  0.37548  Biso   1.000  C
  C149     1.0000 0.93017  0.14723  0.45785  Biso   1.000  C
  C150     1.0000 0.85277  0.78293  0.45785  Biso   1.000  C
  C151     1.0000 0.21707  0.06983  0.45785  Biso   1.000  C
  C152     1.0000 0.48057  0.59683  0.70881  Biso   1.000  C
  C153     1.0000 0.59683  0.48057  0.79119  Biso   1.000  C
  C154     1.0000 0.14723  0.93017  0.04215  Biso   1.000  C
  C155     1.0000 0.44960  0.18610  0.37548  Biso   1.000  C
  C156     1.0000 0.73650  0.55040  0.37548  Biso   1.000  C
  C157     1.0000 0.51943  0.11627  0.79119  Biso   1.000  C
  C158     1.0000 0.88373  0.40317  0.79119  Biso   1.000  C
  C159     1.0000 0.78293  0.85277  0.04215  Biso   1.000  C
  C160     1.0000 0.06983  0.21707  0.04215  Biso   1.000  C
  C161     1.0000 0.11627  0.51943  0.70881  Biso   1.000  C
  C162     1.0000 0.40317  0.88373  0.70881  Biso   1.000  C
  C163     1.0000 0.73650  0.18610  0.87548  Biso   1.000  C
  C164     1.0000 0.81390  0.55040  0.87548  Biso   1.000  C
  C165     1.0000 0.44960  0.26350  0.87548  Biso   1.000  C
  C166     1.0000 0.18610  0.73650  0.62452  Biso   1.000  C
  C167     1.0000 0.40317  0.51943  0.20881  Biso   1.000  C
  C168     1.0000 0.48057  0.88373  0.20881  Biso   1.000  C
  C169     1.0000 0.11627  0.59683  0.20881  Biso   1.000  C
  C170     1.0000 0.85277  0.06983  0.95785  Biso   1.000  C
  C171     1.0000 0.06983  0.85277  0.54215  Biso   1.000  C
  C172     1.0000 0.51943  0.40317  0.29119  Biso   1.000  C
  C173     1.0000 0.55040  0.81390  0.62452  Biso   1.000  C
  C174     1.0000 0.26350  0.44960  0.62452  Biso   1.000  C
  C175     1.0000 0.14723  0.21707  0.54215  Biso   1.000  C
  C176     1.0000 0.78293  0.93017  0.54215  Biso   1.000  C
  C177     1.0000 0.88373  0.48057  0.29119  Biso   1.000  C
  C178     1.0000 0.59683  0.11627  0.29119  Biso   1.000  C
  C179     1.0000 0.21707  0.14723  0.95785  Biso   1.000  C
  C180     1.0000 0.93017  0.78293  0.95785  Biso   1.000  C
  H73      1.0000 0.19760  0.75170  0.13300  Biso   1.000  H
  H74      1.0000 0.24830  0.44590  0.13300  Biso   1.000  H
  H75      1.0000 0.55410  0.80240  0.13300  Biso   1.000  H
  H76      1.0000 0.75170  0.19760  0.36700  Biso   1.000  H
  H77      1.0000 0.86427  0.08503  0.46633  Biso   1.000  H
  H78      1.0000 0.91497  0.77923  0.46633  Biso   1.000  H
  H79      1.0000 0.22077  0.13573  0.46633  Biso   1.000  H
  H80      1.0000 0.41837  0.53093  0.70033  Biso   1.000  H
  H81      1.0000 0.53093  0.41837  0.79967  Biso   1.000  H
  H82      1.0000 0.08503  0.86427  0.03367  Biso   1.000  H
  H83      1.0000 0.44590  0.24830  0.36700  Biso   1.000  H
  H84      1.0000 0.80240  0.55410  0.36700  Biso   1.000  H
  H85      1.0000 0.58163  0.11257  0.79967  Biso   1.000  H
  H86      1.0000 0.88743  0.46907  0.79967  Biso   1.000  H
  H87      1.0000 0.77923  0.91497  0.03367  Biso   1.000  H
  H88      1.0000 0.13573  0.22077  0.03367  Biso   1.000  H
  H89      1.0000 0.11257  0.58163  0.70033  Biso   1.000  H
  H90      1.0000 0.46907  0.88743  0.70033  Biso   1.000  H
  H91      1.0000 0.80240  0.24830  0.86700  Biso   1.000  H
  H92      1.0000 0.75170  0.55410  0.86700  Biso   1.000  H
  H93      1.0000 0.44590  0.19760  0.86700  Biso   1.000  H
  H94      1.0000 0.24830  0.80240  0.63300  Biso   1.000  H
  H95      1.0000 0.46907  0.58163  0.20033  Biso   1.000  H
  H96      1.0000 0.41837  0.88743  0.20033  Biso   1.000  H
  H97      1.0000 0.11257  0.53093  0.20033  Biso   1.000  H
  H98      1.0000 0.91497  0.13573  0.96633  Biso   1.000  H
  H99      1.0000 0.13573  0.91497  0.53367  Biso   1.000  H
  H100     1.0000 0.58163  0.46907  0.29967  Biso   1.000  H
  H101     1.0000 0.55410  0.75170  0.63300  Biso   1.000  H
  H102     1.0000 0.19760  0.44590  0.63300  Biso   1.000  H
  H103     1.0000 0.08503  0.22077  0.53367  Biso   1.000  H
  H104     1.0000 0.77923  0.86427  0.53367  Biso   1.000  H
  H105     1.0000 0.88743  0.41837  0.29967  Biso   1.000  H
  H106     1.0000 0.53093  0.11257  0.29967  Biso   1.000  H
  H107     1.0000 0.22077  0.08503  0.96633  Biso   1.000  H
  H108     1.0000 0.86427  0.77923  0.96633  Biso   1.000  H
  C181     1.0000 0.28830  0.80690  0.09619  Biso   1.000  C
  C182     1.0000 0.19310  0.48140  0.09619  Biso   1.000  C
  C183     1.0000 0.51860  0.71170  0.09619  Biso   1.000  C
  C184     1.0000 0.80690  0.28830  0.40381  Biso   1.000  C
  C185     1.0000 0.95497  0.14023  0.42952  Biso   1.000  C
  C186     1.0000 0.85977  0.81473  0.42952  Biso   1.000  C
  C187     1.0000 0.18527  0.04503  0.42952  Biso   1.000  C
  C188     1.0000 0.47357  0.62163  0.73714  Biso   1.000  C
  C189     1.0000 0.62163  0.47357  0.76286  Biso   1.000  C
  C190     1.0000 0.14023  0.95497  0.07048  Biso   1.000  C
  C191     1.0000 0.48140  0.19310  0.40381  Biso   1.000  C
  C192     1.0000 0.71170  0.51860  0.40381  Biso   1.000  C
  C193     1.0000 0.52643  0.14807  0.76286  Biso   1.000  C
  C194     1.0000 0.85193  0.37837  0.76286  Biso   1.000  C
  C195     1.0000 0.81473  0.85977  0.07048  Biso   1.000  C
  C196     1.0000 0.04503  0.18527  0.07048  Biso   1.000  C
  C197     1.0000 0.14807  0.52643  0.73714  Biso   1.000  C
  C198     1.0000 0.37837  0.85193  0.73714  Biso   1.000  C
  C199     1.0000 0.71170  0.19310  0.90381  Biso   1.000  C
  C200     1.0000 0.80690  0.51860  0.90381  Biso   1.000  C
  C201     1.0000 0.48140  0.28830  0.90381  Biso   1.000  C
  C202     1.0000 0.19310  0.71170  0.59619  Biso   1.000  C
  C203     1.0000 0.37837  0.52643  0.23714  Biso   1.000  C
  C204     1.0000 0.47357  0.85193  0.23714  Biso   1.000  C
  C205     1.0000 0.14807  0.62163  0.23714  Biso   1.000  C
  C206     1.0000 0.85977  0.04503  0.92952  Biso   1.000  C
  C207     1.0000 0.04503  0.85977  0.57048  Biso   1.000  C
  C208     1.0000 0.52643  0.37837  0.26286  Biso   1.000  C
  C209     1.0000 0.51860  0.80690  0.59619  Biso   1.000  C
  C210     1.0000 0.28830  0.48140  0.59619  Biso   1.000  C
  C211     1.0000 0.14023  0.18527  0.57048  Biso   1.000  C
  C212     1.0000 0.81473  0.95497  0.57048  Biso   1.000  C
  C213     1.0000 0.85193  0.47357  0.26286  Biso   1.000  C
  C214     1.0000 0.62163  0.14807  0.26286  Biso   1.000  C
  C215     1.0000 0.18527  0.14023  0.92952  Biso   1.000  C
  C216     1.0000 0.95497  0.81473  0.92952  Biso   1.000  C
  H109     1.0000 0.23850  0.74020  0.08560  Biso   1.000  H
  H110     1.0000 0.25980  0.49830  0.08560  Biso   1.000  H
  H111     1.0000 0.50170  0.76150  0.08560  Biso   1.000  H
  H112     1.0000 0.74020  0.23850  0.41440  Biso   1.000  H
  H113     1.0000 0.90517  0.07353  0.41893  Biso   1.000  H
  H114     1.0000 0.92647  0.83163  0.41893  Biso   1.000  H
  H115     1.0000 0.16837  0.09483  0.41893  Biso   1.000  H
  H116     1.0000 0.40687  0.57183  0.74773  Biso   1.000  H
  H117     1.0000 0.57183  0.40687  0.75227  Biso   1.000  H
  H118     1.0000 0.07353  0.90517  0.08107  Biso   1.000  H
  H119     1.0000 0.49830  0.25980  0.41440  Biso   1.000  H
  H120     1.0000 0.76150  0.50170  0.41440  Biso   1.000  H
  H121     1.0000 0.59313  0.16497  0.75227  Biso   1.000  H
  H122     1.0000 0.83503  0.42817  0.75227  Biso   1.000  H
  H123     1.0000 0.83163  0.92647  0.08107  Biso   1.000  H
  H124     1.0000 0.09483  0.16837  0.08107  Biso   1.000  H
  H125     1.0000 0.16497  0.59313  0.74773  Biso   1.000  H
  H126     1.0000 0.42817  0.83503  0.74773  Biso   1.000  H
  H127     1.0000 0.76150  0.25980  0.91440  Biso   1.000  H
  H128     1.0000 0.74020  0.50170  0.91440  Biso   1.000  H
  H129     1.0000 0.49830  0.23850  0.91440  Biso   1.000  H
  H130     1.0000 0.25980  0.76150  0.58560  Biso   1.000  H
  H131     1.0000 0.42817  0.59313  0.24773  Biso   1.000  H
  H132     1.0000 0.40687  0.83503  0.24773  Biso   1.000  H
  H133     1.0000 0.16497  0.57183  0.24773  Biso   1.000  H
  H134     1.0000 0.92647  0.09483  0.91893  Biso   1.000  H
  H135     1.0000 0.09483  0.92647  0.58107  Biso   1.000  H
  H136     1.0000 0.59313  0.42817  0.25227  Biso   1.000  H
  H137     1.0000 0.50170  0.74020  0.58560  Biso   1.000  H
  H138     1.0000 0.23850  0.49830  0.58560  Biso   1.000  H
  H139     1.0000 0.07353  0.16837  0.58107  Biso   1.000  H
  H140     1.0000 0.83163  0.90517  0.58107  Biso   1.000  H
  H141     1.0000 0.83503  0.40687  0.25227  Biso   1.000  H
  H142     1.0000 0.57183  0.16497  0.25227  Biso   1.000  H
  H143     1.0000 0.16837  0.07353  0.91893  Biso   1.000  H
  H144     1.0000 0.90517  0.83163  0.91893  Biso   1.000  H
  C217     1.0000 0.40430  0.89360  0.05216  Biso   1.000  C
  C218     1.0000 0.10640  0.51070  0.05216  Biso   1.000  C
  C219     1.0000 0.48930  0.59570  0.05216  Biso   1.000  C
  C220     1.0000 0.89360  0.40430  0.44784  Biso   1.000  C
  C221     1.0000 0.07097  0.22693  0.38549  Biso   1.000  C
  C222     1.0000 0.77307  0.84403  0.38549  Biso   1.000  C
  C223     1.0000 0.15597  0.92903  0.38549  Biso   1.000  C
  C224     1.0000 0.56027  0.73763  0.78117  Biso   1.000  C
  C225     1.0000 0.73763  0.56027  0.71883  Biso   1.000  C
  C226     1.0000 0.22693  0.07097  0.11451  Biso   1.000  C
  C227     1.0000 0.51070  0.10640  0.44784  Biso   1.000  C
  C228     1.0000 0.59570  0.48930  0.44784  Biso   1.000  C
  C229     1.0000 0.43973  0.17737  0.71883  Biso   1.000  C
  C230     1.0000 0.82263  0.26237  0.71883  Biso   1.000  C
  C231     1.0000 0.84403  0.77307  0.11451  Biso   1.000  C
  C232     1.0000 0.92903  0.15597  0.11451  Biso   1.000  C
  C233     1.0000 0.17737  0.43973  0.78117  Biso   1.000  C
  C234     1.0000 0.26237  0.82263  0.78117  Biso   1.000  C
  C235     1.0000 0.59570  0.10640  0.94784  Biso   1.000  C
  C236     1.0000 0.89360  0.48930  0.94784  Biso   1.000  C
  C237     1.0000 0.51070  0.40430  0.94784  Biso   1.000  C
  C238     1.0000 0.10640  0.59570  0.55216  Biso   1.000  C
  C239     1.0000 0.26237  0.43973  0.28117  Biso   1.000  C
  C240     1.0000 0.56027  0.82263  0.28117  Biso   1.000  C
  C241     1.0000 0.17737  0.73763  0.28117  Biso   1.000  C
  C242     1.0000 0.77307  0.92903  0.88549  Biso   1.000  C
  C243     1.0000 0.92903  0.77307  0.61451  Biso   1.000  C
  C244     1.0000 0.43973  0.26237  0.21883  Biso   1.000  C
  C245     1.0000 0.48930  0.89360  0.55216  Biso   1.000  C
  C246     1.0000 0.40430  0.51070  0.55216  Biso   1.000  C
  C247     1.0000 0.22693  0.15597  0.61451  Biso   1.000  C
  C248     1.0000 0.84403  0.07097  0.61451  Biso   1.000  C
  C249     1.0000 0.82263  0.56027  0.21883  Biso   1.000  C
  C250     1.0000 0.73763  0.17737  0.21883  Biso   1.000  C
  C251     1.0000 0.15597  0.22693  0.88549  Biso   1.000  C
  C252     1.0000 0.07097  0.84403  0.88549  Biso   1.000  C
  C253     1.0000 0.51370  0.11310  0.14429  Biso   1.000  C
  C254     1.0000 0.88690  0.40060  0.14429  Biso   1.000  C
  C255     1.0000 0.59940  0.48630  0.14429  Biso   1.000  C
  C256     1.0000 0.11310  0.51370  0.35571  Biso   1.000  C
  C257     1.0000 0.18037  0.44643  0.47762  Biso   1.000  C
  C258     1.0000 0.55357  0.73393  0.47762  Biso   1.000  C
  C259     1.0000 0.26607  0.81963  0.47762  Biso   1.000  C
  C260     1.0000 0.77977  0.84703  0.68904  Biso   1.000  C
  C261     1.0000 0.84703  0.77977  0.81096  Biso   1.000  C
  C262     1.0000 0.44643  0.18037  0.02238  Biso   1.000  C
  C263     1.0000 0.40060  0.88690  0.35571  Biso   1.000  C
  C264     1.0000 0.48630  0.59940  0.35571  Biso   1.000  C
  C265     1.0000 0.22023  0.06727  0.81096  Biso   1.000  C
  C266     1.0000 0.93273  0.15297  0.81096  Biso   1.000  C
  C267     1.0000 0.73393  0.55357  0.02238  Biso   1.000  C
  C268     1.0000 0.81963  0.26607  0.02238  Biso   1.000  C
  C269     1.0000 0.06727  0.22023  0.68904  Biso   1.000  C
  C270     1.0000 0.15297  0.93273  0.68904  Biso   1.000  C
  C271     1.0000 0.48630  0.88690  0.85571  Biso   1.000  C
  C272     1.0000 0.11310  0.59940  0.85571  Biso   1.000  C
  C273     1.0000 0.40060  0.51370  0.85571  Biso   1.000  C
  C274     1.0000 0.88690  0.48630  0.64429  Biso   1.000  C
  C275     1.0000 0.15297  0.22023  0.18904  Biso   1.000  C
  C276     1.0000 0.77977  0.93273  0.18904  Biso   1.000  C
  C277     1.0000 0.06727  0.84703  0.18904  Biso   1.000  C
  C278     1.0000 0.55357  0.81963  0.97762  Biso   1.000  C
  C279     1.0000 0.81963  0.55357  0.52238  Biso   1.000  C
  C280     1.0000 0.22023  0.15297  0.31096  Biso   1.000  C
  C281     1.0000 0.59940  0.11310  0.64429  Biso   1.000  C
  C282     1.0000 0.51370  0.40060  0.64429  Biso   1.000  C
  C283     1.0000 0.44643  0.26607  0.52238  Biso   1.000  C
  C284     1.0000 0.73393  0.18037  0.52238  Biso   1.000  C
  C285     1.0000 0.93273  0.77977  0.31096  Biso   1.000  C
  C286     1.0000 0.84703  0.06727  0.31096  Biso   1.000  C
  C287     1.0000 0.26607  0.44643  0.97762  Biso   1.000  C
  C288     1.0000 0.18037  0.73393  0.97762  Biso   1.000  C
