data_image0
_cell_length_a       10.9785
_cell_length_b       12.8812
_cell_length_c       13.2657
_cell_angle_alpha    75.065
_cell_angle_beta     81.251
_cell_angle_gamma    69.467

_symmetry_space_group_name_H-M    "P 1"
_symmetry_int_tables_number       1

loop_
  _symmetry_equiv_pos_as_xyz
  'x, y, z'

loop_
  _atom_site_label
  _atom_site_occupancy
  _atom_site_fract_x
  _atom_site_fract_y
  _atom_site_fract_z
  _atom_site_thermal_displace_type
  _atom_site_B_iso_or_equiv
  _atom_site_type_symbol
  Tb1      1.0000 0.04729  0.68202  0.19642  Biso   1.000  Tb
  Tb2      1.0000 0.95271  0.31798  0.80358  Biso   1.000  Tb
  Cu1      1.0000 0.32443  0.62294  0.38815  Biso   1.000  Cu
  Cu2      1.0000 0.67557  0.37706  0.61185  Biso   1.000  Cu
  Cu3      1.0000 0.00000  0.50000  0.00000  Biso   1.000  Cu
  O1       1.0000 0.25040  0.53158  0.21509  Biso   1.000  O
  O2       1.0000 0.74960  0.46842  0.78491  Biso   1.000  O
  O3       1.0000 0.41880  0.54530  0.28091  Biso   1.000  O
  O4       1.0000 0.58120  0.45470  0.71909  Biso   1.000  O
  O5       1.0000 0.82916  0.48376  0.05494  Biso   1.000  O
  O6       1.0000 0.17084  0.51624  0.94506  Biso   1.000  O
  O7       1.0000 0.88820  0.34294  0.97183  Biso   1.000  O
  O8       1.0000 0.11180  0.65706  0.02817  Biso   1.000  O
  O9       1.0000 0.00622  0.48017  0.77611  Biso   1.000  O
  O10      1.0000 0.99378  0.51983  0.22389  Biso   1.000  O
  O11      1.0000 0.92200  0.60730  0.87517  Biso   1.000  O
  O12      1.0000 0.07800  0.39270  0.12483  Biso   1.000  O
  O13      1.0000 0.90810  0.78796  0.32018  Biso   1.000  O
  O14      1.0000 0.09190  0.21204  0.67982  Biso   1.000  O
  O15      1.0000 0.06300  0.63547  0.38754  Biso   1.000  O
  O16      1.0000 0.93700  0.36453  0.61246  Biso   1.000  O
  O17      1.0000 0.32880  0.76719  0.30239  Biso   1.000  O
  O18      1.0000 0.67120  0.23281  0.69761  Biso   1.000  O
  O19      1.0000 0.18810  0.77940  0.19290  Biso   1.000  O
  O20      1.0000 0.81190  0.22060  0.80710  Biso   1.000  O
  O21      1.0000 0.04970  0.13292  0.91664  Biso   1.000  O
  O22      1.0000 0.95030  0.86708  0.08336  Biso   1.000  O
  O23      1.0000 0.16390  0.24951  0.87805  Biso   1.000  O
  O24      1.0000 0.83610  0.75049  0.12195  Biso   1.000  O
  N1       1.0000 0.34450  0.47980  0.49660  Biso   1.000  N
  N2       1.0000 0.65550  0.52020  0.50340  Biso   1.000  N
  N3       1.0000 0.25950  0.68990  0.51180  Biso   1.000  N
  N4       1.0000 0.74050  0.31010  0.48820  Biso   1.000  N
  C1       1.0000 0.39130  0.37380  0.48150  Biso   1.000  C
  C2       1.0000 0.60870  0.62620  0.51850  Biso   1.000  C
  H1       1.0000 0.42390  0.36270  0.41480  Biso   1.000  H
  H2       1.0000 0.57610  0.63730  0.58520  Biso   1.000  H
  C3       1.0000 0.39300  0.28020  0.56140  Biso   1.000  C
  C4       1.0000 0.60700  0.71980  0.43860  Biso   1.000  C
  H3       1.0000 0.42560  0.20730  0.54890  Biso   1.000  H
  H4       1.0000 0.57440  0.79270  0.45110  Biso   1.000  H
  C5       1.0000 0.34530  0.29760  0.65970  Biso   1.000  C
  C6       1.0000 0.65470  0.70240  0.34030  Biso   1.000  C
  H5       1.0000 0.34490  0.23600  0.71470  Biso   1.000  H
  H6       1.0000 0.65510  0.76400  0.28530  Biso   1.000  H
  C7       1.0000 0.29850  0.40510  0.67690  Biso   1.000  C
  C8       1.0000 0.70150  0.59490  0.32310  Biso   1.000  C
  H7       1.0000 0.26590  0.41760  0.74320  Biso   1.000  H
  H8       1.0000 0.73410  0.58240  0.25680  Biso   1.000  H
  C9       1.0000 0.30040  0.49550  0.59360  Biso   1.000  C
  C10      1.0000 0.69960  0.50450  0.40640  Biso   1.000  C
  C11      1.0000 0.25360  0.61410  0.60250  Biso   1.000  C
  C12      1.0000 0.74640  0.38590  0.39750  Biso   1.000  C
  C13      1.0000 0.20560  0.64920  0.69490  Biso   1.000  C
  C14      1.0000 0.79440  0.35080  0.30510  Biso   1.000  C
  H9       1.0000 0.20350  0.59610  0.75720  Biso   1.000  H
  H10      1.0000 0.79650  0.40390  0.24280  Biso   1.000  H
  C15      1.0000 0.16100  0.76350  0.69400  Biso   1.000  C
  C16      1.0000 0.83900  0.23650  0.30600  Biso   1.000  C
  H11      1.0000 0.12750  0.78850  0.75540  Biso   1.000  H
  H12      1.0000 0.87250  0.21150  0.24460  Biso   1.000  H
  C17      1.0000 0.16640  0.83970  0.60190  Biso   1.000  C
  C18      1.0000 0.83360  0.16030  0.39810  Biso   1.000  C
  H13      1.0000 0.13690  0.91720  0.59980  Biso   1.000  H
  H14      1.0000 0.86310  0.08280  0.40020  Biso   1.000  H
  C19      1.0000 0.21610  0.80040  0.51210  Biso   1.000  C
  C20      1.0000 0.78390  0.19960  0.48790  Biso   1.000  C
  H15      1.0000 0.21960  0.85270  0.44950  Biso   1.000  H
  H16      1.0000 0.78040  0.14730  0.55050  Biso   1.000  H
  C21      1.0000 0.67830  0.38790  0.06160  Biso   1.000  C
  C22      1.0000 0.32170  0.61210  0.93840  Biso   1.000  C
  C23      1.0000 0.64930  0.30430  0.03060  Biso   1.000  C
  C24      1.0000 0.35070  0.69570  0.96940  Biso   1.000  C
  H17      1.0000 0.71120  0.25810  0.99080  Biso   1.000  H
  H18      1.0000 0.28880  0.74190  0.00920  Biso   1.000  H
  C25      1.0000 0.52930  0.28990  0.05870  Biso   1.000  C
  C26      1.0000 0.47070  0.71010  0.94130  Biso   1.000  C
  H19      1.0000 0.51040  0.23430  0.03720  Biso   1.000  H
  H20      1.0000 0.48960  0.76570  0.96280  Biso   1.000  H
  C27      1.0000 0.43680  0.35710  0.11840  Biso   1.000  C
  C28      1.0000 0.56320  0.64290  0.88160  Biso   1.000  C
  H21      1.0000 0.35530  0.34790  0.13580  Biso   1.000  H
  H22      1.0000 0.64470  0.65210  0.86420  Biso   1.000  H
  C29      1.0000 0.46590  0.43910  0.15280  Biso   1.000  C
  C30      1.0000 0.53410  0.56090  0.84720  Biso   1.000  C
  C31      1.0000 0.58700  0.45450  0.12290  Biso   1.000  C
  C32      1.0000 0.41300  0.54550  0.87710  Biso   1.000  C
  H23      1.0000 0.60630  0.50990  0.14440  Biso   1.000  H
  H24      1.0000 0.39370  0.49010  0.85560  Biso   1.000  H
  C33      1.0000 0.80640  0.40700  0.02670  Biso   1.000  C
  C34      1.0000 0.19360  0.59300  0.97330  Biso   1.000  C
  C35      1.0000 0.37000  0.51090  0.22010  Biso   1.000  C
  C36      1.0000 0.63000  0.48910  0.77990  Biso   1.000  C
  C37      1.0000 0.90080  0.67150  0.69280  Biso   1.000  C
  C38      1.0000 0.09920  0.32850  0.30720  Biso   1.000  C
  C39      1.0000 0.82250  0.77950  0.70380  Biso   1.000  C
  C40      1.0000 0.17750  0.22050  0.29620  Biso   1.000  C
  H25      1.0000 0.79510  0.79410  0.77010  Biso   1.000  H
  H26      1.0000 0.20490  0.20590  0.22990  Biso   1.000  H
  C41      1.0000 0.78500  0.86550  0.61600  Biso   1.000  C
  C42      1.0000 0.21500  0.13450  0.38400  Biso   1.000  C
  H27      1.0000 0.73070  0.93750  0.62330  Biso   1.000  H
  H28      1.0000 0.26930  0.06250  0.37670  Biso   1.000  H
  C43      1.0000 0.82800  0.84450  0.51770  Biso   1.000  C
  C44      1.0000 0.17200  0.15550  0.48230  Biso   1.000  C
  H29      1.0000 0.80120  0.90210  0.45880  Biso   1.000  H
  H30      1.0000 0.19880  0.09790  0.54120  Biso   1.000  H
  C45      1.0000 0.91100  0.73810  0.50580  Biso   1.000  C
  C46      1.0000 0.08900  0.26190  0.49420  Biso   1.000  C
  C47      1.0000 0.94390  0.65090  0.59390  Biso   1.000  C
  C48      1.0000 0.05610  0.34910  0.40610  Biso   1.000  C
  H31      1.0000 0.99510  0.57810  0.58640  Biso   1.000  H
  H32      1.0000 0.00490  0.42190  0.41360  Biso   1.000  H
  C49      1.0000 0.94500  0.57950  0.78750  Biso   1.000  C
  C50      1.0000 0.05500  0.42050  0.21250  Biso   1.000  C
  C51      1.0000 0.96390  0.71890  0.39940  Biso   1.000  C
  C52      1.0000 0.03610  0.28110  0.60060  Biso   1.000  C
  C53      1.0000 0.21610  0.98400  0.07240  Biso   1.000  C
  C54      1.0000 0.78390  0.01600  0.92760  Biso   1.000  C
  H33      1.0000 0.15160  0.96080  0.05610  Biso   1.000  H
  H34      1.0000 0.84840  0.03920  0.94390  Biso   1.000  H
  C55      1.0000 0.29330  0.91840  0.15460  Biso   1.000  C
  C56      1.0000 0.70670  0.08160  0.84540  Biso   1.000  C
  C57      1.0000 0.39160  0.95230  0.17740  Biso   1.000  C
  C58      1.0000 0.60840  0.04770  0.82260  Biso   1.000  C
  H35      1.0000 0.44340  0.90870  0.23250  Biso   1.000  H
  H36      1.0000 0.55660  0.09130  0.76750  Biso   1.000  H
  C59      1.0000 0.41180  0.05050  0.11820  Biso   1.000  C
  C60      1.0000 0.58820  0.94950  0.88180  Biso   1.000  C
  H37      1.0000 0.47800  0.07260  0.13280  Biso   1.000  H
  H38      1.0000 0.52200  0.92740  0.86720  Biso   1.000  H
  C61      1.0000 0.33410  0.11620  0.03710  Biso   1.000  C
  C62      1.0000 0.66590  0.88380  0.96290  Biso   1.000  C
  H39      1.0000 0.34830  0.18230  0.99750  Biso   1.000  H
  H40      1.0000 0.65170  0.81770  0.00250  Biso   1.000  H
  C63      1.0000 0.23490  0.08430  0.01420  Biso   1.000  C
  C64      1.0000 0.76510  0.91570  0.98580  Biso   1.000  C
  C65      1.0000 0.14580  0.15950  0.93050  Biso   1.000  C
  C66      1.0000 0.85420  0.84050  0.06950  Biso   1.000  C
  C67      1.0000 0.26810  0.81400  0.22050  Biso   1.000  C
  C68      1.0000 0.73190  0.18600  0.77950  Biso   1.000  C
  O25      1.0000 0.89760  0.08280  0.13190  Biso   1.000  O
  O26      1.0000 0.10240  0.91720  0.86810  Biso   1.000  O
  H41      1.0000 0.90590  0.01410  0.16230  Biso   1.000  H
  H42      1.0000 0.09410  0.98590  0.83770  Biso   1.000  H
  H43      1.0000 0.94550  0.09350  0.07630  Biso   1.000  H
  H44      1.0000 0.05450  0.90650  0.92370  Biso   1.000  H
  O27      1.0000 0.30130  0.00200  0.74190  Biso   1.000  O
  O28      1.0000 0.69870  0.99800  0.25810  Biso   1.000  O
  H45      1.0000 0.25400  0.95960  0.76330  Biso   1.000  H
  H46      1.0000 0.74600  0.04040  0.23670  Biso   1.000  H
  H47      1.0000 0.26500  0.06840  0.70640  Biso   1.000  H
  H48      1.0000 0.73500  0.93160  0.29360  Biso   1.000  H
  O29      1.0000 0.46660  0.91000  0.58540  Biso   1.000  O
  O30      1.0000 0.53340  0.09000  0.41460  Biso   1.000  O
  H49      1.0000 0.43580  0.92940  0.52580  Biso   1.000  H
  H50      1.0000 0.56420  0.07060  0.47420  Biso   1.000  H
  H51      1.0000 0.47680  0.84310  0.62160  Biso   1.000  H
  H52      1.0000 0.52320  0.15690  0.37840  Biso   1.000  H
