data_image0
_cell_length_a       18.678
_cell_length_b       18.678
_cell_length_c       10.155
_cell_angle_alpha    90
_cell_angle_beta     90
_cell_angle_gamma    120

_symmetry_space_group_name_H-M    "P 1"
_symmetry_int_tables_number       1

loop_
  _symmetry_equiv_pos_as_xyz
  'x, y, z'

loop_
  _atom_site_label
  _atom_site_occupancy
  _atom_site_fract_x
  _atom_site_fract_y
  _atom_site_fract_z
  _atom_site_thermal_displace_type
  _atom_site_B_iso_or_equiv
  _atom_site_type_symbol
  Dy1      1.0000 0.66670  0.33330  0.33330  Biso   1.000  Dy
  Dy2      1.0000 0.33337  0.66663  0.66663  Biso   1.000  Dy
  Dy3      1.0000 0.00003  0.99997  0.99997  Biso   1.000  Dy
  Dy4      1.0000 0.66670  0.33330  0.83330  Biso   1.000  Dy
  Dy5      1.0000 0.33337  0.66663  0.16663  Biso   1.000  Dy
  Dy6      1.0000 0.00003  0.99997  0.49997  Biso   1.000  Dy
  Cu1      1.0000 0.83330  0.16670  0.16670  Biso   1.000  Cu
  Cu2      1.0000 0.83330  0.66660  0.16670  Biso   1.000  Cu
  Cu3      1.0000 0.33340  0.16670  0.16670  Biso   1.000  Cu
  Cu4      1.0000 0.49997  0.50003  0.50003  Biso   1.000  Cu
  Cu5      1.0000 0.49997  0.99993  0.50003  Biso   1.000  Cu
  Cu6      1.0000 0.00007  0.50003  0.50003  Biso   1.000  Cu
  Cu7      1.0000 0.16663  0.83337  0.83337  Biso   1.000  Cu
  Cu8      1.0000 0.16663  0.33327  0.83337  Biso   1.000  Cu
  Cu9      1.0000 0.66673  0.83337  0.83337  Biso   1.000  Cu
  P1       1.0000 0.75441  0.26078  0.08855  Biso   1.000  P
  P2       1.0000 0.73922  0.49363  0.08855  Biso   1.000  P
  P3       1.0000 0.50637  0.24559  0.08855  Biso   1.000  P
  P4       1.0000 0.42108  0.59411  0.42188  Biso   1.000  P
  P5       1.0000 0.40589  0.82696  0.42188  Biso   1.000  P
  P6       1.0000 0.17304  0.57892  0.42188  Biso   1.000  P
  P7       1.0000 0.08774  0.92745  0.75522  Biso   1.000  P
  P8       1.0000 0.07255  0.16030  0.75522  Biso   1.000  P
  P9       1.0000 0.83970  0.91226  0.75522  Biso   1.000  P
  P10      1.0000 0.24559  0.73922  0.91145  Biso   1.000  P
  P11      1.0000 0.26078  0.50637  0.91145  Biso   1.000  P
  P12      1.0000 0.49363  0.75441  0.91145  Biso   1.000  P
  P13      1.0000 0.91226  0.07255  0.24478  Biso   1.000  P
  P14      1.0000 0.92745  0.83970  0.24478  Biso   1.000  P
  P15      1.0000 0.16030  0.08774  0.24478  Biso   1.000  P
  P16      1.0000 0.57892  0.40589  0.57812  Biso   1.000  P
  P17      1.0000 0.59411  0.17304  0.57812  Biso   1.000  P
  P18      1.0000 0.82696  0.42108  0.57812  Biso   1.000  P
  O1       1.0000 0.75110  0.17830  0.07380  Biso   1.000  O
  O2       1.0000 0.82170  0.57280  0.07380  Biso   1.000  O
  O3       1.0000 0.42720  0.24890  0.07380  Biso   1.000  O
  O4       1.0000 0.41777  0.51163  0.40713  Biso   1.000  O
  O5       1.0000 0.48837  0.90613  0.40713  Biso   1.000  O
  O6       1.0000 0.09387  0.58223  0.40713  Biso   1.000  O
  O7       1.0000 0.08443  0.84497  0.74047  Biso   1.000  O
  O8       1.0000 0.15503  0.23947  0.74047  Biso   1.000  O
  O9       1.0000 0.76053  0.91557  0.74047  Biso   1.000  O
  O10      1.0000 0.24890  0.82170  0.92620  Biso   1.000  O
  O11      1.0000 0.17830  0.42720  0.92620  Biso   1.000  O
  O12      1.0000 0.57280  0.75110  0.92620  Biso   1.000  O
  O13      1.0000 0.91557  0.15503  0.25953  Biso   1.000  O
  O14      1.0000 0.84497  0.76053  0.25953  Biso   1.000  O
  O15      1.0000 0.23947  0.08443  0.25953  Biso   1.000  O
  O16      1.0000 0.58223  0.48837  0.59287  Biso   1.000  O
  O17      1.0000 0.51163  0.09387  0.59287  Biso   1.000  O
  O18      1.0000 0.90613  0.41777  0.59287  Biso   1.000  O
  O19      1.0000 0.73810  0.29110  0.96160  Biso   1.000  O
  O20      1.0000 0.70890  0.44700  0.96160  Biso   1.000  O
  O21      1.0000 0.55300  0.26190  0.96160  Biso   1.000  O
  O22      1.0000 0.40477  0.62443  0.29493  Biso   1.000  O
  O23      1.0000 0.37557  0.78033  0.29493  Biso   1.000  O
  O24      1.0000 0.21967  0.59523  0.29493  Biso   1.000  O
  O25      1.0000 0.07143  0.95777  0.62827  Biso   1.000  O
  O26      1.0000 0.04223  0.11367  0.62827  Biso   1.000  O
  O27      1.0000 0.88633  0.92857  0.62827  Biso   1.000  O
  O28      1.0000 0.26190  0.70890  0.03840  Biso   1.000  O
  O29      1.0000 0.29110  0.55300  0.03840  Biso   1.000  O
  O30      1.0000 0.44700  0.73810  0.03840  Biso   1.000  O
  O31      1.0000 0.92857  0.04223  0.37173  Biso   1.000  O
  O32      1.0000 0.95777  0.88633  0.37173  Biso   1.000  O
  O33      1.0000 0.11367  0.07143  0.37173  Biso   1.000  O
  O34      1.0000 0.59523  0.37557  0.70507  Biso   1.000  O
  O35      1.0000 0.62443  0.21967  0.70507  Biso   1.000  O
  O36      1.0000 0.78033  0.40477  0.70507  Biso   1.000  O
  O37      1.0000 0.70360  0.26060  0.20270  Biso   1.000  O
  O38      1.0000 0.73940  0.44300  0.20270  Biso   1.000  O
  O39      1.0000 0.55700  0.29640  0.20270  Biso   1.000  O
  O40      1.0000 0.37027  0.59393  0.53603  Biso   1.000  O
  O41      1.0000 0.40607  0.77633  0.53603  Biso   1.000  O
  O42      1.0000 0.22367  0.62973  0.53603  Biso   1.000  O
  O43      1.0000 0.03693  0.92727  0.86937  Biso   1.000  O
  O44      1.0000 0.07273  0.10967  0.86937  Biso   1.000  O
  O45      1.0000 0.89033  0.96307  0.86937  Biso   1.000  O
  O46      1.0000 0.29640  0.73940  0.79730  Biso   1.000  O
  O47      1.0000 0.26060  0.55700  0.79730  Biso   1.000  O
  O48      1.0000 0.44300  0.70360  0.79730  Biso   1.000  O
  O49      1.0000 0.96307  0.07273  0.13063  Biso   1.000  O
  O50      1.0000 0.92727  0.89033  0.13063  Biso   1.000  O
  O51      1.0000 0.10967  0.03693  0.13063  Biso   1.000  O
  O52      1.0000 0.62973  0.40607  0.46397  Biso   1.000  O
  O53      1.0000 0.59393  0.22367  0.46397  Biso   1.000  O
  O54      1.0000 0.77633  0.37027  0.46397  Biso   1.000  O
  N1       1.0000 0.90320  0.28890  0.16100  Biso   1.000  N
  N2       1.0000 0.71110  0.61430  0.16100  Biso   1.000  N
  N3       1.0000 0.38570  0.09680  0.16100  Biso   1.000  N
  N4       1.0000 0.56987  0.62223  0.49433  Biso   1.000  N
  N5       1.0000 0.37777  0.94763  0.49433  Biso   1.000  N
  N6       1.0000 0.05237  0.43013  0.49433  Biso   1.000  N
  N7       1.0000 0.23653  0.95557  0.82767  Biso   1.000  N
  N8       1.0000 0.04443  0.28097  0.82767  Biso   1.000  N
  N9       1.0000 0.71903  0.76347  0.82767  Biso   1.000  N
  N10      1.0000 0.09680  0.71110  0.83900  Biso   1.000  N
  N11      1.0000 0.28890  0.38570  0.83900  Biso   1.000  N
  N12      1.0000 0.61430  0.90320  0.83900  Biso   1.000  N
  N13      1.0000 0.76347  0.04443  0.17233  Biso   1.000  N
  N14      1.0000 0.95557  0.71903  0.17233  Biso   1.000  N
  N15      1.0000 0.28097  0.23653  0.17233  Biso   1.000  N
  N16      1.0000 0.43013  0.37777  0.50567  Biso   1.000  N
  N17      1.0000 0.62223  0.05237  0.50567  Biso   1.000  N
  N18      1.0000 0.94763  0.56987  0.50567  Biso   1.000  N
  C1       1.0000 0.90380  0.41380  0.12970  Biso   1.000  C
  C2       1.0000 0.58620  0.49000  0.12970  Biso   1.000  C
  C3       1.0000 0.51000  0.09620  0.12970  Biso   1.000  C
  C4       1.0000 0.57047  0.74713  0.46303  Biso   1.000  C
  C5       1.0000 0.25287  0.82333  0.46303  Biso   1.000  C
  C6       1.0000 0.17667  0.42953  0.46303  Biso   1.000  C
  C7       1.0000 0.23713  0.08047  0.79637  Biso   1.000  C
  C8       1.0000 0.91953  0.15667  0.79637  Biso   1.000  C
  C9       1.0000 0.84333  0.76287  0.79637  Biso   1.000  C
  C10      1.0000 0.09620  0.58620  0.87030  Biso   1.000  C
  C11      1.0000 0.41380  0.51000  0.87030  Biso   1.000  C
  C12      1.0000 0.49000  0.90380  0.87030  Biso   1.000  C
  C13      1.0000 0.76287  0.91953  0.20363  Biso   1.000  C
  C14      1.0000 0.08047  0.84333  0.20363  Biso   1.000  C
  C15      1.0000 0.15667  0.23713  0.20363  Biso   1.000  C
  C16      1.0000 0.42953  0.25287  0.53697  Biso   1.000  C
  C17      1.0000 0.74713  0.17667  0.53697  Biso   1.000  C
  C18      1.0000 0.82333  0.57047  0.53697  Biso   1.000  C
  H1       1.0000 0.87510  0.44170  0.11430  Biso   1.000  H
  H2       1.0000 0.55830  0.43340  0.11430  Biso   1.000  H
  H3       1.0000 0.56660  0.12490  0.11430  Biso   1.000  H
  H4       1.0000 0.54177  0.77503  0.44763  Biso   1.000  H
  H5       1.0000 0.22497  0.76673  0.44763  Biso   1.000  H
  H6       1.0000 0.23327  0.45823  0.44763  Biso   1.000  H
  H7       1.0000 0.20843  0.10837  0.78097  Biso   1.000  H
  H8       1.0000 0.89163  0.10007  0.78097  Biso   1.000  H
  H9       1.0000 0.89993  0.79157  0.78097  Biso   1.000  H
  H10      1.0000 0.12490  0.55830  0.88570  Biso   1.000  H
  H11      1.0000 0.44170  0.56660  0.88570  Biso   1.000  H
  H12      1.0000 0.43340  0.87510  0.88570  Biso   1.000  H
  H13      1.0000 0.79157  0.89163  0.21903  Biso   1.000  H
  H14      1.0000 0.10837  0.89993  0.21903  Biso   1.000  H
  H15      1.0000 0.10007  0.20843  0.21903  Biso   1.000  H
  H16      1.0000 0.45823  0.22497  0.55237  Biso   1.000  H
  H17      1.0000 0.77503  0.23327  0.55237  Biso   1.000  H
  H18      1.0000 0.76673  0.54177  0.55237  Biso   1.000  H
  C19      1.0000 0.86260  0.32900  0.13080  Biso   1.000  C
  C20      1.0000 0.67100  0.53360  0.13080  Biso   1.000  C
  C21      1.0000 0.46640  0.13740  0.13080  Biso   1.000  C
  C22      1.0000 0.52927  0.66233  0.46413  Biso   1.000  C
  C23      1.0000 0.33767  0.86693  0.46413  Biso   1.000  C
  C24      1.0000 0.13307  0.47073  0.46413  Biso   1.000  C
  C25      1.0000 0.19593  0.99567  0.79747  Biso   1.000  C
  C26      1.0000 0.00433  0.20027  0.79747  Biso   1.000  C
  C27      1.0000 0.79973  0.80407  0.79747  Biso   1.000  C
  C28      1.0000 0.13740  0.67100  0.86920  Biso   1.000  C
  C29      1.0000 0.32900  0.46640  0.86920  Biso   1.000  C
  C30      1.0000 0.53360  0.86260  0.86920  Biso   1.000  C
  C31      1.0000 0.80407  0.00433  0.20253  Biso   1.000  C
  C32      1.0000 0.99567  0.79973  0.20253  Biso   1.000  C
  C33      1.0000 0.20027  0.19593  0.20253  Biso   1.000  C
  C34      1.0000 0.47073  0.33767  0.53587  Biso   1.000  C
  C35      1.0000 0.66233  0.13307  0.53587  Biso   1.000  C
  C36      1.0000 0.86693  0.52927  0.53587  Biso   1.000  C
  C37      1.0000 0.98460  0.33100  0.18210  Biso   1.000  C
  C38      1.0000 0.66900  0.65360  0.18210  Biso   1.000  C
  C39      1.0000 0.34640  0.01540  0.18210  Biso   1.000  C
  C40      1.0000 0.65127  0.66433  0.51543  Biso   1.000  C
  C41      1.0000 0.33567  0.98693  0.51543  Biso   1.000  C
  C42      1.0000 0.01307  0.34873  0.51543  Biso   1.000  C
  C43      1.0000 0.31793  0.99767  0.84877  Biso   1.000  C
  C44      1.0000 0.00233  0.32027  0.84877  Biso   1.000  C
  C45      1.0000 0.67973  0.68207  0.84877  Biso   1.000  C
  C46      1.0000 0.01540  0.66900  0.81790  Biso   1.000  C
  C47      1.0000 0.33100  0.34640  0.81790  Biso   1.000  C
  C48      1.0000 0.65360  0.98460  0.81790  Biso   1.000  C
  C49      1.0000 0.68207  0.00233  0.15123  Biso   1.000  C
  C50      1.0000 0.99767  0.67973  0.15123  Biso   1.000  C
  C51      1.0000 0.32027  0.31793  0.15123  Biso   1.000  C
  C52      1.0000 0.34873  0.33567  0.48457  Biso   1.000  C
  C53      1.0000 0.66433  0.01307  0.48457  Biso   1.000  C
  C54      1.0000 0.98693  0.65127  0.48457  Biso   1.000  C
  H19      1.0000 0.01180  0.30210  0.20230  Biso   1.000  H
  H20      1.0000 0.69790  0.70970  0.20230  Biso   1.000  H
  H21      1.0000 0.29030  0.98820  0.20230  Biso   1.000  H
  H22      1.0000 0.67847  0.63543  0.53563  Biso   1.000  H
  H23      1.0000 0.36457  0.04303  0.53563  Biso   1.000  H
  H24      1.0000 0.95697  0.32153  0.53563  Biso   1.000  H
  H25      1.0000 0.34513  0.96877  0.86897  Biso   1.000  H
  H26      1.0000 0.03123  0.37637  0.86897  Biso   1.000  H
  H27      1.0000 0.62363  0.65487  0.86897  Biso   1.000  H
  H28      1.0000 0.98820  0.69790  0.79770  Biso   1.000  H
  H29      1.0000 0.30210  0.29030  0.79770  Biso   1.000  H
  H30      1.0000 0.70970  0.01180  0.79770  Biso   1.000  H
  H31      1.0000 0.65487  0.03123  0.13103  Biso   1.000  H
  H32      1.0000 0.96877  0.62363  0.13103  Biso   1.000  H
  H33      1.0000 0.37637  0.34513  0.13103  Biso   1.000  H
  H34      1.0000 0.32153  0.36457  0.46437  Biso   1.000  H
  H35      1.0000 0.63543  0.95697  0.46437  Biso   1.000  H
  H36      1.0000 0.04303  0.67847  0.46437  Biso   1.000  H
  C55      1.0000 0.02890  0.41490  0.17490  Biso   1.000  C
  C56      1.0000 0.58510  0.61400  0.17490  Biso   1.000  C
  C57      1.0000 0.38600  0.97110  0.17490  Biso   1.000  C
  C58      1.0000 0.69557  0.74823  0.50823  Biso   1.000  C
  C59      1.0000 0.25177  0.94733  0.50823  Biso   1.000  C
  C60      1.0000 0.05267  0.30443  0.50823  Biso   1.000  C
  C61      1.0000 0.36223  0.08157  0.84157  Biso   1.000  C
  C62      1.0000 0.91843  0.28067  0.84157  Biso   1.000  C
  C63      1.0000 0.71933  0.63777  0.84157  Biso   1.000  C
  C64      1.0000 0.97110  0.58510  0.82510  Biso   1.000  C
  C65      1.0000 0.41490  0.38600  0.82510  Biso   1.000  C
  C66      1.0000 0.61400  0.02890  0.82510  Biso   1.000  C
  C67      1.0000 0.63777  0.91843  0.15843  Biso   1.000  C
  C68      1.0000 0.08157  0.71933  0.15843  Biso   1.000  C
  C69      1.0000 0.28067  0.36223  0.15843  Biso   1.000  C
  C70      1.0000 0.30443  0.25177  0.49177  Biso   1.000  C
  C71      1.0000 0.74823  0.05267  0.49177  Biso   1.000  C
  C72      1.0000 0.94733  0.69557  0.49177  Biso   1.000  C
  H37      1.0000 0.08600  0.44280  0.18580  Biso   1.000  H
  H38      1.0000 0.55720  0.64320  0.18580  Biso   1.000  H
  H39      1.0000 0.35680  0.91400  0.18580  Biso   1.000  H
  H40      1.0000 0.75267  0.77613  0.51913  Biso   1.000  H
  H41      1.0000 0.22387  0.97653  0.51913  Biso   1.000  H
  H42      1.0000 0.02347  0.24733  0.51913  Biso   1.000  H
  H43      1.0000 0.41933  0.10947  0.85247  Biso   1.000  H
  H44      1.0000 0.89053  0.30987  0.85247  Biso   1.000  H
  H45      1.0000 0.69013  0.58067  0.85247  Biso   1.000  H
  H46      1.0000 0.91400  0.55720  0.81420  Biso   1.000  H
  H47      1.0000 0.44280  0.35680  0.81420  Biso   1.000  H
  H48      1.0000 0.64320  0.08600  0.81420  Biso   1.000  H
  H49      1.0000 0.58067  0.89053  0.14753  Biso   1.000  H
  H50      1.0000 0.10947  0.69013  0.14753  Biso   1.000  H
  H51      1.0000 0.30987  0.41933  0.14753  Biso   1.000  H
  H52      1.0000 0.24733  0.22387  0.48087  Biso   1.000  H
  H53      1.0000 0.77613  0.02347  0.48087  Biso   1.000  H
  H54      1.0000 0.97653  0.75267  0.48087  Biso   1.000  H
  C73      1.0000 0.98840  0.45770  0.15150  Biso   1.000  C
  C74      1.0000 0.54230  0.53070  0.15150  Biso   1.000  C
  C75      1.0000 0.46930  0.01160  0.15150  Biso   1.000  C
  C76      1.0000 0.65507  0.79103  0.48483  Biso   1.000  C
  C77      1.0000 0.20897  0.86403  0.48483  Biso   1.000  C
  C78      1.0000 0.13597  0.34493  0.48483  Biso   1.000  C
  C79      1.0000 0.32173  0.12437  0.81817  Biso   1.000  C
  C80      1.0000 0.87563  0.19737  0.81817  Biso   1.000  C
  C81      1.0000 0.80263  0.67827  0.81817  Biso   1.000  C
  C82      1.0000 0.01160  0.54230  0.84850  Biso   1.000  C
  C83      1.0000 0.45770  0.46930  0.84850  Biso   1.000  C
  C84      1.0000 0.53070  0.98840  0.84850  Biso   1.000  C
  C85      1.0000 0.67827  0.87563  0.18183  Biso   1.000  C
  C86      1.0000 0.12437  0.80263  0.18183  Biso   1.000  C
  C87      1.0000 0.19737  0.32173  0.18183  Biso   1.000  C
  C88      1.0000 0.34493  0.20897  0.51517  Biso   1.000  C
  C89      1.0000 0.79103  0.13597  0.51517  Biso   1.000  C
  C90      1.0000 0.86403  0.65507  0.51517  Biso   1.000  C
  H55      1.0000 0.01710  0.51520  0.15020  Biso   1.000  H
  H56      1.0000 0.48480  0.50190  0.15020  Biso   1.000  H
  H57      1.0000 0.49810  0.98290  0.15020  Biso   1.000  H
  H58      1.0000 0.68377  0.84853  0.48353  Biso   1.000  H
  H59      1.0000 0.15147  0.83523  0.48353  Biso   1.000  H
  H60      1.0000 0.16477  0.31623  0.48353  Biso   1.000  H
  H61      1.0000 0.35043  0.18187  0.81687  Biso   1.000  H
  H62      1.0000 0.81813  0.16857  0.81687  Biso   1.000  H
  H63      1.0000 0.83143  0.64957  0.81687  Biso   1.000  H
  H64      1.0000 0.98290  0.48480  0.84980  Biso   1.000  H
  H65      1.0000 0.51520  0.49810  0.84980  Biso   1.000  H
  H66      1.0000 0.50190  0.01710  0.84980  Biso   1.000  H
  H67      1.0000 0.64957  0.81813  0.18313  Biso   1.000  H
  H68      1.0000 0.18187  0.83143  0.18313  Biso   1.000  H
  H69      1.0000 0.16857  0.35043  0.18313  Biso   1.000  H
  H70      1.0000 0.31623  0.15147  0.51647  Biso   1.000  H
  H71      1.0000 0.84853  0.16477  0.51647  Biso   1.000  H
  H72      1.0000 0.83523  0.68377  0.51647  Biso   1.000  H
