data_image0
_cell_length_a       16.2376
_cell_length_b       16.2376
_cell_length_c       16.2376
_cell_angle_alpha    90
_cell_angle_beta     90
_cell_angle_gamma    90

_symmetry_space_group_name_H-M    "P 1"
_symmetry_int_tables_number       1

loop_
  _symmetry_equiv_pos_as_xyz
  'x, y, z'

loop_
  _atom_site_label
  _atom_site_occupancy
  _atom_site_fract_x
  _atom_site_fract_y
  _atom_site_fract_z
  _atom_site_thermal_displace_type
  _atom_site_B_iso_or_equiv
  _atom_site_type_symbol
  Ce1      1.0000 0.38017  0.61983  0.11983  Biso   1.000  Ce
  Ce2      1.0000 0.11983  0.38017  0.61983  Biso   1.000  Ce
  Ce3      1.0000 0.61983  0.11983  0.38017  Biso   1.000  Ce
  Ce4      1.0000 0.88017  0.88017  0.88017  Biso   1.000  Ce
  Ce5      1.0000 0.88017  0.11983  0.61983  Biso   1.000  Ce
  Ce6      1.0000 0.61983  0.88017  0.11983  Biso   1.000  Ce
  Ce7      1.0000 0.11983  0.61983  0.88017  Biso   1.000  Ce
  Ce8      1.0000 0.38017  0.38017  0.38017  Biso   1.000  Ce
  Cu1      1.0000 0.50000  0.75000  0.26659  Biso   1.000  Cu
  Cu2      1.0000 0.00000  0.25000  0.76659  Biso   1.000  Cu
  Cu3      1.0000 0.50000  0.25000  0.23341  Biso   1.000  Cu
  Cu4      1.0000 0.00000  0.75000  0.73341  Biso   1.000  Cu
  Cu5      1.0000 0.26659  0.50000  0.75000  Biso   1.000  Cu
  Cu6      1.0000 0.76659  0.00000  0.25000  Biso   1.000  Cu
  Cu7      1.0000 0.23341  0.50000  0.25000  Biso   1.000  Cu
  Cu8      1.0000 0.73341  0.00000  0.75000  Biso   1.000  Cu
  Cu9      1.0000 0.75000  0.26659  0.50000  Biso   1.000  Cu
  Cu10     1.0000 0.25000  0.76659  0.00000  Biso   1.000  Cu
  Cu11     1.0000 0.25000  0.23341  0.50000  Biso   1.000  Cu
  Cu12     1.0000 0.75000  0.73341  0.00000  Biso   1.000  Cu
  P1       1.0000 0.40341  0.59764  0.31662  Biso   1.000  P
  P2       1.0000 0.09659  0.40236  0.81662  Biso   1.000  P
  P3       1.0000 0.59659  0.09764  0.18338  Biso   1.000  P
  P4       1.0000 0.90341  0.90236  0.68338  Biso   1.000  P
  P5       1.0000 0.31662  0.40341  0.59764  Biso   1.000  P
  P6       1.0000 0.81662  0.09659  0.40236  Biso   1.000  P
  P7       1.0000 0.18338  0.59659  0.09764  Biso   1.000  P
  P8       1.0000 0.68338  0.90341  0.90236  Biso   1.000  P
  P9       1.0000 0.59764  0.31662  0.40341  Biso   1.000  P
  P10      1.0000 0.40236  0.81662  0.09659  Biso   1.000  P
  P11      1.0000 0.09764  0.18338  0.59659  Biso   1.000  P
  P12      1.0000 0.90236  0.68338  0.90341  Biso   1.000  P
  P13      1.0000 0.90341  0.09764  0.81662  Biso   1.000  P
  P14      1.0000 0.59659  0.90236  0.31662  Biso   1.000  P
  P15      1.0000 0.09659  0.59764  0.68338  Biso   1.000  P
  P16      1.0000 0.40341  0.40236  0.18338  Biso   1.000  P
  P17      1.0000 0.81662  0.90341  0.09764  Biso   1.000  P
  P18      1.0000 0.31662  0.59659  0.90236  Biso   1.000  P
  P19      1.0000 0.68338  0.09659  0.59764  Biso   1.000  P
  P20      1.0000 0.18338  0.40341  0.40236  Biso   1.000  P
  P21      1.0000 0.09764  0.81662  0.90341  Biso   1.000  P
  P22      1.0000 0.90236  0.31662  0.59659  Biso   1.000  P
  P23      1.0000 0.59764  0.68338  0.09659  Biso   1.000  P
  P24      1.0000 0.40236  0.18338  0.40341  Biso   1.000  P
  N1       1.0000 0.41120  0.75030  0.37380  Biso   1.000  N
  N2       1.0000 0.08880  0.24970  0.87380  Biso   1.000  N
  N3       1.0000 0.58880  0.25030  0.12620  Biso   1.000  N
  N4       1.0000 0.91120  0.74970  0.62620  Biso   1.000  N
  N5       1.0000 0.37380  0.41120  0.75030  Biso   1.000  N
  N6       1.0000 0.87380  0.08880  0.24970  Biso   1.000  N
  N7       1.0000 0.12620  0.58880  0.25030  Biso   1.000  N
  N8       1.0000 0.62620  0.91120  0.74970  Biso   1.000  N
  N9       1.0000 0.75030  0.37380  0.41120  Biso   1.000  N
  N10      1.0000 0.24970  0.87380  0.08880  Biso   1.000  N
  N11      1.0000 0.25030  0.12620  0.58880  Biso   1.000  N
  N12      1.0000 0.74970  0.62620  0.91120  Biso   1.000  N
  N13      1.0000 0.91120  0.25030  0.87380  Biso   1.000  N
  N14      1.0000 0.58880  0.74970  0.37380  Biso   1.000  N
  N15      1.0000 0.08880  0.75030  0.62620  Biso   1.000  N
  N16      1.0000 0.41120  0.24970  0.12620  Biso   1.000  N
  N17      1.0000 0.87380  0.91120  0.25030  Biso   1.000  N
  N18      1.0000 0.37380  0.58880  0.74970  Biso   1.000  N
  N19      1.0000 0.62620  0.08880  0.75030  Biso   1.000  N
  N20      1.0000 0.12620  0.41120  0.24970  Biso   1.000  N
  N21      1.0000 0.25030  0.87380  0.91120  Biso   1.000  N
  N22      1.0000 0.74970  0.37380  0.58880  Biso   1.000  N
  N23      1.0000 0.75030  0.62620  0.08880  Biso   1.000  N
  N24      1.0000 0.24970  0.12620  0.41120  Biso   1.000  N
  O1       1.0000 0.47250  0.63180  0.26350  Biso   1.000  O
  O2       1.0000 0.02750  0.36820  0.76350  Biso   1.000  O
  O3       1.0000 0.52750  0.13180  0.23650  Biso   1.000  O
  O4       1.0000 0.97250  0.86820  0.73650  Biso   1.000  O
  O5       1.0000 0.26350  0.47250  0.63180  Biso   1.000  O
  O6       1.0000 0.76350  0.02750  0.36820  Biso   1.000  O
  O7       1.0000 0.23650  0.52750  0.13180  Biso   1.000  O
  O8       1.0000 0.73650  0.97250  0.86820  Biso   1.000  O
  O9       1.0000 0.63180  0.26350  0.47250  Biso   1.000  O
  O10      1.0000 0.36820  0.76350  0.02750  Biso   1.000  O
  O11      1.0000 0.13180  0.23650  0.52750  Biso   1.000  O
  O12      1.0000 0.86820  0.73650  0.97250  Biso   1.000  O
  O13      1.0000 0.97250  0.13180  0.76350  Biso   1.000  O
  O14      1.0000 0.52750  0.86820  0.26350  Biso   1.000  O
  O15      1.0000 0.02750  0.63180  0.73650  Biso   1.000  O
  O16      1.0000 0.47250  0.36820  0.23650  Biso   1.000  O
  O17      1.0000 0.76350  0.97250  0.13180  Biso   1.000  O
  O18      1.0000 0.26350  0.52750  0.86820  Biso   1.000  O
  O19      1.0000 0.73650  0.02750  0.63180  Biso   1.000  O
  O20      1.0000 0.23650  0.47250  0.36820  Biso   1.000  O
  O21      1.0000 0.13180  0.76350  0.97250  Biso   1.000  O
  O22      1.0000 0.86820  0.26350  0.52750  Biso   1.000  O
  O23      1.0000 0.63180  0.73650  0.02750  Biso   1.000  O
  O24      1.0000 0.36820  0.23650  0.47250  Biso   1.000  O
  O25      1.0000 0.32540  0.59300  0.26360  Biso   1.000  O
  O26      1.0000 0.17460  0.40700  0.76360  Biso   1.000  O
  O27      1.0000 0.67460  0.09300  0.23640  Biso   1.000  O
  O28      1.0000 0.82540  0.90700  0.73640  Biso   1.000  O
  O29      1.0000 0.26360  0.32540  0.59300  Biso   1.000  O
  O30      1.0000 0.76360  0.17460  0.40700  Biso   1.000  O
  O31      1.0000 0.23640  0.67460  0.09300  Biso   1.000  O
  O32      1.0000 0.73640  0.82540  0.90700  Biso   1.000  O
  O33      1.0000 0.59300  0.26360  0.32540  Biso   1.000  O
  O34      1.0000 0.40700  0.76360  0.17460  Biso   1.000  O
  O35      1.0000 0.09300  0.23640  0.67460  Biso   1.000  O
  O36      1.0000 0.90700  0.73640  0.82540  Biso   1.000  O
  O37      1.0000 0.82540  0.09300  0.76360  Biso   1.000  O
  O38      1.0000 0.67460  0.90700  0.26360  Biso   1.000  O
  O39      1.0000 0.17460  0.59300  0.73640  Biso   1.000  O
  O40      1.0000 0.32540  0.40700  0.23640  Biso   1.000  O
  O41      1.0000 0.76360  0.82540  0.09300  Biso   1.000  O
  O42      1.0000 0.26360  0.67460  0.90700  Biso   1.000  O
  O43      1.0000 0.73640  0.17460  0.59300  Biso   1.000  O
  O44      1.0000 0.23640  0.32540  0.40700  Biso   1.000  O
  O45      1.0000 0.09300  0.76360  0.82540  Biso   1.000  O
  O46      1.0000 0.90700  0.26360  0.67460  Biso   1.000  O
  O47      1.0000 0.59300  0.73640  0.17460  Biso   1.000  O
  O48      1.0000 0.40700  0.23640  0.32540  Biso   1.000  O
  O49      1.0000 0.42430  0.51840  0.36020  Biso   1.000  O
  O50      1.0000 0.07570  0.48160  0.86020  Biso   1.000  O
  O51      1.0000 0.57570  0.01840  0.13980  Biso   1.000  O
  O52      1.0000 0.92430  0.98160  0.63980  Biso   1.000  O
  O53      1.0000 0.36020  0.42430  0.51840  Biso   1.000  O
  O54      1.0000 0.86020  0.07570  0.48160  Biso   1.000  O
  O55      1.0000 0.13980  0.57570  0.01840  Biso   1.000  O
  O56      1.0000 0.63980  0.92430  0.98160  Biso   1.000  O
  O57      1.0000 0.51840  0.36020  0.42430  Biso   1.000  O
  O58      1.0000 0.48160  0.86020  0.07570  Biso   1.000  O
  O59      1.0000 0.01840  0.13980  0.57570  Biso   1.000  O
  O60      1.0000 0.98160  0.63980  0.92430  Biso   1.000  O
  O61      1.0000 0.92430  0.01840  0.86020  Biso   1.000  O
  O62      1.0000 0.57570  0.98160  0.36020  Biso   1.000  O
  O63      1.0000 0.07570  0.51840  0.63980  Biso   1.000  O
  O64      1.0000 0.42430  0.48160  0.13980  Biso   1.000  O
  O65      1.0000 0.86020  0.92430  0.01840  Biso   1.000  O
  O66      1.0000 0.36020  0.57570  0.98160  Biso   1.000  O
  O67      1.0000 0.63980  0.07570  0.51840  Biso   1.000  O
  O68      1.0000 0.13980  0.42430  0.48160  Biso   1.000  O
  O69      1.0000 0.01840  0.86020  0.92430  Biso   1.000  O
  O70      1.0000 0.98160  0.36020  0.57570  Biso   1.000  O
  O71      1.0000 0.51840  0.63980  0.07570  Biso   1.000  O
  O72      1.0000 0.48160  0.13980  0.42430  Biso   1.000  O
  O73      1.0000 0.22900  0.77100  0.27100  Biso   1.000  O
  O74      1.0000 0.27100  0.22900  0.77100  Biso   1.000  O
  O75      1.0000 0.77100  0.27100  0.22900  Biso   1.000  O
  O76      1.0000 0.72900  0.72900  0.72900  Biso   1.000  O
  O77      1.0000 0.72900  0.27100  0.77100  Biso   1.000  O
  O78      1.0000 0.77100  0.72900  0.27100  Biso   1.000  O
  O79      1.0000 0.27100  0.77100  0.72900  Biso   1.000  O
  O80      1.0000 0.22900  0.22900  0.22900  Biso   1.000  O
  H1       1.0000 0.20960  0.81250  0.29640  Biso   1.000  H
  H2       1.0000 0.29040  0.18750  0.79640  Biso   1.000  H
  H3       1.0000 0.79040  0.31250  0.20360  Biso   1.000  H
  H4       1.0000 0.70960  0.68750  0.70360  Biso   1.000  H
  H5       1.0000 0.29640  0.20960  0.81250  Biso   1.000  H
  H6       1.0000 0.79640  0.29040  0.18750  Biso   1.000  H
  H7       1.0000 0.20360  0.79040  0.31250  Biso   1.000  H
  H8       1.0000 0.70360  0.70960  0.68750  Biso   1.000  H
  H9       1.0000 0.81250  0.29640  0.20960  Biso   1.000  H
  H10      1.0000 0.18750  0.79640  0.29040  Biso   1.000  H
  H11      1.0000 0.31250  0.20360  0.79040  Biso   1.000  H
  H12      1.0000 0.68750  0.70360  0.70960  Biso   1.000  H
  H13      1.0000 0.70960  0.31250  0.79640  Biso   1.000  H
  H14      1.0000 0.79040  0.68750  0.29640  Biso   1.000  H
  H15      1.0000 0.29040  0.81250  0.70360  Biso   1.000  H
  H16      1.0000 0.20960  0.18750  0.20360  Biso   1.000  H
  H17      1.0000 0.79640  0.70960  0.31250  Biso   1.000  H
  H18      1.0000 0.29640  0.79040  0.68750  Biso   1.000  H
  H19      1.0000 0.70360  0.29040  0.81250  Biso   1.000  H
  H20      1.0000 0.20360  0.20960  0.18750  Biso   1.000  H
  H21      1.0000 0.31250  0.79640  0.70960  Biso   1.000  H
  H22      1.0000 0.68750  0.29640  0.79040  Biso   1.000  H
  H23      1.0000 0.81250  0.70360  0.29040  Biso   1.000  H
  H24      1.0000 0.18750  0.20360  0.20960  Biso   1.000  H
  H25      1.0000 0.24970  0.78650  0.22550  Biso   1.000  H
  H26      1.0000 0.25030  0.21350  0.72550  Biso   1.000  H
  H27      1.0000 0.75030  0.28650  0.27450  Biso   1.000  H
  H28      1.0000 0.74970  0.71350  0.77450  Biso   1.000  H
  H29      1.0000 0.22550  0.24970  0.78650  Biso   1.000  H
  H30      1.0000 0.72550  0.25030  0.21350  Biso   1.000  H
  H31      1.0000 0.27450  0.75030  0.28650  Biso   1.000  H
  H32      1.0000 0.77450  0.74970  0.71350  Biso   1.000  H
  H33      1.0000 0.78650  0.22550  0.24970  Biso   1.000  H
  H34      1.0000 0.21350  0.72550  0.25030  Biso   1.000  H
  H35      1.0000 0.28650  0.27450  0.75030  Biso   1.000  H
  H36      1.0000 0.71350  0.77450  0.74970  Biso   1.000  H
  H37      1.0000 0.74970  0.28650  0.72550  Biso   1.000  H
  H38      1.0000 0.75030  0.71350  0.22550  Biso   1.000  H
  H39      1.0000 0.25030  0.78650  0.77450  Biso   1.000  H
  H40      1.0000 0.24970  0.21350  0.27450  Biso   1.000  H
  H41      1.0000 0.72550  0.74970  0.28650  Biso   1.000  H
  H42      1.0000 0.22550  0.75030  0.71350  Biso   1.000  H
  H43      1.0000 0.77450  0.25030  0.78650  Biso   1.000  H
  H44      1.0000 0.27450  0.24970  0.21350  Biso   1.000  H
  H45      1.0000 0.28650  0.72550  0.74970  Biso   1.000  H
  H46      1.0000 0.71350  0.22550  0.75030  Biso   1.000  H
  H47      1.0000 0.78650  0.77450  0.25030  Biso   1.000  H
  H48      1.0000 0.21350  0.27450  0.24970  Biso   1.000  H
  O81      1.0000 0.47740  0.97740  0.52260  Biso   1.000  O
  O82      1.0000 0.02260  0.02260  0.02260  Biso   1.000  O
  O83      1.0000 0.52260  0.47740  0.97740  Biso   1.000  O
  O84      1.0000 0.97740  0.52260  0.47740  Biso   1.000  O
  O85      1.0000 0.97740  0.47740  0.02260  Biso   1.000  O
  O86      1.0000 0.52260  0.52260  0.52260  Biso   1.000  O
  O87      1.0000 0.02260  0.97740  0.47740  Biso   1.000  O
  O88      1.0000 0.47740  0.02260  0.97740  Biso   1.000  O
  H49      1.0000 0.46110  0.97260  0.57210  Biso   1.000  H
  H50      1.0000 0.03890  0.02740  0.07210  Biso   1.000  H
  H51      1.0000 0.53890  0.47260  0.92790  Biso   1.000  H
  H52      1.0000 0.96110  0.52740  0.42790  Biso   1.000  H
  H53      1.0000 0.57210  0.46110  0.97260  Biso   1.000  H
  H54      1.0000 0.07210  0.03890  0.02740  Biso   1.000  H
  H55      1.0000 0.92790  0.53890  0.47260  Biso   1.000  H
  H56      1.0000 0.42790  0.96110  0.52740  Biso   1.000  H
  H57      1.0000 0.97260  0.57210  0.46110  Biso   1.000  H
  H58      1.0000 0.02740  0.07210  0.03890  Biso   1.000  H
  H59      1.0000 0.47260  0.92790  0.53890  Biso   1.000  H
  H60      1.0000 0.52740  0.42790  0.96110  Biso   1.000  H
  H61      1.0000 0.96110  0.47260  0.07210  Biso   1.000  H
  H62      1.0000 0.53890  0.52740  0.57210  Biso   1.000  H
  H63      1.0000 0.03890  0.97260  0.42790  Biso   1.000  H
  H64      1.0000 0.46110  0.02740  0.92790  Biso   1.000  H
  H65      1.0000 0.07210  0.96110  0.47260  Biso   1.000  H
  H66      1.0000 0.57210  0.53890  0.52740  Biso   1.000  H
  H67      1.0000 0.42790  0.03890  0.97260  Biso   1.000  H
  H68      1.0000 0.92790  0.46110  0.02740  Biso   1.000  H
  H69      1.0000 0.47260  0.07210  0.96110  Biso   1.000  H
  H70      1.0000 0.52740  0.57210  0.53890  Biso   1.000  H
  H71      1.0000 0.97260  0.42790  0.03890  Biso   1.000  H
  H72      1.0000 0.02740  0.92790  0.46110  Biso   1.000  H
  H73      1.0000 0.52970  0.97960  0.52150  Biso   1.000  H
  H74      1.0000 0.97030  0.02040  0.02150  Biso   1.000  H
  H75      1.0000 0.47030  0.47960  0.97850  Biso   1.000  H
  H76      1.0000 0.02970  0.52040  0.47850  Biso   1.000  H
  H77      1.0000 0.52150  0.52970  0.97960  Biso   1.000  H
  H78      1.0000 0.02150  0.97030  0.02040  Biso   1.000  H
  H79      1.0000 0.97850  0.47030  0.47960  Biso   1.000  H
  H80      1.0000 0.47850  0.02970  0.52040  Biso   1.000  H
  H81      1.0000 0.97960  0.52150  0.52970  Biso   1.000  H
  H82      1.0000 0.02040  0.02150  0.97030  Biso   1.000  H
  H83      1.0000 0.47960  0.97850  0.47030  Biso   1.000  H
  H84      1.0000 0.52040  0.47850  0.02970  Biso   1.000  H
  H85      1.0000 0.02970  0.47960  0.02150  Biso   1.000  H
  H86      1.0000 0.47030  0.52040  0.52150  Biso   1.000  H
  H87      1.0000 0.97030  0.97960  0.47850  Biso   1.000  H
  H88      1.0000 0.52970  0.02040  0.97850  Biso   1.000  H
  H89      1.0000 0.02150  0.02970  0.47960  Biso   1.000  H
  H90      1.0000 0.52150  0.47030  0.52040  Biso   1.000  H
  H91      1.0000 0.47850  0.97030  0.97960  Biso   1.000  H
  H92      1.0000 0.97850  0.52970  0.02040  Biso   1.000  H
  H93      1.0000 0.47960  0.02150  0.02970  Biso   1.000  H
  H94      1.0000 0.52040  0.52150  0.47030  Biso   1.000  H
  H95      1.0000 0.97960  0.47850  0.97030  Biso   1.000  H
  H96      1.0000 0.02040  0.97850  0.52970  Biso   1.000  H
  C1       1.0000 0.38840  0.67390  0.39670  Biso   1.000  C
  C2       1.0000 0.11160  0.32610  0.89670  Biso   1.000  C
  C3       1.0000 0.61160  0.17390  0.10330  Biso   1.000  C
  C4       1.0000 0.88840  0.82610  0.60330  Biso   1.000  C
  C5       1.0000 0.39670  0.38840  0.67390  Biso   1.000  C
  C6       1.0000 0.89670  0.11160  0.32610  Biso   1.000  C
  C7       1.0000 0.10330  0.61160  0.17390  Biso   1.000  C
  C8       1.0000 0.60330  0.88840  0.82610  Biso   1.000  C
  C9       1.0000 0.67390  0.39670  0.38840  Biso   1.000  C
  C10      1.0000 0.32610  0.89670  0.11160  Biso   1.000  C
  C11      1.0000 0.17390  0.10330  0.61160  Biso   1.000  C
  C12      1.0000 0.82610  0.60330  0.88840  Biso   1.000  C
  C13      1.0000 0.88840  0.17390  0.89670  Biso   1.000  C
  C14      1.0000 0.61160  0.82610  0.39670  Biso   1.000  C
  C15      1.0000 0.11160  0.67390  0.60330  Biso   1.000  C
  C16      1.0000 0.38840  0.32610  0.10330  Biso   1.000  C
  C17      1.0000 0.89670  0.88840  0.17390  Biso   1.000  C
  C18      1.0000 0.39670  0.61160  0.82610  Biso   1.000  C
  C19      1.0000 0.60330  0.11160  0.67390  Biso   1.000  C
  C20      1.0000 0.10330  0.38840  0.32610  Biso   1.000  C
  C21      1.0000 0.17390  0.89670  0.88840  Biso   1.000  C
  C22      1.0000 0.82610  0.39670  0.61160  Biso   1.000  C
  C23      1.0000 0.67390  0.60330  0.11160  Biso   1.000  C
  C24      1.0000 0.32610  0.10330  0.38840  Biso   1.000  C
  C25      1.0000 0.35560  0.65720  0.47000  Biso   1.000  C
  C26      1.0000 0.14440  0.34280  0.97000  Biso   1.000  C
  C27      1.0000 0.64440  0.15720  0.03000  Biso   1.000  C
  C28      1.0000 0.85560  0.84280  0.53000  Biso   1.000  C
  C29      1.0000 0.47000  0.35560  0.65720  Biso   1.000  C
  C30      1.0000 0.97000  0.14440  0.34280  Biso   1.000  C
  C31      1.0000 0.03000  0.64440  0.15720  Biso   1.000  C
  C32      1.0000 0.53000  0.85560  0.84280  Biso   1.000  C
  C33      1.0000 0.65720  0.47000  0.35560  Biso   1.000  C
  C34      1.0000 0.34280  0.97000  0.14440  Biso   1.000  C
  C35      1.0000 0.15720  0.03000  0.64440  Biso   1.000  C
  C36      1.0000 0.84280  0.53000  0.85560  Biso   1.000  C
  C37      1.0000 0.85560  0.15720  0.97000  Biso   1.000  C
  C38      1.0000 0.64440  0.84280  0.47000  Biso   1.000  C
  C39      1.0000 0.14440  0.65720  0.53000  Biso   1.000  C
  C40      1.0000 0.35560  0.34280  0.03000  Biso   1.000  C
  C41      1.0000 0.97000  0.85560  0.15720  Biso   1.000  C
  C42      1.0000 0.47000  0.64440  0.84280  Biso   1.000  C
  C43      1.0000 0.53000  0.14440  0.65720  Biso   1.000  C
  C44      1.0000 0.03000  0.35560  0.34280  Biso   1.000  C
  C45      1.0000 0.15720  0.97000  0.85560  Biso   1.000  C
  C46      1.0000 0.84280  0.47000  0.64440  Biso   1.000  C
  C47      1.0000 0.65720  0.53000  0.14440  Biso   1.000  C
  C48      1.0000 0.34280  0.03000  0.35560  Biso   1.000  C
  H97      1.0000 0.33900  0.60420  0.48420  Biso   1.000  H
  H98      1.0000 0.16100  0.39580  0.98420  Biso   1.000  H
  H99      1.0000 0.66100  0.10420  0.01580  Biso   1.000  H
  H100     1.0000 0.83900  0.89580  0.51580  Biso   1.000  H
  H101     1.0000 0.48420  0.33900  0.60420  Biso   1.000  H
  H102     1.0000 0.98420  0.16100  0.39580  Biso   1.000  H
  H103     1.0000 0.01580  0.66100  0.10420  Biso   1.000  H
  H104     1.0000 0.51580  0.83900  0.89580  Biso   1.000  H
  H105     1.0000 0.60420  0.48420  0.33900  Biso   1.000  H
  H106     1.0000 0.39580  0.98420  0.16100  Biso   1.000  H
  H107     1.0000 0.10420  0.01580  0.66100  Biso   1.000  H
  H108     1.0000 0.89580  0.51580  0.83900  Biso   1.000  H
  H109     1.0000 0.83900  0.10420  0.98420  Biso   1.000  H
  H110     1.0000 0.66100  0.89580  0.48420  Biso   1.000  H
  H111     1.0000 0.16100  0.60420  0.51580  Biso   1.000  H
  H112     1.0000 0.33900  0.39580  0.01580  Biso   1.000  H
  H113     1.0000 0.98420  0.83900  0.10420  Biso   1.000  H
  H114     1.0000 0.48420  0.66100  0.89580  Biso   1.000  H
  H115     1.0000 0.51580  0.16100  0.60420  Biso   1.000  H
  H116     1.0000 0.01580  0.33900  0.39580  Biso   1.000  H
  H117     1.0000 0.10420  0.98420  0.83900  Biso   1.000  H
  H118     1.0000 0.89580  0.48420  0.66100  Biso   1.000  H
  H119     1.0000 0.60420  0.51580  0.16100  Biso   1.000  H
  H120     1.0000 0.39580  0.01580  0.33900  Biso   1.000  H
  C49      1.0000 0.34720  0.72530  0.52590  Biso   1.000  C
  C50      1.0000 0.15280  0.27470  0.02590  Biso   1.000  C
  C51      1.0000 0.65280  0.22530  0.97410  Biso   1.000  C
  C52      1.0000 0.84720  0.77470  0.47410  Biso   1.000  C
  C53      1.0000 0.52590  0.34720  0.72530  Biso   1.000  C
  C54      1.0000 0.02590  0.15280  0.27470  Biso   1.000  C
  C55      1.0000 0.97410  0.65280  0.22530  Biso   1.000  C
  C56      1.0000 0.47410  0.84720  0.77470  Biso   1.000  C
  C57      1.0000 0.72530  0.52590  0.34720  Biso   1.000  C
  C58      1.0000 0.27470  0.02590  0.15280  Biso   1.000  C
  C59      1.0000 0.22530  0.97410  0.65280  Biso   1.000  C
  C60      1.0000 0.77470  0.47410  0.84720  Biso   1.000  C
  C61      1.0000 0.84720  0.22530  0.02590  Biso   1.000  C
  C62      1.0000 0.65280  0.77470  0.52590  Biso   1.000  C
  C63      1.0000 0.15280  0.72530  0.47410  Biso   1.000  C
  C64      1.0000 0.34720  0.27470  0.97410  Biso   1.000  C
  C65      1.0000 0.02590  0.84720  0.22530  Biso   1.000  C
  C66      1.0000 0.52590  0.65280  0.77470  Biso   1.000  C
  C67      1.0000 0.47410  0.15280  0.72530  Biso   1.000  C
  C68      1.0000 0.97410  0.34720  0.27470  Biso   1.000  C
  C69      1.0000 0.22530  0.02590  0.84720  Biso   1.000  C
  C70      1.0000 0.77470  0.52590  0.65280  Biso   1.000  C
  C71      1.0000 0.72530  0.47410  0.15280  Biso   1.000  C
  C72      1.0000 0.27470  0.97410  0.34720  Biso   1.000  C
  H121     1.0000 0.32640  0.71690  0.57860  Biso   1.000  H
  H122     1.0000 0.17360  0.28310  0.07860  Biso   1.000  H
  H123     1.0000 0.67360  0.21690  0.92140  Biso   1.000  H
  H124     1.0000 0.82640  0.78310  0.42140  Biso   1.000  H
  H125     1.0000 0.57860  0.32640  0.71690  Biso   1.000  H
  H126     1.0000 0.07860  0.17360  0.28310  Biso   1.000  H
  H127     1.0000 0.92140  0.67360  0.21690  Biso   1.000  H
  H128     1.0000 0.42140  0.82640  0.78310  Biso   1.000  H
  H129     1.0000 0.71690  0.57860  0.32640  Biso   1.000  H
  H130     1.0000 0.28310  0.07860  0.17360  Biso   1.000  H
  H131     1.0000 0.21690  0.92140  0.67360  Biso   1.000  H
  H132     1.0000 0.78310  0.42140  0.82640  Biso   1.000  H
  H133     1.0000 0.82640  0.21690  0.07860  Biso   1.000  H
  H134     1.0000 0.67360  0.78310  0.57860  Biso   1.000  H
  H135     1.0000 0.17360  0.71690  0.42140  Biso   1.000  H
  H136     1.0000 0.32640  0.28310  0.92140  Biso   1.000  H
  H137     1.0000 0.07860  0.82640  0.21690  Biso   1.000  H
  H138     1.0000 0.57860  0.67360  0.78310  Biso   1.000  H
  H139     1.0000 0.42140  0.17360  0.71690  Biso   1.000  H
  H140     1.0000 0.92140  0.32640  0.28310  Biso   1.000  H
  H141     1.0000 0.21690  0.07860  0.82640  Biso   1.000  H
  H142     1.0000 0.78310  0.57860  0.67360  Biso   1.000  H
  H143     1.0000 0.71690  0.42140  0.17360  Biso   1.000  H
  H144     1.0000 0.28310  0.92140  0.32640  Biso   1.000  H
  C73      1.0000 0.36890  0.79900  0.50230  Biso   1.000  C
  C74      1.0000 0.13110  0.20100  0.00230  Biso   1.000  C
  C75      1.0000 0.63110  0.29900  0.99770  Biso   1.000  C
  C76      1.0000 0.86890  0.70100  0.49770  Biso   1.000  C
  C77      1.0000 0.50230  0.36890  0.79900  Biso   1.000  C
  C78      1.0000 0.00230  0.13110  0.20100  Biso   1.000  C
  C79      1.0000 0.99770  0.63110  0.29900  Biso   1.000  C
  C80      1.0000 0.49770  0.86890  0.70100  Biso   1.000  C
  C81      1.0000 0.79900  0.50230  0.36890  Biso   1.000  C
  C82      1.0000 0.20100  0.00230  0.13110  Biso   1.000  C
  C83      1.0000 0.29900  0.99770  0.63110  Biso   1.000  C
  C84      1.0000 0.70100  0.49770  0.86890  Biso   1.000  C
  C85      1.0000 0.86890  0.29900  0.00230  Biso   1.000  C
  C86      1.0000 0.63110  0.70100  0.50230  Biso   1.000  C
  C87      1.0000 0.13110  0.79900  0.49770  Biso   1.000  C
  C88      1.0000 0.36890  0.20100  0.99770  Biso   1.000  C
  C89      1.0000 0.00230  0.86890  0.29900  Biso   1.000  C
  C90      1.0000 0.50230  0.63110  0.70100  Biso   1.000  C
  C91      1.0000 0.49770  0.13110  0.79900  Biso   1.000  C
  C92      1.0000 0.99770  0.36890  0.20100  Biso   1.000  C
  C93      1.0000 0.29900  0.00230  0.86890  Biso   1.000  C
  C94      1.0000 0.70100  0.50230  0.63110  Biso   1.000  C
  C95      1.0000 0.79900  0.49770  0.13110  Biso   1.000  C
  C96      1.0000 0.20100  0.99770  0.36890  Biso   1.000  C
  H145     1.0000 0.36100  0.84360  0.53730  Biso   1.000  H
  H146     1.0000 0.13900  0.15640  0.03730  Biso   1.000  H
  H147     1.0000 0.63900  0.34360  0.96270  Biso   1.000  H
  H148     1.0000 0.86100  0.65640  0.46270  Biso   1.000  H
  H149     1.0000 0.53730  0.36100  0.84360  Biso   1.000  H
  H150     1.0000 0.03730  0.13900  0.15640  Biso   1.000  H
  H151     1.0000 0.96270  0.63900  0.34360  Biso   1.000  H
  H152     1.0000 0.46270  0.86100  0.65640  Biso   1.000  H
  H153     1.0000 0.84360  0.53730  0.36100  Biso   1.000  H
  H154     1.0000 0.15640  0.03730  0.13900  Biso   1.000  H
  H155     1.0000 0.34360  0.96270  0.63900  Biso   1.000  H
  H156     1.0000 0.65640  0.46270  0.86100  Biso   1.000  H
  H157     1.0000 0.86100  0.34360  0.03730  Biso   1.000  H
  H158     1.0000 0.63900  0.65640  0.53730  Biso   1.000  H
  H159     1.0000 0.13900  0.84360  0.46270  Biso   1.000  H
  H160     1.0000 0.36100  0.15640  0.96270  Biso   1.000  H
  H161     1.0000 0.03730  0.86100  0.34360  Biso   1.000  H
  H162     1.0000 0.53730  0.63900  0.65640  Biso   1.000  H
  H163     1.0000 0.46270  0.13900  0.84360  Biso   1.000  H
  H164     1.0000 0.96270  0.36100  0.15640  Biso   1.000  H
  H165     1.0000 0.34360  0.03730  0.86100  Biso   1.000  H
  H166     1.0000 0.65640  0.53730  0.63900  Biso   1.000  H
  H167     1.0000 0.84360  0.46270  0.13900  Biso   1.000  H
  H168     1.0000 0.15640  0.96270  0.36100  Biso   1.000  H
  C97      1.0000 0.40340  0.81090  0.42610  Biso   1.000  C
  C98      1.0000 0.09660  0.18910  0.92610  Biso   1.000  C
  C99      1.0000 0.59660  0.31090  0.07390  Biso   1.000  C
  C100     1.0000 0.90340  0.68910  0.57390  Biso   1.000  C
  C101     1.0000 0.42610  0.40340  0.81090  Biso   1.000  C
  C102     1.0000 0.92610  0.09660  0.18910  Biso   1.000  C
  C103     1.0000 0.07390  0.59660  0.31090  Biso   1.000  C
  C104     1.0000 0.57390  0.90340  0.68910  Biso   1.000  C
  C105     1.0000 0.81090  0.42610  0.40340  Biso   1.000  C
  C106     1.0000 0.18910  0.92610  0.09660  Biso   1.000  C
  C107     1.0000 0.31090  0.07390  0.59660  Biso   1.000  C
  C108     1.0000 0.68910  0.57390  0.90340  Biso   1.000  C
  C109     1.0000 0.90340  0.31090  0.92610  Biso   1.000  C
  C110     1.0000 0.59660  0.68910  0.42610  Biso   1.000  C
  C111     1.0000 0.09660  0.81090  0.57390  Biso   1.000  C
  C112     1.0000 0.40340  0.18910  0.07390  Biso   1.000  C
  C113     1.0000 0.92610  0.90340  0.31090  Biso   1.000  C
  C114     1.0000 0.42610  0.59660  0.68910  Biso   1.000  C
  C115     1.0000 0.57390  0.09660  0.81090  Biso   1.000  C
  C116     1.0000 0.07390  0.40340  0.18910  Biso   1.000  C
  C117     1.0000 0.31090  0.92610  0.90340  Biso   1.000  C
  C118     1.0000 0.68910  0.42610  0.59660  Biso   1.000  C
  C119     1.0000 0.81090  0.57390  0.09660  Biso   1.000  C
  C120     1.0000 0.18910  0.07390  0.40340  Biso   1.000  C
  H169     1.0000 0.42160  0.86310  0.41130  Biso   1.000  H
  H170     1.0000 0.07840  0.13690  0.91130  Biso   1.000  H
  H171     1.0000 0.57840  0.36310  0.08870  Biso   1.000  H
  H172     1.0000 0.92160  0.63690  0.58870  Biso   1.000  H
  H173     1.0000 0.41130  0.42160  0.86310  Biso   1.000  H
  H174     1.0000 0.91130  0.07840  0.13690  Biso   1.000  H
  H175     1.0000 0.08870  0.57840  0.36310  Biso   1.000  H
  H176     1.0000 0.58870  0.92160  0.63690  Biso   1.000  H
  H177     1.0000 0.86310  0.41130  0.42160  Biso   1.000  H
  H178     1.0000 0.13690  0.91130  0.07840  Biso   1.000  H
  H179     1.0000 0.36310  0.08870  0.57840  Biso   1.000  H
  H180     1.0000 0.63690  0.58870  0.92160  Biso   1.000  H
  H181     1.0000 0.92160  0.36310  0.91130  Biso   1.000  H
  H182     1.0000 0.57840  0.63690  0.41130  Biso   1.000  H
  H183     1.0000 0.07840  0.86310  0.58870  Biso   1.000  H
  H184     1.0000 0.42160  0.13690  0.08870  Biso   1.000  H
  H185     1.0000 0.91130  0.92160  0.36310  Biso   1.000  H
  H186     1.0000 0.41130  0.57840  0.63690  Biso   1.000  H
  H187     1.0000 0.58870  0.07840  0.86310  Biso   1.000  H
  H188     1.0000 0.08870  0.42160  0.13690  Biso   1.000  H
  H189     1.0000 0.36310  0.91130  0.92160  Biso   1.000  H
  H190     1.0000 0.63690  0.41130  0.57840  Biso   1.000  H
  H191     1.0000 0.86310  0.58870  0.07840  Biso   1.000  H
  H192     1.0000 0.13690  0.08870  0.42160  Biso   1.000  H
