data_image0
_cell_length_a       16.1745
_cell_length_b       16.1745
_cell_length_c       16.1745
_cell_angle_alpha    90
_cell_angle_beta     90
_cell_angle_gamma    90

_symmetry_space_group_name_H-M    "P 1"
_symmetry_int_tables_number       1

loop_
  _symmetry_equiv_pos_as_xyz
  'x, y, z'

loop_
  _atom_site_label
  _atom_site_occupancy
  _atom_site_fract_x
  _atom_site_fract_y
  _atom_site_fract_z
  _atom_site_thermal_displace_type
  _atom_site_B_iso_or_equiv
  _atom_site_type_symbol
  Nd1      1.0000 0.37977  0.62023  0.12023  Biso   1.000  Nd
  Nd2      1.0000 0.12023  0.37977  0.62023  Biso   1.000  Nd
  Nd3      1.0000 0.62023  0.12023  0.37977  Biso   1.000  Nd
  Nd4      1.0000 0.87977  0.87977  0.87977  Biso   1.000  Nd
  Nd5      1.0000 0.87977  0.12023  0.62023  Biso   1.000  Nd
  Nd6      1.0000 0.62023  0.87977  0.12023  Biso   1.000  Nd
  Nd7      1.0000 0.12023  0.62023  0.87977  Biso   1.000  Nd
  Nd8      1.0000 0.37977  0.37977  0.37977  Biso   1.000  Nd
  Cu1      1.0000 0.50000  0.75000  0.26764  Biso   1.000  Cu
  Cu2      1.0000 0.00000  0.25000  0.76764  Biso   1.000  Cu
  Cu3      1.0000 0.50000  0.25000  0.23236  Biso   1.000  Cu
  Cu4      1.0000 0.00000  0.75000  0.73236  Biso   1.000  Cu
  Cu5      1.0000 0.26764  0.50000  0.75000  Biso   1.000  Cu
  Cu6      1.0000 0.76764  0.00000  0.25000  Biso   1.000  Cu
  Cu7      1.0000 0.23236  0.50000  0.25000  Biso   1.000  Cu
  Cu8      1.0000 0.73236  0.00000  0.75000  Biso   1.000  Cu
  Cu9      1.0000 0.75000  0.26764  0.50000  Biso   1.000  Cu
  Cu10     1.0000 0.25000  0.76764  0.00000  Biso   1.000  Cu
  Cu11     1.0000 0.25000  0.23236  0.50000  Biso   1.000  Cu
  Cu12     1.0000 0.75000  0.73236  0.00000  Biso   1.000  Cu
  P1       1.0000 0.40319  0.59663  0.31672  Biso   1.000  P
  P2       1.0000 0.09681  0.40337  0.81672  Biso   1.000  P
  P3       1.0000 0.59681  0.09663  0.18328  Biso   1.000  P
  P4       1.0000 0.90319  0.90337  0.68328  Biso   1.000  P
  P5       1.0000 0.31672  0.40319  0.59663  Biso   1.000  P
  P6       1.0000 0.81672  0.09681  0.40337  Biso   1.000  P
  P7       1.0000 0.18328  0.59681  0.09663  Biso   1.000  P
  P8       1.0000 0.68328  0.90319  0.90337  Biso   1.000  P
  P9       1.0000 0.59663  0.31672  0.40319  Biso   1.000  P
  P10      1.0000 0.40337  0.81672  0.09681  Biso   1.000  P
  P11      1.0000 0.09663  0.18328  0.59681  Biso   1.000  P
  P12      1.0000 0.90337  0.68328  0.90319  Biso   1.000  P
  P13      1.0000 0.90319  0.09663  0.81672  Biso   1.000  P
  P14      1.0000 0.59681  0.90337  0.31672  Biso   1.000  P
  P15      1.0000 0.09681  0.59663  0.68328  Biso   1.000  P
  P16      1.0000 0.40319  0.40337  0.18328  Biso   1.000  P
  P17      1.0000 0.81672  0.90319  0.09663  Biso   1.000  P
  P18      1.0000 0.31672  0.59681  0.90337  Biso   1.000  P
  P19      1.0000 0.68328  0.09681  0.59663  Biso   1.000  P
  P20      1.0000 0.18328  0.40319  0.40337  Biso   1.000  P
  P21      1.0000 0.09663  0.81672  0.90319  Biso   1.000  P
  P22      1.0000 0.90337  0.31672  0.59681  Biso   1.000  P
  P23      1.0000 0.59663  0.68328  0.09681  Biso   1.000  P
  P24      1.0000 0.40337  0.18328  0.40319  Biso   1.000  P
  N1       1.0000 0.41350  0.75420  0.37200  Biso   1.000  N
  N2       1.0000 0.08650  0.24580  0.87200  Biso   1.000  N
  N3       1.0000 0.58650  0.25420  0.12800  Biso   1.000  N
  N4       1.0000 0.91350  0.74580  0.62800  Biso   1.000  N
  N5       1.0000 0.37200  0.41350  0.75420  Biso   1.000  N
  N6       1.0000 0.87200  0.08650  0.24580  Biso   1.000  N
  N7       1.0000 0.12800  0.58650  0.25420  Biso   1.000  N
  N8       1.0000 0.62800  0.91350  0.74580  Biso   1.000  N
  N9       1.0000 0.75420  0.37200  0.41350  Biso   1.000  N
  N10      1.0000 0.24580  0.87200  0.08650  Biso   1.000  N
  N11      1.0000 0.25420  0.12800  0.58650  Biso   1.000  N
  N12      1.0000 0.74580  0.62800  0.91350  Biso   1.000  N
  N13      1.0000 0.91350  0.25420  0.87200  Biso   1.000  N
  N14      1.0000 0.58650  0.74580  0.37200  Biso   1.000  N
  N15      1.0000 0.08650  0.75420  0.62800  Biso   1.000  N
  N16      1.0000 0.41350  0.24580  0.12800  Biso   1.000  N
  N17      1.0000 0.87200  0.91350  0.25420  Biso   1.000  N
  N18      1.0000 0.37200  0.58650  0.74580  Biso   1.000  N
  N19      1.0000 0.62800  0.08650  0.75420  Biso   1.000  N
  N20      1.0000 0.12800  0.41350  0.24580  Biso   1.000  N
  N21      1.0000 0.25420  0.87200  0.91350  Biso   1.000  N
  N22      1.0000 0.74580  0.37200  0.58650  Biso   1.000  N
  N23      1.0000 0.75420  0.62800  0.08650  Biso   1.000  N
  N24      1.0000 0.24580  0.12800  0.41350  Biso   1.000  N
  O1       1.0000 0.47190  0.63140  0.26380  Biso   1.000  O
  O2       1.0000 0.02810  0.36860  0.76380  Biso   1.000  O
  O3       1.0000 0.52810  0.13140  0.23620  Biso   1.000  O
  O4       1.0000 0.97190  0.86860  0.73620  Biso   1.000  O
  O5       1.0000 0.26380  0.47190  0.63140  Biso   1.000  O
  O6       1.0000 0.76380  0.02810  0.36860  Biso   1.000  O
  O7       1.0000 0.23620  0.52810  0.13140  Biso   1.000  O
  O8       1.0000 0.73620  0.97190  0.86860  Biso   1.000  O
  O9       1.0000 0.63140  0.26380  0.47190  Biso   1.000  O
  O10      1.0000 0.36860  0.76380  0.02810  Biso   1.000  O
  O11      1.0000 0.13140  0.23620  0.52810  Biso   1.000  O
  O12      1.0000 0.86860  0.73620  0.97190  Biso   1.000  O
  O13      1.0000 0.97190  0.13140  0.76380  Biso   1.000  O
  O14      1.0000 0.52810  0.86860  0.26380  Biso   1.000  O
  O15      1.0000 0.02810  0.63140  0.73620  Biso   1.000  O
  O16      1.0000 0.47190  0.36860  0.23620  Biso   1.000  O
  O17      1.0000 0.76380  0.97190  0.13140  Biso   1.000  O
  O18      1.0000 0.26380  0.52810  0.86860  Biso   1.000  O
  O19      1.0000 0.73620  0.02810  0.63140  Biso   1.000  O
  O20      1.0000 0.23620  0.47190  0.36860  Biso   1.000  O
  O21      1.0000 0.13140  0.76380  0.97190  Biso   1.000  O
  O22      1.0000 0.86860  0.26380  0.52810  Biso   1.000  O
  O23      1.0000 0.63140  0.73620  0.02810  Biso   1.000  O
  O24      1.0000 0.36860  0.23620  0.47190  Biso   1.000  O
  O25      1.0000 0.32510  0.59330  0.26150  Biso   1.000  O
  O26      1.0000 0.17490  0.40670  0.76150  Biso   1.000  O
  O27      1.0000 0.67490  0.09330  0.23850  Biso   1.000  O
  O28      1.0000 0.82510  0.90670  0.73850  Biso   1.000  O
  O29      1.0000 0.26150  0.32510  0.59330  Biso   1.000  O
  O30      1.0000 0.76150  0.17490  0.40670  Biso   1.000  O
  O31      1.0000 0.23850  0.67490  0.09330  Biso   1.000  O
  O32      1.0000 0.73850  0.82510  0.90670  Biso   1.000  O
  O33      1.0000 0.59330  0.26150  0.32510  Biso   1.000  O
  O34      1.0000 0.40670  0.76150  0.17490  Biso   1.000  O
  O35      1.0000 0.09330  0.23850  0.67490  Biso   1.000  O
  O36      1.0000 0.90670  0.73850  0.82510  Biso   1.000  O
  O37      1.0000 0.82510  0.09330  0.76150  Biso   1.000  O
  O38      1.0000 0.67490  0.90670  0.26150  Biso   1.000  O
  O39      1.0000 0.17490  0.59330  0.73850  Biso   1.000  O
  O40      1.0000 0.32510  0.40670  0.23850  Biso   1.000  O
  O41      1.0000 0.76150  0.82510  0.09330  Biso   1.000  O
  O42      1.0000 0.26150  0.67490  0.90670  Biso   1.000  O
  O43      1.0000 0.73850  0.17490  0.59330  Biso   1.000  O
  O44      1.0000 0.23850  0.32510  0.40670  Biso   1.000  O
  O45      1.0000 0.09330  0.76150  0.82510  Biso   1.000  O
  O46      1.0000 0.90670  0.26150  0.67490  Biso   1.000  O
  O47      1.0000 0.59330  0.73850  0.17490  Biso   1.000  O
  O48      1.0000 0.40670  0.23850  0.32510  Biso   1.000  O
  O49      1.0000 0.42450  0.51640  0.36040  Biso   1.000  O
  O50      1.0000 0.07550  0.48360  0.86040  Biso   1.000  O
  O51      1.0000 0.57550  0.01640  0.13960  Biso   1.000  O
  O52      1.0000 0.92450  0.98360  0.63960  Biso   1.000  O
  O53      1.0000 0.36040  0.42450  0.51640  Biso   1.000  O
  O54      1.0000 0.86040  0.07550  0.48360  Biso   1.000  O
  O55      1.0000 0.13960  0.57550  0.01640  Biso   1.000  O
  O56      1.0000 0.63960  0.92450  0.98360  Biso   1.000  O
  O57      1.0000 0.51640  0.36040  0.42450  Biso   1.000  O
  O58      1.0000 0.48360  0.86040  0.07550  Biso   1.000  O
  O59      1.0000 0.01640  0.13960  0.57550  Biso   1.000  O
  O60      1.0000 0.98360  0.63960  0.92450  Biso   1.000  O
  O61      1.0000 0.92450  0.01640  0.86040  Biso   1.000  O
  O62      1.0000 0.57550  0.98360  0.36040  Biso   1.000  O
  O63      1.0000 0.07550  0.51640  0.63960  Biso   1.000  O
  O64      1.0000 0.42450  0.48360  0.13960  Biso   1.000  O
  O65      1.0000 0.86040  0.92450  0.01640  Biso   1.000  O
  O66      1.0000 0.36040  0.57550  0.98360  Biso   1.000  O
  O67      1.0000 0.63960  0.07550  0.51640  Biso   1.000  O
  O68      1.0000 0.13960  0.42450  0.48360  Biso   1.000  O
  O69      1.0000 0.01640  0.86040  0.92450  Biso   1.000  O
  O70      1.0000 0.98360  0.36040  0.57550  Biso   1.000  O
  O71      1.0000 0.51640  0.63960  0.07550  Biso   1.000  O
  O72      1.0000 0.48360  0.13960  0.42450  Biso   1.000  O
  O73      1.0000 0.22940  0.77060  0.27060  Biso   1.000  O
  O74      1.0000 0.27060  0.22940  0.77060  Biso   1.000  O
  O75      1.0000 0.77060  0.27060  0.22940  Biso   1.000  O
  O76      1.0000 0.72940  0.72940  0.72940  Biso   1.000  O
  O77      1.0000 0.72940  0.27060  0.77060  Biso   1.000  O
  O78      1.0000 0.77060  0.72940  0.27060  Biso   1.000  O
  O79      1.0000 0.27060  0.77060  0.72940  Biso   1.000  O
  O80      1.0000 0.22940  0.22940  0.22940  Biso   1.000  O
  H1       1.0000 0.20480  0.73390  0.24210  Biso   1.000  H
  H2       1.0000 0.29520  0.26610  0.74210  Biso   1.000  H
  H3       1.0000 0.79520  0.23390  0.25790  Biso   1.000  H
  H4       1.0000 0.70480  0.76610  0.75790  Biso   1.000  H
  H5       1.0000 0.24210  0.20480  0.73390  Biso   1.000  H
  H6       1.0000 0.74210  0.29520  0.26610  Biso   1.000  H
  H7       1.0000 0.25790  0.79520  0.23390  Biso   1.000  H
  H8       1.0000 0.75790  0.70480  0.76610  Biso   1.000  H
  H9       1.0000 0.73390  0.24210  0.20480  Biso   1.000  H
  H10      1.0000 0.26610  0.74210  0.29520  Biso   1.000  H
  H11      1.0000 0.23390  0.25790  0.79520  Biso   1.000  H
  H12      1.0000 0.76610  0.75790  0.70480  Biso   1.000  H
  H13      1.0000 0.70480  0.23390  0.74210  Biso   1.000  H
  H14      1.0000 0.79520  0.76610  0.24210  Biso   1.000  H
  H15      1.0000 0.29520  0.73390  0.75790  Biso   1.000  H
  H16      1.0000 0.20480  0.26610  0.25790  Biso   1.000  H
  H17      1.0000 0.74210  0.70480  0.23390  Biso   1.000  H
  H18      1.0000 0.24210  0.79520  0.76610  Biso   1.000  H
  H19      1.0000 0.75790  0.29520  0.73390  Biso   1.000  H
  H20      1.0000 0.25790  0.20480  0.26610  Biso   1.000  H
  H21      1.0000 0.23390  0.74210  0.70480  Biso   1.000  H
  H22      1.0000 0.76610  0.24210  0.79520  Biso   1.000  H
  H23      1.0000 0.73390  0.75790  0.29520  Biso   1.000  H
  H24      1.0000 0.26610  0.25790  0.20480  Biso   1.000  H
  H25      1.0000 0.19460  0.79490  0.30170  Biso   1.000  H
  H26      1.0000 0.30540  0.20510  0.80170  Biso   1.000  H
  H27      1.0000 0.80540  0.29490  0.19830  Biso   1.000  H
  H28      1.0000 0.69460  0.70510  0.69830  Biso   1.000  H
  H29      1.0000 0.30170  0.19460  0.79490  Biso   1.000  H
  H30      1.0000 0.80170  0.30540  0.20510  Biso   1.000  H
  H31      1.0000 0.19830  0.80540  0.29490  Biso   1.000  H
  H32      1.0000 0.69830  0.69460  0.70510  Biso   1.000  H
  H33      1.0000 0.79490  0.30170  0.19460  Biso   1.000  H
  H34      1.0000 0.20510  0.80170  0.30540  Biso   1.000  H
  H35      1.0000 0.29490  0.19830  0.80540  Biso   1.000  H
  H36      1.0000 0.70510  0.69830  0.69460  Biso   1.000  H
  H37      1.0000 0.69460  0.29490  0.80170  Biso   1.000  H
  H38      1.0000 0.80540  0.70510  0.30170  Biso   1.000  H
  H39      1.0000 0.30540  0.79490  0.69830  Biso   1.000  H
  H40      1.0000 0.19460  0.20510  0.19830  Biso   1.000  H
  H41      1.0000 0.80170  0.69460  0.29490  Biso   1.000  H
  H42      1.0000 0.30170  0.80540  0.70510  Biso   1.000  H
  H43      1.0000 0.69830  0.30540  0.79490  Biso   1.000  H
  H44      1.0000 0.19830  0.19460  0.20510  Biso   1.000  H
  H45      1.0000 0.29490  0.80170  0.69460  Biso   1.000  H
  H46      1.0000 0.70510  0.30170  0.80540  Biso   1.000  H
  H47      1.0000 0.79490  0.69830  0.30540  Biso   1.000  H
  H48      1.0000 0.20510  0.19830  0.19460  Biso   1.000  H
  O81      1.0000 0.47390  0.97390  0.52610  Biso   1.000  O
  O82      1.0000 0.02610  0.02610  0.02610  Biso   1.000  O
  O83      1.0000 0.52610  0.47390  0.97390  Biso   1.000  O
  O84      1.0000 0.97390  0.52610  0.47390  Biso   1.000  O
  O85      1.0000 0.97390  0.47390  0.02610  Biso   1.000  O
  O86      1.0000 0.52610  0.52610  0.52610  Biso   1.000  O
  O87      1.0000 0.02610  0.97390  0.47390  Biso   1.000  O
  O88      1.0000 0.47390  0.02610  0.97390  Biso   1.000  O
  H49      1.0000 0.52640  0.97610  0.52560  Biso   1.000  H
  H50      1.0000 0.97360  0.02390  0.02560  Biso   1.000  H
  H51      1.0000 0.47360  0.47610  0.97440  Biso   1.000  H
  H52      1.0000 0.02640  0.52390  0.47440  Biso   1.000  H
  H53      1.0000 0.52560  0.52640  0.97610  Biso   1.000  H
  H54      1.0000 0.02560  0.97360  0.02390  Biso   1.000  H
  H55      1.0000 0.97440  0.47360  0.47610  Biso   1.000  H
  H56      1.0000 0.47440  0.02640  0.52390  Biso   1.000  H
  H57      1.0000 0.97610  0.52560  0.52640  Biso   1.000  H
  H58      1.0000 0.02390  0.02560  0.97360  Biso   1.000  H
  H59      1.0000 0.47610  0.97440  0.47360  Biso   1.000  H
  H60      1.0000 0.52390  0.47440  0.02640  Biso   1.000  H
  H61      1.0000 0.02640  0.47610  0.02560  Biso   1.000  H
  H62      1.0000 0.47360  0.52390  0.52560  Biso   1.000  H
  H63      1.0000 0.97360  0.97610  0.47440  Biso   1.000  H
  H64      1.0000 0.52640  0.02390  0.97440  Biso   1.000  H
  H65      1.0000 0.02560  0.02640  0.47610  Biso   1.000  H
  H66      1.0000 0.52560  0.47360  0.52390  Biso   1.000  H
  H67      1.0000 0.47440  0.97360  0.97610  Biso   1.000  H
  H68      1.0000 0.97440  0.52640  0.02390  Biso   1.000  H
  H69      1.0000 0.47610  0.02560  0.02640  Biso   1.000  H
  H70      1.0000 0.52390  0.52560  0.47360  Biso   1.000  H
  H71      1.0000 0.97610  0.47440  0.97360  Biso   1.000  H
  H72      1.0000 0.02390  0.97440  0.52640  Biso   1.000  H
  H73      1.0000 0.45430  0.01810  0.50570  Biso   1.000  H
  H74      1.0000 0.04570  0.98190  0.00570  Biso   1.000  H
  H75      1.0000 0.54570  0.51810  0.99430  Biso   1.000  H
  H76      1.0000 0.95430  0.48190  0.49430  Biso   1.000  H
  H77      1.0000 0.50570  0.45430  0.01810  Biso   1.000  H
  H78      1.0000 0.00570  0.04570  0.98190  Biso   1.000  H
  H79      1.0000 0.99430  0.54570  0.51810  Biso   1.000  H
  H80      1.0000 0.49430  0.95430  0.48190  Biso   1.000  H
  H81      1.0000 0.01810  0.50570  0.45430  Biso   1.000  H
  H82      1.0000 0.98190  0.00570  0.04570  Biso   1.000  H
  H83      1.0000 0.51810  0.99430  0.54570  Biso   1.000  H
  H84      1.0000 0.48190  0.49430  0.95430  Biso   1.000  H
  H85      1.0000 0.95430  0.51810  0.00570  Biso   1.000  H
  H86      1.0000 0.54570  0.48190  0.50570  Biso   1.000  H
  H87      1.0000 0.04570  0.01810  0.49430  Biso   1.000  H
  H88      1.0000 0.45430  0.98190  0.99430  Biso   1.000  H
  H89      1.0000 0.00570  0.95430  0.51810  Biso   1.000  H
  H90      1.0000 0.50570  0.54570  0.48190  Biso   1.000  H
  H91      1.0000 0.49430  0.04570  0.01810  Biso   1.000  H
  H92      1.0000 0.99430  0.45430  0.98190  Biso   1.000  H
  H93      1.0000 0.51810  0.00570  0.95430  Biso   1.000  H
  H94      1.0000 0.48190  0.50570  0.54570  Biso   1.000  H
  H95      1.0000 0.01810  0.49430  0.04570  Biso   1.000  H
  H96      1.0000 0.98190  0.99430  0.45430  Biso   1.000  H
  C1       1.0000 0.38770  0.67360  0.39690  Biso   1.000  C
  C2       1.0000 0.11230  0.32640  0.89690  Biso   1.000  C
  C3       1.0000 0.61230  0.17360  0.10310  Biso   1.000  C
  C4       1.0000 0.88770  0.82640  0.60310  Biso   1.000  C
  C5       1.0000 0.39690  0.38770  0.67360  Biso   1.000  C
  C6       1.0000 0.89690  0.11230  0.32640  Biso   1.000  C
  C7       1.0000 0.10310  0.61230  0.17360  Biso   1.000  C
  C8       1.0000 0.60310  0.88770  0.82640  Biso   1.000  C
  C9       1.0000 0.67360  0.39690  0.38770  Biso   1.000  C
  C10      1.0000 0.32640  0.89690  0.11230  Biso   1.000  C
  C11      1.0000 0.17360  0.10310  0.61230  Biso   1.000  C
  C12      1.0000 0.82640  0.60310  0.88770  Biso   1.000  C
  C13      1.0000 0.88770  0.17360  0.89690  Biso   1.000  C
  C14      1.0000 0.61230  0.82640  0.39690  Biso   1.000  C
  C15      1.0000 0.11230  0.67360  0.60310  Biso   1.000  C
  C16      1.0000 0.38770  0.32640  0.10310  Biso   1.000  C
  C17      1.0000 0.89690  0.88770  0.17360  Biso   1.000  C
  C18      1.0000 0.39690  0.61230  0.82640  Biso   1.000  C
  C19      1.0000 0.60310  0.11230  0.67360  Biso   1.000  C
  C20      1.0000 0.10310  0.38770  0.32640  Biso   1.000  C
  C21      1.0000 0.17360  0.89690  0.88770  Biso   1.000  C
  C22      1.0000 0.82640  0.39690  0.61230  Biso   1.000  C
  C23      1.0000 0.67360  0.60310  0.11230  Biso   1.000  C
  C24      1.0000 0.32640  0.10310  0.38770  Biso   1.000  C
  C25      1.0000 0.35520  0.65610  0.47150  Biso   1.000  C
  C26      1.0000 0.14480  0.34390  0.97150  Biso   1.000  C
  C27      1.0000 0.64480  0.15610  0.02850  Biso   1.000  C
  C28      1.0000 0.85520  0.84390  0.52850  Biso   1.000  C
  C29      1.0000 0.47150  0.35520  0.65610  Biso   1.000  C
  C30      1.0000 0.97150  0.14480  0.34390  Biso   1.000  C
  C31      1.0000 0.02850  0.64480  0.15610  Biso   1.000  C
  C32      1.0000 0.52850  0.85520  0.84390  Biso   1.000  C
  C33      1.0000 0.65610  0.47150  0.35520  Biso   1.000  C
  C34      1.0000 0.34390  0.97150  0.14480  Biso   1.000  C
  C35      1.0000 0.15610  0.02850  0.64480  Biso   1.000  C
  C36      1.0000 0.84390  0.52850  0.85520  Biso   1.000  C
  C37      1.0000 0.85520  0.15610  0.97150  Biso   1.000  C
  C38      1.0000 0.64480  0.84390  0.47150  Biso   1.000  C
  C39      1.0000 0.14480  0.65610  0.52850  Biso   1.000  C
  C40      1.0000 0.35520  0.34390  0.02850  Biso   1.000  C
  C41      1.0000 0.97150  0.85520  0.15610  Biso   1.000  C
  C42      1.0000 0.47150  0.64480  0.84390  Biso   1.000  C
  C43      1.0000 0.52850  0.14480  0.65610  Biso   1.000  C
  C44      1.0000 0.02850  0.35520  0.34390  Biso   1.000  C
  C45      1.0000 0.15610  0.97150  0.85520  Biso   1.000  C
  C46      1.0000 0.84390  0.47150  0.64480  Biso   1.000  C
  C47      1.0000 0.65610  0.52850  0.14480  Biso   1.000  C
  C48      1.0000 0.34390  0.02850  0.35520  Biso   1.000  C
  H97      1.0000 0.33800  0.60270  0.48370  Biso   1.000  H
  H98      1.0000 0.16200  0.39730  0.98370  Biso   1.000  H
  H99      1.0000 0.66200  0.10270  0.01630  Biso   1.000  H
  H100     1.0000 0.83800  0.89730  0.51630  Biso   1.000  H
  H101     1.0000 0.48370  0.33800  0.60270  Biso   1.000  H
  H102     1.0000 0.98370  0.16200  0.39730  Biso   1.000  H
  H103     1.0000 0.01630  0.66200  0.10270  Biso   1.000  H
  H104     1.0000 0.51630  0.83800  0.89730  Biso   1.000  H
  H105     1.0000 0.60270  0.48370  0.33800  Biso   1.000  H
  H106     1.0000 0.39730  0.98370  0.16200  Biso   1.000  H
  H107     1.0000 0.10270  0.01630  0.66200  Biso   1.000  H
  H108     1.0000 0.89730  0.51630  0.83800  Biso   1.000  H
  H109     1.0000 0.83800  0.10270  0.98370  Biso   1.000  H
  H110     1.0000 0.66200  0.89730  0.48370  Biso   1.000  H
  H111     1.0000 0.16200  0.60270  0.51630  Biso   1.000  H
  H112     1.0000 0.33800  0.39730  0.01630  Biso   1.000  H
  H113     1.0000 0.98370  0.83800  0.10270  Biso   1.000  H
  H114     1.0000 0.48370  0.66200  0.89730  Biso   1.000  H
  H115     1.0000 0.51630  0.16200  0.60270  Biso   1.000  H
  H116     1.0000 0.01630  0.33800  0.39730  Biso   1.000  H
  H117     1.0000 0.10270  0.98370  0.83800  Biso   1.000  H
  H118     1.0000 0.89730  0.48370  0.66200  Biso   1.000  H
  H119     1.0000 0.60270  0.51630  0.16200  Biso   1.000  H
  H120     1.0000 0.39730  0.01630  0.33800  Biso   1.000  H
  C49      1.0000 0.34760  0.71760  0.52920  Biso   1.000  C
  C50      1.0000 0.15240  0.28240  0.02920  Biso   1.000  C
  C51      1.0000 0.65240  0.21760  0.97080  Biso   1.000  C
  C52      1.0000 0.84760  0.78240  0.47080  Biso   1.000  C
  C53      1.0000 0.52920  0.34760  0.71760  Biso   1.000  C
  C54      1.0000 0.02920  0.15240  0.28240  Biso   1.000  C
  C55      1.0000 0.97080  0.65240  0.21760  Biso   1.000  C
  C56      1.0000 0.47080  0.84760  0.78240  Biso   1.000  C
  C57      1.0000 0.71760  0.52920  0.34760  Biso   1.000  C
  C58      1.0000 0.28240  0.02920  0.15240  Biso   1.000  C
  C59      1.0000 0.21760  0.97080  0.65240  Biso   1.000  C
  C60      1.0000 0.78240  0.47080  0.84760  Biso   1.000  C
  C61      1.0000 0.84760  0.21760  0.02920  Biso   1.000  C
  C62      1.0000 0.65240  0.78240  0.52920  Biso   1.000  C
  C63      1.0000 0.15240  0.71760  0.47080  Biso   1.000  C
  C64      1.0000 0.34760  0.28240  0.97080  Biso   1.000  C
  C65      1.0000 0.02920  0.84760  0.21760  Biso   1.000  C
  C66      1.0000 0.52920  0.65240  0.78240  Biso   1.000  C
  C67      1.0000 0.47080  0.15240  0.71760  Biso   1.000  C
  C68      1.0000 0.97080  0.34760  0.28240  Biso   1.000  C
  C69      1.0000 0.21760  0.02920  0.84760  Biso   1.000  C
  C70      1.0000 0.78240  0.52920  0.65240  Biso   1.000  C
  C71      1.0000 0.71760  0.47080  0.15240  Biso   1.000  C
  C72      1.0000 0.28240  0.97080  0.34760  Biso   1.000  C
  H121     1.0000 0.32850  0.70730  0.58240  Biso   1.000  H
  H122     1.0000 0.17150  0.29270  0.08240  Biso   1.000  H
  H123     1.0000 0.67150  0.20730  0.91760  Biso   1.000  H
  H124     1.0000 0.82850  0.79270  0.41760  Biso   1.000  H
  H125     1.0000 0.58240  0.32850  0.70730  Biso   1.000  H
  H126     1.0000 0.08240  0.17150  0.29270  Biso   1.000  H
  H127     1.0000 0.91760  0.67150  0.20730  Biso   1.000  H
  H128     1.0000 0.41760  0.82850  0.79270  Biso   1.000  H
  H129     1.0000 0.70730  0.58240  0.32850  Biso   1.000  H
  H130     1.0000 0.29270  0.08240  0.17150  Biso   1.000  H
  H131     1.0000 0.20730  0.91760  0.67150  Biso   1.000  H
  H132     1.0000 0.79270  0.41760  0.82850  Biso   1.000  H
  H133     1.0000 0.82850  0.20730  0.08240  Biso   1.000  H
  H134     1.0000 0.67150  0.79270  0.58240  Biso   1.000  H
  H135     1.0000 0.17150  0.70730  0.41760  Biso   1.000  H
  H136     1.0000 0.32850  0.29270  0.91760  Biso   1.000  H
  H137     1.0000 0.08240  0.82850  0.20730  Biso   1.000  H
  H138     1.0000 0.58240  0.67150  0.79270  Biso   1.000  H
  H139     1.0000 0.41760  0.17150  0.70730  Biso   1.000  H
  H140     1.0000 0.91760  0.32850  0.29270  Biso   1.000  H
  H141     1.0000 0.20730  0.08240  0.82850  Biso   1.000  H
  H142     1.0000 0.79270  0.58240  0.67150  Biso   1.000  H
  H143     1.0000 0.70730  0.41760  0.17150  Biso   1.000  H
  H144     1.0000 0.29270  0.91760  0.32850  Biso   1.000  H
  C73      1.0000 0.37060  0.79700  0.50300  Biso   1.000  C
  C74      1.0000 0.12940  0.20300  0.00300  Biso   1.000  C
  C75      1.0000 0.62940  0.29700  0.99700  Biso   1.000  C
  C76      1.0000 0.87060  0.70300  0.49700  Biso   1.000  C
  C77      1.0000 0.50300  0.37060  0.79700  Biso   1.000  C
  C78      1.0000 0.00300  0.12940  0.20300  Biso   1.000  C
  C79      1.0000 0.99700  0.62940  0.29700  Biso   1.000  C
  C80      1.0000 0.49700  0.87060  0.70300  Biso   1.000  C
  C81      1.0000 0.79700  0.50300  0.37060  Biso   1.000  C
  C82      1.0000 0.20300  0.00300  0.12940  Biso   1.000  C
  C83      1.0000 0.29700  0.99700  0.62940  Biso   1.000  C
  C84      1.0000 0.70300  0.49700  0.87060  Biso   1.000  C
  C85      1.0000 0.87060  0.29700  0.00300  Biso   1.000  C
  C86      1.0000 0.62940  0.70300  0.50300  Biso   1.000  C
  C87      1.0000 0.12940  0.79700  0.49700  Biso   1.000  C
  C88      1.0000 0.37060  0.20300  0.99700  Biso   1.000  C
  C89      1.0000 0.00300  0.87060  0.29700  Biso   1.000  C
  C90      1.0000 0.50300  0.62940  0.70300  Biso   1.000  C
  C91      1.0000 0.49700  0.12940  0.79700  Biso   1.000  C
  C92      1.0000 0.99700  0.37060  0.20300  Biso   1.000  C
  C93      1.0000 0.29700  0.00300  0.87060  Biso   1.000  C
  C94      1.0000 0.70300  0.50300  0.62940  Biso   1.000  C
  C95      1.0000 0.79700  0.49700  0.12940  Biso   1.000  C
  C96      1.0000 0.20300  0.99700  0.37060  Biso   1.000  C
  H145     1.0000 0.36320  0.84170  0.53840  Biso   1.000  H
  H146     1.0000 0.13680  0.15830  0.03840  Biso   1.000  H
  H147     1.0000 0.63680  0.34170  0.96160  Biso   1.000  H
  H148     1.0000 0.86320  0.65830  0.46160  Biso   1.000  H
  H149     1.0000 0.53840  0.36320  0.84170  Biso   1.000  H
  H150     1.0000 0.03840  0.13680  0.15830  Biso   1.000  H
  H151     1.0000 0.96160  0.63680  0.34170  Biso   1.000  H
  H152     1.0000 0.46160  0.86320  0.65830  Biso   1.000  H
  H153     1.0000 0.84170  0.53840  0.36320  Biso   1.000  H
  H154     1.0000 0.15830  0.03840  0.13680  Biso   1.000  H
  H155     1.0000 0.34170  0.96160  0.63680  Biso   1.000  H
  H156     1.0000 0.65830  0.46160  0.86320  Biso   1.000  H
  H157     1.0000 0.86320  0.34170  0.03840  Biso   1.000  H
  H158     1.0000 0.63680  0.65830  0.53840  Biso   1.000  H
  H159     1.0000 0.13680  0.84170  0.46160  Biso   1.000  H
  H160     1.0000 0.36320  0.15830  0.96160  Biso   1.000  H
  H161     1.0000 0.03840  0.86320  0.34170  Biso   1.000  H
  H162     1.0000 0.53840  0.63680  0.65830  Biso   1.000  H
  H163     1.0000 0.46160  0.13680  0.84170  Biso   1.000  H
  H164     1.0000 0.96160  0.36320  0.15830  Biso   1.000  H
  H165     1.0000 0.34170  0.03840  0.86320  Biso   1.000  H
  H166     1.0000 0.65830  0.53840  0.63680  Biso   1.000  H
  H167     1.0000 0.84170  0.46160  0.13680  Biso   1.000  H
  H168     1.0000 0.15830  0.96160  0.36320  Biso   1.000  H
  C97      1.0000 0.40200  0.80930  0.43000  Biso   1.000  C
  C98      1.0000 0.09800  0.19070  0.93000  Biso   1.000  C
  C99      1.0000 0.59800  0.30930  0.07000  Biso   1.000  C
  C100     1.0000 0.90200  0.69070  0.57000  Biso   1.000  C
  C101     1.0000 0.43000  0.40200  0.80930  Biso   1.000  C
  C102     1.0000 0.93000  0.09800  0.19070  Biso   1.000  C
  C103     1.0000 0.07000  0.59800  0.30930  Biso   1.000  C
  C104     1.0000 0.57000  0.90200  0.69070  Biso   1.000  C
  C105     1.0000 0.80930  0.43000  0.40200  Biso   1.000  C
  C106     1.0000 0.19070  0.93000  0.09800  Biso   1.000  C
  C107     1.0000 0.30930  0.07000  0.59800  Biso   1.000  C
  C108     1.0000 0.69070  0.57000  0.90200  Biso   1.000  C
  C109     1.0000 0.90200  0.30930  0.93000  Biso   1.000  C
  C110     1.0000 0.59800  0.69070  0.43000  Biso   1.000  C
  C111     1.0000 0.09800  0.80930  0.57000  Biso   1.000  C
  C112     1.0000 0.40200  0.19070  0.07000  Biso   1.000  C
  C113     1.0000 0.93000  0.90200  0.30930  Biso   1.000  C
  C114     1.0000 0.43000  0.59800  0.69070  Biso   1.000  C
  C115     1.0000 0.57000  0.09800  0.80930  Biso   1.000  C
  C116     1.0000 0.07000  0.40200  0.19070  Biso   1.000  C
  C117     1.0000 0.30930  0.93000  0.90200  Biso   1.000  C
  C118     1.0000 0.69070  0.43000  0.59800  Biso   1.000  C
  C119     1.0000 0.80930  0.57000  0.09800  Biso   1.000  C
  C120     1.0000 0.19070  0.07000  0.40200  Biso   1.000  C
  H169     1.0000 0.41810  0.86320  0.41780  Biso   1.000  H
  H170     1.0000 0.08190  0.13680  0.91780  Biso   1.000  H
  H171     1.0000 0.58190  0.36320  0.08220  Biso   1.000  H
  H172     1.0000 0.91810  0.63680  0.58220  Biso   1.000  H
  H173     1.0000 0.41780  0.41810  0.86320  Biso   1.000  H
  H174     1.0000 0.91780  0.08190  0.13680  Biso   1.000  H
  H175     1.0000 0.08220  0.58190  0.36320  Biso   1.000  H
  H176     1.0000 0.58220  0.91810  0.63680  Biso   1.000  H
  H177     1.0000 0.86320  0.41780  0.41810  Biso   1.000  H
  H178     1.0000 0.13680  0.91780  0.08190  Biso   1.000  H
  H179     1.0000 0.36320  0.08220  0.58190  Biso   1.000  H
  H180     1.0000 0.63680  0.58220  0.91810  Biso   1.000  H
  H181     1.0000 0.91810  0.36320  0.91780  Biso   1.000  H
  H182     1.0000 0.58190  0.63680  0.41780  Biso   1.000  H
  H183     1.0000 0.08190  0.86320  0.58220  Biso   1.000  H
  H184     1.0000 0.41810  0.13680  0.08220  Biso   1.000  H
  H185     1.0000 0.91780  0.91810  0.36320  Biso   1.000  H
  H186     1.0000 0.41780  0.58190  0.63680  Biso   1.000  H
  H187     1.0000 0.58220  0.08190  0.86320  Biso   1.000  H
  H188     1.0000 0.08220  0.41810  0.13680  Biso   1.000  H
  H189     1.0000 0.36320  0.91780  0.91810  Biso   1.000  H
  H190     1.0000 0.63680  0.41780  0.58190  Biso   1.000  H
  H191     1.0000 0.86320  0.58220  0.08190  Biso   1.000  H
  H192     1.0000 0.13680  0.08220  0.41810  Biso   1.000  H
