data_image0
_cell_length_a       16.211
_cell_length_b       16.211
_cell_length_c       16.211
_cell_angle_alpha    90
_cell_angle_beta     90
_cell_angle_gamma    90

_symmetry_space_group_name_H-M    "P 1"
_symmetry_int_tables_number       1

loop_
  _symmetry_equiv_pos_as_xyz
  'x, y, z'

loop_
  _atom_site_label
  _atom_site_occupancy
  _atom_site_fract_x
  _atom_site_fract_y
  _atom_site_fract_z
  _atom_site_thermal_displace_type
  _atom_site_B_iso_or_equiv
  _atom_site_type_symbol
  Pr1      1.0000 0.37986  0.62014  0.12014  Biso   1.000  Pr
  Pr2      1.0000 0.12014  0.37986  0.62014  Biso   1.000  Pr
  Pr3      1.0000 0.62014  0.12014  0.37986  Biso   1.000  Pr
  Pr4      1.0000 0.87986  0.87986  0.87986  Biso   1.000  Pr
  Pr5      1.0000 0.87986  0.12014  0.62014  Biso   1.000  Pr
  Pr6      1.0000 0.62014  0.87986  0.12014  Biso   1.000  Pr
  Pr7      1.0000 0.12014  0.62014  0.87986  Biso   1.000  Pr
  Pr8      1.0000 0.37986  0.37986  0.37986  Biso   1.000  Pr
  Cu1      1.0000 0.50000  0.75000  0.26711  Biso   1.000  Cu
  Cu2      1.0000 0.00000  0.25000  0.76711  Biso   1.000  Cu
  Cu3      1.0000 0.50000  0.25000  0.23289  Biso   1.000  Cu
  Cu4      1.0000 0.00000  0.75000  0.73289  Biso   1.000  Cu
  Cu5      1.0000 0.26711  0.50000  0.75000  Biso   1.000  Cu
  Cu6      1.0000 0.76711  0.00000  0.25000  Biso   1.000  Cu
  Cu7      1.0000 0.23289  0.50000  0.25000  Biso   1.000  Cu
  Cu8      1.0000 0.73289  0.00000  0.75000  Biso   1.000  Cu
  Cu9      1.0000 0.75000  0.26711  0.50000  Biso   1.000  Cu
  Cu10     1.0000 0.25000  0.76711  0.00000  Biso   1.000  Cu
  Cu11     1.0000 0.25000  0.23289  0.50000  Biso   1.000  Cu
  Cu12     1.0000 0.75000  0.73289  0.00000  Biso   1.000  Cu
  P1       1.0000 0.40307  0.59724  0.31687  Biso   1.000  P
  P2       1.0000 0.09693  0.40276  0.81687  Biso   1.000  P
  P3       1.0000 0.59693  0.09724  0.18313  Biso   1.000  P
  P4       1.0000 0.90307  0.90276  0.68313  Biso   1.000  P
  P5       1.0000 0.31687  0.40307  0.59724  Biso   1.000  P
  P6       1.0000 0.81687  0.09693  0.40276  Biso   1.000  P
  P7       1.0000 0.18313  0.59693  0.09724  Biso   1.000  P
  P8       1.0000 0.68313  0.90307  0.90276  Biso   1.000  P
  P9       1.0000 0.59724  0.31687  0.40307  Biso   1.000  P
  P10      1.0000 0.40276  0.81687  0.09693  Biso   1.000  P
  P11      1.0000 0.09724  0.18313  0.59693  Biso   1.000  P
  P12      1.0000 0.90276  0.68313  0.90307  Biso   1.000  P
  P13      1.0000 0.90307  0.09724  0.81687  Biso   1.000  P
  P14      1.0000 0.59693  0.90276  0.31687  Biso   1.000  P
  P15      1.0000 0.09693  0.59724  0.68313  Biso   1.000  P
  P16      1.0000 0.40307  0.40276  0.18313  Biso   1.000  P
  P17      1.0000 0.81687  0.90307  0.09724  Biso   1.000  P
  P18      1.0000 0.31687  0.59693  0.90276  Biso   1.000  P
  P19      1.0000 0.68313  0.09693  0.59724  Biso   1.000  P
  P20      1.0000 0.18313  0.40307  0.40276  Biso   1.000  P
  P21      1.0000 0.09724  0.81687  0.90307  Biso   1.000  P
  P22      1.0000 0.90276  0.31687  0.59693  Biso   1.000  P
  P23      1.0000 0.59724  0.68313  0.09693  Biso   1.000  P
  P24      1.0000 0.40276  0.18313  0.40307  Biso   1.000  P
  N1       1.0000 0.41180  0.75020  0.37260  Biso   1.000  N
  N2       1.0000 0.08820  0.24980  0.87260  Biso   1.000  N
  N3       1.0000 0.58820  0.25020  0.12740  Biso   1.000  N
  N4       1.0000 0.91180  0.74980  0.62740  Biso   1.000  N
  N5       1.0000 0.37260  0.41180  0.75020  Biso   1.000  N
  N6       1.0000 0.87260  0.08820  0.24980  Biso   1.000  N
  N7       1.0000 0.12740  0.58820  0.25020  Biso   1.000  N
  N8       1.0000 0.62740  0.91180  0.74980  Biso   1.000  N
  N9       1.0000 0.75020  0.37260  0.41180  Biso   1.000  N
  N10      1.0000 0.24980  0.87260  0.08820  Biso   1.000  N
  N11      1.0000 0.25020  0.12740  0.58820  Biso   1.000  N
  N12      1.0000 0.74980  0.62740  0.91180  Biso   1.000  N
  N13      1.0000 0.91180  0.25020  0.87260  Biso   1.000  N
  N14      1.0000 0.58820  0.74980  0.37260  Biso   1.000  N
  N15      1.0000 0.08820  0.75020  0.62740  Biso   1.000  N
  N16      1.0000 0.41180  0.24980  0.12740  Biso   1.000  N
  N17      1.0000 0.87260  0.91180  0.25020  Biso   1.000  N
  N18      1.0000 0.37260  0.58820  0.74980  Biso   1.000  N
  N19      1.0000 0.62740  0.08820  0.75020  Biso   1.000  N
  N20      1.0000 0.12740  0.41180  0.24980  Biso   1.000  N
  N21      1.0000 0.25020  0.87260  0.91180  Biso   1.000  N
  N22      1.0000 0.74980  0.37260  0.58820  Biso   1.000  N
  N23      1.0000 0.75020  0.62740  0.08820  Biso   1.000  N
  N24      1.0000 0.24980  0.12740  0.41180  Biso   1.000  N
  O1       1.0000 0.47250  0.63210  0.26270  Biso   1.000  O
  O2       1.0000 0.02750  0.36790  0.76270  Biso   1.000  O
  O3       1.0000 0.52750  0.13210  0.23730  Biso   1.000  O
  O4       1.0000 0.97250  0.86790  0.73730  Biso   1.000  O
  O5       1.0000 0.26270  0.47250  0.63210  Biso   1.000  O
  O6       1.0000 0.76270  0.02750  0.36790  Biso   1.000  O
  O7       1.0000 0.23730  0.52750  0.13210  Biso   1.000  O
  O8       1.0000 0.73730  0.97250  0.86790  Biso   1.000  O
  O9       1.0000 0.63210  0.26270  0.47250  Biso   1.000  O
  O10      1.0000 0.36790  0.76270  0.02750  Biso   1.000  O
  O11      1.0000 0.13210  0.23730  0.52750  Biso   1.000  O
  O12      1.0000 0.86790  0.73730  0.97250  Biso   1.000  O
  O13      1.0000 0.97250  0.13210  0.76270  Biso   1.000  O
  O14      1.0000 0.52750  0.86790  0.26270  Biso   1.000  O
  O15      1.0000 0.02750  0.63210  0.73730  Biso   1.000  O
  O16      1.0000 0.47250  0.36790  0.23730  Biso   1.000  O
  O17      1.0000 0.76270  0.97250  0.13210  Biso   1.000  O
  O18      1.0000 0.26270  0.52750  0.86790  Biso   1.000  O
  O19      1.0000 0.73730  0.02750  0.63210  Biso   1.000  O
  O20      1.0000 0.23730  0.47250  0.36790  Biso   1.000  O
  O21      1.0000 0.13210  0.76270  0.97250  Biso   1.000  O
  O22      1.0000 0.86790  0.26270  0.52750  Biso   1.000  O
  O23      1.0000 0.63210  0.73730  0.02750  Biso   1.000  O
  O24      1.0000 0.36790  0.23730  0.47250  Biso   1.000  O
  O25      1.0000 0.32490  0.59350  0.26290  Biso   1.000  O
  O26      1.0000 0.17510  0.40650  0.76290  Biso   1.000  O
  O27      1.0000 0.67510  0.09350  0.23710  Biso   1.000  O
  O28      1.0000 0.82490  0.90650  0.73710  Biso   1.000  O
  O29      1.0000 0.26290  0.32490  0.59350  Biso   1.000  O
  O30      1.0000 0.76290  0.17510  0.40650  Biso   1.000  O
  O31      1.0000 0.23710  0.67510  0.09350  Biso   1.000  O
  O32      1.0000 0.73710  0.82490  0.90650  Biso   1.000  O
  O33      1.0000 0.59350  0.26290  0.32490  Biso   1.000  O
  O34      1.0000 0.40650  0.76290  0.17510  Biso   1.000  O
  O35      1.0000 0.09350  0.23710  0.67510  Biso   1.000  O
  O36      1.0000 0.90650  0.73710  0.82490  Biso   1.000  O
  O37      1.0000 0.82490  0.09350  0.76290  Biso   1.000  O
  O38      1.0000 0.67510  0.90650  0.26290  Biso   1.000  O
  O39      1.0000 0.17510  0.59350  0.73710  Biso   1.000  O
  O40      1.0000 0.32490  0.40650  0.23710  Biso   1.000  O
  O41      1.0000 0.76290  0.82490  0.09350  Biso   1.000  O
  O42      1.0000 0.26290  0.67510  0.90650  Biso   1.000  O
  O43      1.0000 0.73710  0.17510  0.59350  Biso   1.000  O
  O44      1.0000 0.23710  0.32490  0.40650  Biso   1.000  O
  O45      1.0000 0.09350  0.76290  0.82490  Biso   1.000  O
  O46      1.0000 0.90650  0.26290  0.67510  Biso   1.000  O
  O47      1.0000 0.59350  0.73710  0.17510  Biso   1.000  O
  O48      1.0000 0.40650  0.23710  0.32490  Biso   1.000  O
  O49      1.0000 0.42410  0.51740  0.35920  Biso   1.000  O
  O50      1.0000 0.07590  0.48260  0.85920  Biso   1.000  O
  O51      1.0000 0.57590  0.01740  0.14080  Biso   1.000  O
  O52      1.0000 0.92410  0.98260  0.64080  Biso   1.000  O
  O53      1.0000 0.35920  0.42410  0.51740  Biso   1.000  O
  O54      1.0000 0.85920  0.07590  0.48260  Biso   1.000  O
  O55      1.0000 0.14080  0.57590  0.01740  Biso   1.000  O
  O56      1.0000 0.64080  0.92410  0.98260  Biso   1.000  O
  O57      1.0000 0.51740  0.35920  0.42410  Biso   1.000  O
  O58      1.0000 0.48260  0.85920  0.07590  Biso   1.000  O
  O59      1.0000 0.01740  0.14080  0.57590  Biso   1.000  O
  O60      1.0000 0.98260  0.64080  0.92410  Biso   1.000  O
  O61      1.0000 0.92410  0.01740  0.85920  Biso   1.000  O
  O62      1.0000 0.57590  0.98260  0.35920  Biso   1.000  O
  O63      1.0000 0.07590  0.51740  0.64080  Biso   1.000  O
  O64      1.0000 0.42410  0.48260  0.14080  Biso   1.000  O
  O65      1.0000 0.85920  0.92410  0.01740  Biso   1.000  O
  O66      1.0000 0.35920  0.57590  0.98260  Biso   1.000  O
  O67      1.0000 0.64080  0.07590  0.51740  Biso   1.000  O
  O68      1.0000 0.14080  0.42410  0.48260  Biso   1.000  O
  O69      1.0000 0.01740  0.85920  0.92410  Biso   1.000  O
  O70      1.0000 0.98260  0.35920  0.57590  Biso   1.000  O
  O71      1.0000 0.51740  0.64080  0.07590  Biso   1.000  O
  O72      1.0000 0.48260  0.14080  0.42410  Biso   1.000  O
  O73      1.0000 0.22820  0.77180  0.27180  Biso   1.000  O
  O74      1.0000 0.27180  0.22820  0.77180  Biso   1.000  O
  O75      1.0000 0.77180  0.27180  0.22820  Biso   1.000  O
  O76      1.0000 0.72820  0.72820  0.72820  Biso   1.000  O
  O77      1.0000 0.72820  0.27180  0.77180  Biso   1.000  O
  O78      1.0000 0.77180  0.72820  0.27180  Biso   1.000  O
  O79      1.0000 0.27180  0.77180  0.72820  Biso   1.000  O
  O80      1.0000 0.22820  0.22820  0.22820  Biso   1.000  O
  H1       1.0000 0.20870  0.81300  0.29770  Biso   1.000  H
  H2       1.0000 0.29130  0.18700  0.79770  Biso   1.000  H
  H3       1.0000 0.79130  0.31300  0.20230  Biso   1.000  H
  H4       1.0000 0.70870  0.68700  0.70230  Biso   1.000  H
  H5       1.0000 0.29770  0.20870  0.81300  Biso   1.000  H
  H6       1.0000 0.79770  0.29130  0.18700  Biso   1.000  H
  H7       1.0000 0.20230  0.79130  0.31300  Biso   1.000  H
  H8       1.0000 0.70230  0.70870  0.68700  Biso   1.000  H
  H9       1.0000 0.81300  0.29770  0.20870  Biso   1.000  H
  H10      1.0000 0.18700  0.79770  0.29130  Biso   1.000  H
  H11      1.0000 0.31300  0.20230  0.79130  Biso   1.000  H
  H12      1.0000 0.68700  0.70230  0.70870  Biso   1.000  H
  H13      1.0000 0.70870  0.31300  0.79770  Biso   1.000  H
  H14      1.0000 0.79130  0.68700  0.29770  Biso   1.000  H
  H15      1.0000 0.29130  0.81300  0.70230  Biso   1.000  H
  H16      1.0000 0.20870  0.18700  0.20230  Biso   1.000  H
  H17      1.0000 0.79770  0.70870  0.31300  Biso   1.000  H
  H18      1.0000 0.29770  0.79130  0.68700  Biso   1.000  H
  H19      1.0000 0.70230  0.29130  0.81300  Biso   1.000  H
  H20      1.0000 0.20230  0.20870  0.18700  Biso   1.000  H
  H21      1.0000 0.31300  0.79770  0.70870  Biso   1.000  H
  H22      1.0000 0.68700  0.29770  0.79130  Biso   1.000  H
  H23      1.0000 0.81300  0.70230  0.29130  Biso   1.000  H
  H24      1.0000 0.18700  0.20230  0.20870  Biso   1.000  H
  H25      1.0000 0.24920  0.78790  0.22650  Biso   1.000  H
  H26      1.0000 0.25080  0.21210  0.72650  Biso   1.000  H
  H27      1.0000 0.75080  0.28790  0.27350  Biso   1.000  H
  H28      1.0000 0.74920  0.71210  0.77350  Biso   1.000  H
  H29      1.0000 0.22650  0.24920  0.78790  Biso   1.000  H
  H30      1.0000 0.72650  0.25080  0.21210  Biso   1.000  H
  H31      1.0000 0.27350  0.75080  0.28790  Biso   1.000  H
  H32      1.0000 0.77350  0.74920  0.71210  Biso   1.000  H
  H33      1.0000 0.78790  0.22650  0.24920  Biso   1.000  H
  H34      1.0000 0.21210  0.72650  0.25080  Biso   1.000  H
  H35      1.0000 0.28790  0.27350  0.75080  Biso   1.000  H
  H36      1.0000 0.71210  0.77350  0.74920  Biso   1.000  H
  H37      1.0000 0.74920  0.28790  0.72650  Biso   1.000  H
  H38      1.0000 0.75080  0.71210  0.22650  Biso   1.000  H
  H39      1.0000 0.25080  0.78790  0.77350  Biso   1.000  H
  H40      1.0000 0.24920  0.21210  0.27350  Biso   1.000  H
  H41      1.0000 0.72650  0.74920  0.28790  Biso   1.000  H
  H42      1.0000 0.22650  0.75080  0.71210  Biso   1.000  H
  H43      1.0000 0.77350  0.25080  0.78790  Biso   1.000  H
  H44      1.0000 0.27350  0.24920  0.21210  Biso   1.000  H
  H45      1.0000 0.28790  0.72650  0.74920  Biso   1.000  H
  H46      1.0000 0.71210  0.22650  0.75080  Biso   1.000  H
  H47      1.0000 0.78790  0.77350  0.25080  Biso   1.000  H
  H48      1.0000 0.21210  0.27350  0.24920  Biso   1.000  H
  O81      1.0000 0.47550  0.97550  0.52450  Biso   1.000  O
  O82      1.0000 0.02450  0.02450  0.02450  Biso   1.000  O
  O83      1.0000 0.52450  0.47550  0.97550  Biso   1.000  O
  O84      1.0000 0.97550  0.52450  0.47550  Biso   1.000  O
  O85      1.0000 0.97550  0.47550  0.02450  Biso   1.000  O
  O86      1.0000 0.52450  0.52450  0.52450  Biso   1.000  O
  O87      1.0000 0.02450  0.97550  0.47550  Biso   1.000  O
  O88      1.0000 0.47550  0.02450  0.97550  Biso   1.000  O
  H49      1.0000 0.52790  0.97760  0.52370  Biso   1.000  H
  H50      1.0000 0.97210  0.02240  0.02370  Biso   1.000  H
  H51      1.0000 0.47210  0.47760  0.97630  Biso   1.000  H
  H52      1.0000 0.02790  0.52240  0.47630  Biso   1.000  H
  H53      1.0000 0.52370  0.52790  0.97760  Biso   1.000  H
  H54      1.0000 0.02370  0.97210  0.02240  Biso   1.000  H
  H55      1.0000 0.97630  0.47210  0.47760  Biso   1.000  H
  H56      1.0000 0.47630  0.02790  0.52240  Biso   1.000  H
  H57      1.0000 0.97760  0.52370  0.52790  Biso   1.000  H
  H58      1.0000 0.02240  0.02370  0.97210  Biso   1.000  H
  H59      1.0000 0.47760  0.97630  0.47210  Biso   1.000  H
  H60      1.0000 0.52240  0.47630  0.02790  Biso   1.000  H
  H61      1.0000 0.02790  0.47760  0.02370  Biso   1.000  H
  H62      1.0000 0.47210  0.52240  0.52370  Biso   1.000  H
  H63      1.0000 0.97210  0.97760  0.47630  Biso   1.000  H
  H64      1.0000 0.52790  0.02240  0.97630  Biso   1.000  H
  H65      1.0000 0.02370  0.02790  0.47760  Biso   1.000  H
  H66      1.0000 0.52370  0.47210  0.52240  Biso   1.000  H
  H67      1.0000 0.47630  0.97210  0.97760  Biso   1.000  H
  H68      1.0000 0.97630  0.52790  0.02240  Biso   1.000  H
  H69      1.0000 0.47760  0.02370  0.02790  Biso   1.000  H
  H70      1.0000 0.52240  0.52370  0.47210  Biso   1.000  H
  H71      1.0000 0.97760  0.47630  0.97210  Biso   1.000  H
  H72      1.0000 0.02240  0.97630  0.52790  Biso   1.000  H
  H73      1.0000 0.45600  0.01960  0.50390  Biso   1.000  H
  H74      1.0000 0.04400  0.98040  0.00390  Biso   1.000  H
  H75      1.0000 0.54400  0.51960  0.99610  Biso   1.000  H
  H76      1.0000 0.95600  0.48040  0.49610  Biso   1.000  H
  H77      1.0000 0.50390  0.45600  0.01960  Biso   1.000  H
  H78      1.0000 0.00390  0.04400  0.98040  Biso   1.000  H
  H79      1.0000 0.99610  0.54400  0.51960  Biso   1.000  H
  H80      1.0000 0.49610  0.95600  0.48040  Biso   1.000  H
  H81      1.0000 0.01960  0.50390  0.45600  Biso   1.000  H
  H82      1.0000 0.98040  0.00390  0.04400  Biso   1.000  H
  H83      1.0000 0.51960  0.99610  0.54400  Biso   1.000  H
  H84      1.0000 0.48040  0.49610  0.95600  Biso   1.000  H
  H85      1.0000 0.95600  0.51960  0.00390  Biso   1.000  H
  H86      1.0000 0.54400  0.48040  0.50390  Biso   1.000  H
  H87      1.0000 0.04400  0.01960  0.49610  Biso   1.000  H
  H88      1.0000 0.45600  0.98040  0.99610  Biso   1.000  H
  H89      1.0000 0.00390  0.95600  0.51960  Biso   1.000  H
  H90      1.0000 0.50390  0.54400  0.48040  Biso   1.000  H
  H91      1.0000 0.49610  0.04400  0.01960  Biso   1.000  H
  H92      1.0000 0.99610  0.45600  0.98040  Biso   1.000  H
  H93      1.0000 0.51960  0.00390  0.95600  Biso   1.000  H
  H94      1.0000 0.48040  0.50390  0.54400  Biso   1.000  H
  H95      1.0000 0.01960  0.49610  0.04400  Biso   1.000  H
  H96      1.0000 0.98040  0.99610  0.45600  Biso   1.000  H
  C1       1.0000 0.38670  0.67280  0.39700  Biso   1.000  C
  C2       1.0000 0.11330  0.32720  0.89700  Biso   1.000  C
  C3       1.0000 0.61330  0.17280  0.10300  Biso   1.000  C
  C4       1.0000 0.88670  0.82720  0.60300  Biso   1.000  C
  C5       1.0000 0.39700  0.38670  0.67280  Biso   1.000  C
  C6       1.0000 0.89700  0.11330  0.32720  Biso   1.000  C
  C7       1.0000 0.10300  0.61330  0.17280  Biso   1.000  C
  C8       1.0000 0.60300  0.88670  0.82720  Biso   1.000  C
  C9       1.0000 0.67280  0.39700  0.38670  Biso   1.000  C
  C10      1.0000 0.32720  0.89700  0.11330  Biso   1.000  C
  C11      1.0000 0.17280  0.10300  0.61330  Biso   1.000  C
  C12      1.0000 0.82720  0.60300  0.88670  Biso   1.000  C
  C13      1.0000 0.88670  0.17280  0.89700  Biso   1.000  C
  C14      1.0000 0.61330  0.82720  0.39700  Biso   1.000  C
  C15      1.0000 0.11330  0.67280  0.60300  Biso   1.000  C
  C16      1.0000 0.38670  0.32720  0.10300  Biso   1.000  C
  C17      1.0000 0.89700  0.88670  0.17280  Biso   1.000  C
  C18      1.0000 0.39700  0.61330  0.82720  Biso   1.000  C
  C19      1.0000 0.60300  0.11330  0.67280  Biso   1.000  C
  C20      1.0000 0.10300  0.38670  0.32720  Biso   1.000  C
  C21      1.0000 0.17280  0.89700  0.88670  Biso   1.000  C
  C22      1.0000 0.82720  0.39700  0.61330  Biso   1.000  C
  C23      1.0000 0.67280  0.60300  0.11330  Biso   1.000  C
  C24      1.0000 0.32720  0.10300  0.38670  Biso   1.000  C
  C25      1.0000 0.35530  0.65680  0.47190  Biso   1.000  C
  C26      1.0000 0.14470  0.34320  0.97190  Biso   1.000  C
  C27      1.0000 0.64470  0.15680  0.02810  Biso   1.000  C
  C28      1.0000 0.85530  0.84320  0.52810  Biso   1.000  C
  C29      1.0000 0.47190  0.35530  0.65680  Biso   1.000  C
  C30      1.0000 0.97190  0.14470  0.34320  Biso   1.000  C
  C31      1.0000 0.02810  0.64470  0.15680  Biso   1.000  C
  C32      1.0000 0.52810  0.85530  0.84320  Biso   1.000  C
  C33      1.0000 0.65680  0.47190  0.35530  Biso   1.000  C
  C34      1.0000 0.34320  0.97190  0.14470  Biso   1.000  C
  C35      1.0000 0.15680  0.02810  0.64470  Biso   1.000  C
  C36      1.0000 0.84320  0.52810  0.85530  Biso   1.000  C
  C37      1.0000 0.85530  0.15680  0.97190  Biso   1.000  C
  C38      1.0000 0.64470  0.84320  0.47190  Biso   1.000  C
  C39      1.0000 0.14470  0.65680  0.52810  Biso   1.000  C
  C40      1.0000 0.35530  0.34320  0.02810  Biso   1.000  C
  C41      1.0000 0.97190  0.85530  0.15680  Biso   1.000  C
  C42      1.0000 0.47190  0.64470  0.84320  Biso   1.000  C
  C43      1.0000 0.52810  0.14470  0.65680  Biso   1.000  C
  C44      1.0000 0.02810  0.35530  0.34320  Biso   1.000  C
  C45      1.0000 0.15680  0.97190  0.85530  Biso   1.000  C
  C46      1.0000 0.84320  0.47190  0.64470  Biso   1.000  C
  C47      1.0000 0.65680  0.52810  0.14470  Biso   1.000  C
  C48      1.0000 0.34320  0.02810  0.35530  Biso   1.000  C
  H97      1.0000 0.34090  0.60330  0.48700  Biso   1.000  H
  H98      1.0000 0.15910  0.39670  0.98700  Biso   1.000  H
  H99      1.0000 0.65910  0.10330  0.01300  Biso   1.000  H
  H100     1.0000 0.84090  0.89670  0.51300  Biso   1.000  H
  H101     1.0000 0.48700  0.34090  0.60330  Biso   1.000  H
  H102     1.0000 0.98700  0.15910  0.39670  Biso   1.000  H
  H103     1.0000 0.01300  0.65910  0.10330  Biso   1.000  H
  H104     1.0000 0.51300  0.84090  0.89670  Biso   1.000  H
  H105     1.0000 0.60330  0.48700  0.34090  Biso   1.000  H
  H106     1.0000 0.39670  0.98700  0.15910  Biso   1.000  H
  H107     1.0000 0.10330  0.01300  0.65910  Biso   1.000  H
  H108     1.0000 0.89670  0.51300  0.84090  Biso   1.000  H
  H109     1.0000 0.84090  0.10330  0.98700  Biso   1.000  H
  H110     1.0000 0.65910  0.89670  0.48700  Biso   1.000  H
  H111     1.0000 0.15910  0.60330  0.51300  Biso   1.000  H
  H112     1.0000 0.34090  0.39670  0.01300  Biso   1.000  H
  H113     1.0000 0.98700  0.84090  0.10330  Biso   1.000  H
  H114     1.0000 0.48700  0.65910  0.89670  Biso   1.000  H
  H115     1.0000 0.51300  0.15910  0.60330  Biso   1.000  H
  H116     1.0000 0.01300  0.34090  0.39670  Biso   1.000  H
  H117     1.0000 0.10330  0.98700  0.84090  Biso   1.000  H
  H118     1.0000 0.89670  0.48700  0.65910  Biso   1.000  H
  H119     1.0000 0.60330  0.51300  0.15910  Biso   1.000  H
  H120     1.0000 0.39670  0.01300  0.34090  Biso   1.000  H
  C49      1.0000 0.34480  0.72400  0.52780  Biso   1.000  C
  C50      1.0000 0.15520  0.27600  0.02780  Biso   1.000  C
  C51      1.0000 0.65520  0.22400  0.97220  Biso   1.000  C
  C52      1.0000 0.84480  0.77600  0.47220  Biso   1.000  C
  C53      1.0000 0.52780  0.34480  0.72400  Biso   1.000  C
  C54      1.0000 0.02780  0.15520  0.27600  Biso   1.000  C
  C55      1.0000 0.97220  0.65520  0.22400  Biso   1.000  C
  C56      1.0000 0.47220  0.84480  0.77600  Biso   1.000  C
  C57      1.0000 0.72400  0.52780  0.34480  Biso   1.000  C
  C58      1.0000 0.27600  0.02780  0.15520  Biso   1.000  C
  C59      1.0000 0.22400  0.97220  0.65520  Biso   1.000  C
  C60      1.0000 0.77600  0.47220  0.84480  Biso   1.000  C
  C61      1.0000 0.84480  0.22400  0.02780  Biso   1.000  C
  C62      1.0000 0.65520  0.77600  0.52780  Biso   1.000  C
  C63      1.0000 0.15520  0.72400  0.47220  Biso   1.000  C
  C64      1.0000 0.34480  0.27600  0.97220  Biso   1.000  C
  C65      1.0000 0.02780  0.84480  0.22400  Biso   1.000  C
  C66      1.0000 0.52780  0.65520  0.77600  Biso   1.000  C
  C67      1.0000 0.47220  0.15520  0.72400  Biso   1.000  C
  C68      1.0000 0.97220  0.34480  0.27600  Biso   1.000  C
  C69      1.0000 0.22400  0.02780  0.84480  Biso   1.000  C
  C70      1.0000 0.77600  0.52780  0.65520  Biso   1.000  C
  C71      1.0000 0.72400  0.47220  0.15520  Biso   1.000  C
  C72      1.0000 0.27600  0.97220  0.34480  Biso   1.000  C
  H121     1.0000 0.32120  0.71700  0.57970  Biso   1.000  H
  H122     1.0000 0.17880  0.28300  0.07970  Biso   1.000  H
  H123     1.0000 0.67880  0.21700  0.92030  Biso   1.000  H
  H124     1.0000 0.82120  0.78300  0.42030  Biso   1.000  H
  H125     1.0000 0.57970  0.32120  0.71700  Biso   1.000  H
  H126     1.0000 0.07970  0.17880  0.28300  Biso   1.000  H
  H127     1.0000 0.92030  0.67880  0.21700  Biso   1.000  H
  H128     1.0000 0.42030  0.82120  0.78300  Biso   1.000  H
  H129     1.0000 0.71700  0.57970  0.32120  Biso   1.000  H
  H130     1.0000 0.28300  0.07970  0.17880  Biso   1.000  H
  H131     1.0000 0.21700  0.92030  0.67880  Biso   1.000  H
  H132     1.0000 0.78300  0.42030  0.82120  Biso   1.000  H
  H133     1.0000 0.82120  0.21700  0.07970  Biso   1.000  H
  H134     1.0000 0.67880  0.78300  0.57970  Biso   1.000  H
  H135     1.0000 0.17880  0.71700  0.42030  Biso   1.000  H
  H136     1.0000 0.32120  0.28300  0.92030  Biso   1.000  H
  H137     1.0000 0.07970  0.82120  0.21700  Biso   1.000  H
  H138     1.0000 0.57970  0.67880  0.78300  Biso   1.000  H
  H139     1.0000 0.42030  0.17880  0.71700  Biso   1.000  H
  H140     1.0000 0.92030  0.32120  0.28300  Biso   1.000  H
  H141     1.0000 0.21700  0.07970  0.82120  Biso   1.000  H
  H142     1.0000 0.78300  0.57970  0.67880  Biso   1.000  H
  H143     1.0000 0.71700  0.42030  0.17880  Biso   1.000  H
  H144     1.0000 0.28300  0.92030  0.32120  Biso   1.000  H
  C73      1.0000 0.37140  0.79870  0.50070  Biso   1.000  C
  C74      1.0000 0.12860  0.20130  0.00070  Biso   1.000  C
  C75      1.0000 0.62860  0.29870  0.99930  Biso   1.000  C
  C76      1.0000 0.87140  0.70130  0.49930  Biso   1.000  C
  C77      1.0000 0.50070  0.37140  0.79870  Biso   1.000  C
  C78      1.0000 0.00070  0.12860  0.20130  Biso   1.000  C
  C79      1.0000 0.99930  0.62860  0.29870  Biso   1.000  C
  C80      1.0000 0.49930  0.87140  0.70130  Biso   1.000  C
  C81      1.0000 0.79870  0.50070  0.37140  Biso   1.000  C
  C82      1.0000 0.20130  0.00070  0.12860  Biso   1.000  C
  C83      1.0000 0.29870  0.99930  0.62860  Biso   1.000  C
  C84      1.0000 0.70130  0.49930  0.87140  Biso   1.000  C
  C85      1.0000 0.87140  0.29870  0.00070  Biso   1.000  C
  C86      1.0000 0.62860  0.70130  0.50070  Biso   1.000  C
  C87      1.0000 0.12860  0.79870  0.49930  Biso   1.000  C
  C88      1.0000 0.37140  0.20130  0.99930  Biso   1.000  C
  C89      1.0000 0.00070  0.87140  0.29870  Biso   1.000  C
  C90      1.0000 0.50070  0.62860  0.70130  Biso   1.000  C
  C91      1.0000 0.49930  0.12860  0.79870  Biso   1.000  C
  C92      1.0000 0.99930  0.37140  0.20130  Biso   1.000  C
  C93      1.0000 0.29870  0.00070  0.87140  Biso   1.000  C
  C94      1.0000 0.70130  0.50070  0.62860  Biso   1.000  C
  C95      1.0000 0.79870  0.49930  0.12860  Biso   1.000  C
  C96      1.0000 0.20130  0.99930  0.37140  Biso   1.000  C
  H145     1.0000 0.36760  0.84360  0.53620  Biso   1.000  H
  H146     1.0000 0.13240  0.15640  0.03620  Biso   1.000  H
  H147     1.0000 0.63240  0.34360  0.96380  Biso   1.000  H
  H148     1.0000 0.86760  0.65640  0.46380  Biso   1.000  H
  H149     1.0000 0.53620  0.36760  0.84360  Biso   1.000  H
  H150     1.0000 0.03620  0.13240  0.15640  Biso   1.000  H
  H151     1.0000 0.96380  0.63240  0.34360  Biso   1.000  H
  H152     1.0000 0.46380  0.86760  0.65640  Biso   1.000  H
  H153     1.0000 0.84360  0.53620  0.36760  Biso   1.000  H
  H154     1.0000 0.15640  0.03620  0.13240  Biso   1.000  H
  H155     1.0000 0.34360  0.96380  0.63240  Biso   1.000  H
  H156     1.0000 0.65640  0.46380  0.86760  Biso   1.000  H
  H157     1.0000 0.86760  0.34360  0.03620  Biso   1.000  H
  H158     1.0000 0.63240  0.65640  0.53620  Biso   1.000  H
  H159     1.0000 0.13240  0.84360  0.46380  Biso   1.000  H
  H160     1.0000 0.36760  0.15640  0.96380  Biso   1.000  H
  H161     1.0000 0.03620  0.86760  0.34360  Biso   1.000  H
  H162     1.0000 0.53620  0.63240  0.65640  Biso   1.000  H
  H163     1.0000 0.46380  0.13240  0.84360  Biso   1.000  H
  H164     1.0000 0.96380  0.36760  0.15640  Biso   1.000  H
  H165     1.0000 0.34360  0.03620  0.86760  Biso   1.000  H
  H166     1.0000 0.65640  0.53620  0.63240  Biso   1.000  H
  H167     1.0000 0.84360  0.46380  0.13240  Biso   1.000  H
  H168     1.0000 0.15640  0.96380  0.36760  Biso   1.000  H
  C97      1.0000 0.40160  0.81010  0.42780  Biso   1.000  C
  C98      1.0000 0.09840  0.18990  0.92780  Biso   1.000  C
  C99      1.0000 0.59840  0.31010  0.07220  Biso   1.000  C
  C100     1.0000 0.90160  0.68990  0.57220  Biso   1.000  C
  C101     1.0000 0.42780  0.40160  0.81010  Biso   1.000  C
  C102     1.0000 0.92780  0.09840  0.18990  Biso   1.000  C
  C103     1.0000 0.07220  0.59840  0.31010  Biso   1.000  C
  C104     1.0000 0.57220  0.90160  0.68990  Biso   1.000  C
  C105     1.0000 0.81010  0.42780  0.40160  Biso   1.000  C
  C106     1.0000 0.18990  0.92780  0.09840  Biso   1.000  C
  C107     1.0000 0.31010  0.07220  0.59840  Biso   1.000  C
  C108     1.0000 0.68990  0.57220  0.90160  Biso   1.000  C
  C109     1.0000 0.90160  0.31010  0.92780  Biso   1.000  C
  C110     1.0000 0.59840  0.68990  0.42780  Biso   1.000  C
  C111     1.0000 0.09840  0.81010  0.57220  Biso   1.000  C
  C112     1.0000 0.40160  0.18990  0.07220  Biso   1.000  C
  C113     1.0000 0.92780  0.90160  0.31010  Biso   1.000  C
  C114     1.0000 0.42780  0.59840  0.68990  Biso   1.000  C
  C115     1.0000 0.57220  0.09840  0.81010  Biso   1.000  C
  C116     1.0000 0.07220  0.40160  0.18990  Biso   1.000  C
  C117     1.0000 0.31010  0.92780  0.90160  Biso   1.000  C
  C118     1.0000 0.68990  0.42780  0.59840  Biso   1.000  C
  C119     1.0000 0.81010  0.57220  0.09840  Biso   1.000  C
  C120     1.0000 0.18990  0.07220  0.40160  Biso   1.000  C
  H169     1.0000 0.41710  0.86330  0.41310  Biso   1.000  H
  H170     1.0000 0.08290  0.13670  0.91310  Biso   1.000  H
  H171     1.0000 0.58290  0.36330  0.08690  Biso   1.000  H
  H172     1.0000 0.91710  0.63670  0.58690  Biso   1.000  H
  H173     1.0000 0.41310  0.41710  0.86330  Biso   1.000  H
  H174     1.0000 0.91310  0.08290  0.13670  Biso   1.000  H
  H175     1.0000 0.08690  0.58290  0.36330  Biso   1.000  H
  H176     1.0000 0.58690  0.91710  0.63670  Biso   1.000  H
  H177     1.0000 0.86330  0.41310  0.41710  Biso   1.000  H
  H178     1.0000 0.13670  0.91310  0.08290  Biso   1.000  H
  H179     1.0000 0.36330  0.08690  0.58290  Biso   1.000  H
  H180     1.0000 0.63670  0.58690  0.91710  Biso   1.000  H
  H181     1.0000 0.91710  0.36330  0.91310  Biso   1.000  H
  H182     1.0000 0.58290  0.63670  0.41310  Biso   1.000  H
  H183     1.0000 0.08290  0.86330  0.58690  Biso   1.000  H
  H184     1.0000 0.41710  0.13670  0.08690  Biso   1.000  H
  H185     1.0000 0.91310  0.91710  0.36330  Biso   1.000  H
  H186     1.0000 0.41310  0.58290  0.63670  Biso   1.000  H
  H187     1.0000 0.58690  0.08290  0.86330  Biso   1.000  H
  H188     1.0000 0.08690  0.41710  0.13670  Biso   1.000  H
  H189     1.0000 0.36330  0.91310  0.91710  Biso   1.000  H
  H190     1.0000 0.63670  0.41310  0.58290  Biso   1.000  H
  H191     1.0000 0.86330  0.58690  0.08290  Biso   1.000  H
  H192     1.0000 0.13670  0.08690  0.41710  Biso   1.000  H
