data_image0
_cell_length_a       16.2799
_cell_length_b       16.2799
_cell_length_c       16.2799
_cell_angle_alpha    90
_cell_angle_beta     90
_cell_angle_gamma    90

_symmetry_space_group_name_H-M    "P 1"
_symmetry_int_tables_number       1

loop_
  _symmetry_equiv_pos_as_xyz
  'x, y, z'

loop_
  _atom_site_label
  _atom_site_occupancy
  _atom_site_fract_x
  _atom_site_fract_y
  _atom_site_fract_z
  _atom_site_thermal_displace_type
  _atom_site_B_iso_or_equiv
  _atom_site_type_symbol
  La1      1.0000 0.38083  0.61917  0.11917  Biso   1.000  La
  La2      1.0000 0.11917  0.38083  0.61917  Biso   1.000  La
  La3      1.0000 0.61917  0.11917  0.38083  Biso   1.000  La
  La4      1.0000 0.88083  0.88083  0.88083  Biso   1.000  La
  La5      1.0000 0.88083  0.11917  0.61917  Biso   1.000  La
  La6      1.0000 0.61917  0.88083  0.11917  Biso   1.000  La
  La7      1.0000 0.11917  0.61917  0.88083  Biso   1.000  La
  La8      1.0000 0.38083  0.38083  0.38083  Biso   1.000  La
  Cu1      1.0000 0.50000  0.75000  0.26639  Biso   1.000  Cu
  Cu2      1.0000 0.00000  0.25000  0.76639  Biso   1.000  Cu
  Cu3      1.0000 0.50000  0.25000  0.23361  Biso   1.000  Cu
  Cu4      1.0000 0.00000  0.75000  0.73361  Biso   1.000  Cu
  Cu5      1.0000 0.26639  0.50000  0.75000  Biso   1.000  Cu
  Cu6      1.0000 0.76639  0.00000  0.25000  Biso   1.000  Cu
  Cu7      1.0000 0.23361  0.50000  0.25000  Biso   1.000  Cu
  Cu8      1.0000 0.73361  0.00000  0.75000  Biso   1.000  Cu
  Cu9      1.0000 0.75000  0.26639  0.50000  Biso   1.000  Cu
  Cu10     1.0000 0.25000  0.76639  0.00000  Biso   1.000  Cu
  Cu11     1.0000 0.25000  0.23361  0.50000  Biso   1.000  Cu
  Cu12     1.0000 0.75000  0.73361  0.00000  Biso   1.000  Cu
  P1       1.0000 0.40283  0.59893  0.31721  Biso   1.000  P
  P2       1.0000 0.09717  0.40107  0.81721  Biso   1.000  P
  P3       1.0000 0.59717  0.09893  0.18279  Biso   1.000  P
  P4       1.0000 0.90283  0.90107  0.68279  Biso   1.000  P
  P5       1.0000 0.31721  0.40283  0.59893  Biso   1.000  P
  P6       1.0000 0.81721  0.09717  0.40107  Biso   1.000  P
  P7       1.0000 0.18279  0.59717  0.09893  Biso   1.000  P
  P8       1.0000 0.68279  0.90283  0.90107  Biso   1.000  P
  P9       1.0000 0.59893  0.31721  0.40283  Biso   1.000  P
  P10      1.0000 0.40107  0.81721  0.09717  Biso   1.000  P
  P11      1.0000 0.09893  0.18279  0.59717  Biso   1.000  P
  P12      1.0000 0.90107  0.68279  0.90283  Biso   1.000  P
  P13      1.0000 0.90283  0.09893  0.81721  Biso   1.000  P
  P14      1.0000 0.59717  0.90107  0.31721  Biso   1.000  P
  P15      1.0000 0.09717  0.59893  0.68279  Biso   1.000  P
  P16      1.0000 0.40283  0.40107  0.18279  Biso   1.000  P
  P17      1.0000 0.81721  0.90283  0.09893  Biso   1.000  P
  P18      1.0000 0.31721  0.59717  0.90107  Biso   1.000  P
  P19      1.0000 0.68279  0.09717  0.59893  Biso   1.000  P
  P20      1.0000 0.18279  0.40283  0.40107  Biso   1.000  P
  P21      1.0000 0.09893  0.81721  0.90283  Biso   1.000  P
  P22      1.0000 0.90107  0.31721  0.59717  Biso   1.000  P
  P23      1.0000 0.59893  0.68279  0.09717  Biso   1.000  P
  P24      1.0000 0.40107  0.18279  0.40283  Biso   1.000  P
  N1       1.0000 0.41460  0.75220  0.36950  Biso   1.000  N
  N2       1.0000 0.08540  0.24780  0.86950  Biso   1.000  N
  N3       1.0000 0.58540  0.25220  0.13050  Biso   1.000  N
  N4       1.0000 0.91460  0.74780  0.63050  Biso   1.000  N
  N5       1.0000 0.36950  0.41460  0.75220  Biso   1.000  N
  N6       1.0000 0.86950  0.08540  0.24780  Biso   1.000  N
  N7       1.0000 0.13050  0.58540  0.25220  Biso   1.000  N
  N8       1.0000 0.63050  0.91460  0.74780  Biso   1.000  N
  N9       1.0000 0.75220  0.36950  0.41460  Biso   1.000  N
  N10      1.0000 0.24780  0.86950  0.08540  Biso   1.000  N
  N11      1.0000 0.25220  0.13050  0.58540  Biso   1.000  N
  N12      1.0000 0.74780  0.63050  0.91460  Biso   1.000  N
  N13      1.0000 0.91460  0.25220  0.86950  Biso   1.000  N
  N14      1.0000 0.58540  0.74780  0.36950  Biso   1.000  N
  N15      1.0000 0.08540  0.75220  0.63050  Biso   1.000  N
  N16      1.0000 0.41460  0.24780  0.13050  Biso   1.000  N
  N17      1.0000 0.86950  0.91460  0.25220  Biso   1.000  N
  N18      1.0000 0.36950  0.58540  0.74780  Biso   1.000  N
  N19      1.0000 0.63050  0.08540  0.75220  Biso   1.000  N
  N20      1.0000 0.13050  0.41460  0.24780  Biso   1.000  N
  N21      1.0000 0.25220  0.86950  0.91460  Biso   1.000  N
  N22      1.0000 0.74780  0.36950  0.58540  Biso   1.000  N
  N23      1.0000 0.75220  0.63050  0.08540  Biso   1.000  N
  N24      1.0000 0.24780  0.13050  0.41460  Biso   1.000  N
  O1       1.0000 0.47210  0.63260  0.26270  Biso   1.000  O
  O2       1.0000 0.02790  0.36740  0.76270  Biso   1.000  O
  O3       1.0000 0.52790  0.13260  0.23730  Biso   1.000  O
  O4       1.0000 0.97210  0.86740  0.73730  Biso   1.000  O
  O5       1.0000 0.26270  0.47210  0.63260  Biso   1.000  O
  O6       1.0000 0.76270  0.02790  0.36740  Biso   1.000  O
  O7       1.0000 0.23730  0.52790  0.13260  Biso   1.000  O
  O8       1.0000 0.73730  0.97210  0.86740  Biso   1.000  O
  O9       1.0000 0.63260  0.26270  0.47210  Biso   1.000  O
  O10      1.0000 0.36740  0.76270  0.02790  Biso   1.000  O
  O11      1.0000 0.13260  0.23730  0.52790  Biso   1.000  O
  O12      1.0000 0.86740  0.73730  0.97210  Biso   1.000  O
  O13      1.0000 0.97210  0.13260  0.76270  Biso   1.000  O
  O14      1.0000 0.52790  0.86740  0.26270  Biso   1.000  O
  O15      1.0000 0.02790  0.63260  0.73730  Biso   1.000  O
  O16      1.0000 0.47210  0.36740  0.23730  Biso   1.000  O
  O17      1.0000 0.76270  0.97210  0.13260  Biso   1.000  O
  O18      1.0000 0.26270  0.52790  0.86740  Biso   1.000  O
  O19      1.0000 0.73730  0.02790  0.63260  Biso   1.000  O
  O20      1.0000 0.23730  0.47210  0.36740  Biso   1.000  O
  O21      1.0000 0.13260  0.76270  0.97210  Biso   1.000  O
  O22      1.0000 0.86740  0.26270  0.52790  Biso   1.000  O
  O23      1.0000 0.63260  0.73730  0.02790  Biso   1.000  O
  O24      1.0000 0.36740  0.23730  0.47210  Biso   1.000  O
  O25      1.0000 0.32520  0.59310  0.26290  Biso   1.000  O
  O26      1.0000 0.17480  0.40690  0.76290  Biso   1.000  O
  O27      1.0000 0.67480  0.09310  0.23710  Biso   1.000  O
  O28      1.0000 0.82520  0.90690  0.73710  Biso   1.000  O
  O29      1.0000 0.26290  0.32520  0.59310  Biso   1.000  O
  O30      1.0000 0.76290  0.17480  0.40690  Biso   1.000  O
  O31      1.0000 0.23710  0.67480  0.09310  Biso   1.000  O
  O32      1.0000 0.73710  0.82520  0.90690  Biso   1.000  O
  O33      1.0000 0.59310  0.26290  0.32520  Biso   1.000  O
  O34      1.0000 0.40690  0.76290  0.17480  Biso   1.000  O
  O35      1.0000 0.09310  0.23710  0.67480  Biso   1.000  O
  O36      1.0000 0.90690  0.73710  0.82520  Biso   1.000  O
  O37      1.0000 0.82520  0.09310  0.76290  Biso   1.000  O
  O38      1.0000 0.67480  0.90690  0.26290  Biso   1.000  O
  O39      1.0000 0.17480  0.59310  0.73710  Biso   1.000  O
  O40      1.0000 0.32520  0.40690  0.23710  Biso   1.000  O
  O41      1.0000 0.76290  0.82520  0.09310  Biso   1.000  O
  O42      1.0000 0.26290  0.67480  0.90690  Biso   1.000  O
  O43      1.0000 0.73710  0.17480  0.59310  Biso   1.000  O
  O44      1.0000 0.23710  0.32520  0.40690  Biso   1.000  O
  O45      1.0000 0.09310  0.76290  0.82520  Biso   1.000  O
  O46      1.0000 0.90690  0.26290  0.67480  Biso   1.000  O
  O47      1.0000 0.59310  0.73710  0.17480  Biso   1.000  O
  O48      1.0000 0.40690  0.23710  0.32520  Biso   1.000  O
  O49      1.0000 0.42480  0.52110  0.36110  Biso   1.000  O
  O50      1.0000 0.07520  0.47890  0.86110  Biso   1.000  O
  O51      1.0000 0.57520  0.02110  0.13890  Biso   1.000  O
  O52      1.0000 0.92480  0.97890  0.63890  Biso   1.000  O
  O53      1.0000 0.36110  0.42480  0.52110  Biso   1.000  O
  O54      1.0000 0.86110  0.07520  0.47890  Biso   1.000  O
  O55      1.0000 0.13890  0.57520  0.02110  Biso   1.000  O
  O56      1.0000 0.63890  0.92480  0.97890  Biso   1.000  O
  O57      1.0000 0.52110  0.36110  0.42480  Biso   1.000  O
  O58      1.0000 0.47890  0.86110  0.07520  Biso   1.000  O
  O59      1.0000 0.02110  0.13890  0.57520  Biso   1.000  O
  O60      1.0000 0.97890  0.63890  0.92480  Biso   1.000  O
  O61      1.0000 0.92480  0.02110  0.86110  Biso   1.000  O
  O62      1.0000 0.57520  0.97890  0.36110  Biso   1.000  O
  O63      1.0000 0.07520  0.52110  0.63890  Biso   1.000  O
  O64      1.0000 0.42480  0.47890  0.13890  Biso   1.000  O
  O65      1.0000 0.86110  0.92480  0.02110  Biso   1.000  O
  O66      1.0000 0.36110  0.57520  0.97890  Biso   1.000  O
  O67      1.0000 0.63890  0.07520  0.52110  Biso   1.000  O
  O68      1.0000 0.13890  0.42480  0.47890  Biso   1.000  O
  O69      1.0000 0.02110  0.86110  0.92480  Biso   1.000  O
  O70      1.0000 0.97890  0.36110  0.57520  Biso   1.000  O
  O71      1.0000 0.52110  0.63890  0.07520  Biso   1.000  O
  O72      1.0000 0.47890  0.13890  0.42480  Biso   1.000  O
  O73      1.0000 0.22640  0.77360  0.27360  Biso   1.000  O
  O74      1.0000 0.27360  0.22640  0.77360  Biso   1.000  O
  O75      1.0000 0.77360  0.27360  0.22640  Biso   1.000  O
  O76      1.0000 0.72640  0.72640  0.72640  Biso   1.000  O
  O77      1.0000 0.72640  0.27360  0.77360  Biso   1.000  O
  O78      1.0000 0.77360  0.72640  0.27360  Biso   1.000  O
  O79      1.0000 0.27360  0.77360  0.72640  Biso   1.000  O
  O80      1.0000 0.22640  0.22640  0.22640  Biso   1.000  O
  H1       1.0000 0.20120  0.73820  0.24580  Biso   1.000  H
  H2       1.0000 0.29880  0.26180  0.74580  Biso   1.000  H
  H3       1.0000 0.79880  0.23820  0.25420  Biso   1.000  H
  H4       1.0000 0.70120  0.76180  0.75420  Biso   1.000  H
  H5       1.0000 0.24580  0.20120  0.73820  Biso   1.000  H
  H6       1.0000 0.74580  0.29880  0.26180  Biso   1.000  H
  H7       1.0000 0.25420  0.79880  0.23820  Biso   1.000  H
  H8       1.0000 0.75420  0.70120  0.76180  Biso   1.000  H
  H9       1.0000 0.73820  0.24580  0.20120  Biso   1.000  H
  H10      1.0000 0.26180  0.74580  0.29880  Biso   1.000  H
  H11      1.0000 0.23820  0.25420  0.79880  Biso   1.000  H
  H12      1.0000 0.76180  0.75420  0.70120  Biso   1.000  H
  H13      1.0000 0.70120  0.23820  0.74580  Biso   1.000  H
  H14      1.0000 0.79880  0.76180  0.24580  Biso   1.000  H
  H15      1.0000 0.29880  0.73820  0.75420  Biso   1.000  H
  H16      1.0000 0.20120  0.26180  0.25420  Biso   1.000  H
  H17      1.0000 0.74580  0.70120  0.23820  Biso   1.000  H
  H18      1.0000 0.24580  0.79880  0.76180  Biso   1.000  H
  H19      1.0000 0.75420  0.29880  0.73820  Biso   1.000  H
  H20      1.0000 0.25420  0.20120  0.26180  Biso   1.000  H
  H21      1.0000 0.23820  0.74580  0.70120  Biso   1.000  H
  H22      1.0000 0.76180  0.24580  0.79880  Biso   1.000  H
  H23      1.0000 0.73820  0.75420  0.29880  Biso   1.000  H
  H24      1.0000 0.26180  0.25420  0.20120  Biso   1.000  H
  H25      1.0000 0.19270  0.79760  0.30630  Biso   1.000  H
  H26      1.0000 0.30730  0.20240  0.80630  Biso   1.000  H
  H27      1.0000 0.80730  0.29760  0.19370  Biso   1.000  H
  H28      1.0000 0.69270  0.70240  0.69370  Biso   1.000  H
  H29      1.0000 0.30630  0.19270  0.79760  Biso   1.000  H
  H30      1.0000 0.80630  0.30730  0.20240  Biso   1.000  H
  H31      1.0000 0.19370  0.80730  0.29760  Biso   1.000  H
  H32      1.0000 0.69370  0.69270  0.70240  Biso   1.000  H
  H33      1.0000 0.79760  0.30630  0.19270  Biso   1.000  H
  H34      1.0000 0.20240  0.80630  0.30730  Biso   1.000  H
  H35      1.0000 0.29760  0.19370  0.80730  Biso   1.000  H
  H36      1.0000 0.70240  0.69370  0.69270  Biso   1.000  H
  H37      1.0000 0.69270  0.29760  0.80630  Biso   1.000  H
  H38      1.0000 0.80730  0.70240  0.30630  Biso   1.000  H
  H39      1.0000 0.30730  0.79760  0.69370  Biso   1.000  H
  H40      1.0000 0.19270  0.20240  0.19370  Biso   1.000  H
  H41      1.0000 0.80630  0.69270  0.29760  Biso   1.000  H
  H42      1.0000 0.30630  0.80730  0.70240  Biso   1.000  H
  H43      1.0000 0.69370  0.30730  0.79760  Biso   1.000  H
  H44      1.0000 0.19370  0.19270  0.20240  Biso   1.000  H
  H45      1.0000 0.29760  0.80630  0.69270  Biso   1.000  H
  H46      1.0000 0.70240  0.30630  0.80730  Biso   1.000  H
  H47      1.0000 0.79760  0.69370  0.30730  Biso   1.000  H
  H48      1.0000 0.20240  0.19370  0.19270  Biso   1.000  H
  O81      1.0000 0.47380  0.97380  0.52620  Biso   1.000  O
  O82      1.0000 0.02620  0.02620  0.02620  Biso   1.000  O
  O83      1.0000 0.52620  0.47380  0.97380  Biso   1.000  O
  O84      1.0000 0.97380  0.52620  0.47380  Biso   1.000  O
  O85      1.0000 0.97380  0.47380  0.02620  Biso   1.000  O
  O86      1.0000 0.52620  0.52620  0.52620  Biso   1.000  O
  O87      1.0000 0.02620  0.97380  0.47380  Biso   1.000  O
  O88      1.0000 0.47380  0.02620  0.97380  Biso   1.000  O
  H49      1.0000 0.50090  0.97980  0.56990  Biso   1.000  H
  H50      1.0000 0.99910  0.02020  0.06990  Biso   1.000  H
  H51      1.0000 0.49910  0.47980  0.93010  Biso   1.000  H
  H52      1.0000 0.00090  0.52020  0.43010  Biso   1.000  H
  H53      1.0000 0.56990  0.50090  0.97980  Biso   1.000  H
  H54      1.0000 0.06990  0.99910  0.02020  Biso   1.000  H
  H55      1.0000 0.93010  0.49910  0.47980  Biso   1.000  H
  H56      1.0000 0.43010  0.00090  0.52020  Biso   1.000  H
  H57      1.0000 0.97980  0.56990  0.50090  Biso   1.000  H
  H58      1.0000 0.02020  0.06990  0.99910  Biso   1.000  H
  H59      1.0000 0.47980  0.93010  0.49910  Biso   1.000  H
  H60      1.0000 0.52020  0.43010  0.00090  Biso   1.000  H
  H61      1.0000 0.00090  0.47980  0.06990  Biso   1.000  H
  H62      1.0000 0.49910  0.52020  0.56990  Biso   1.000  H
  H63      1.0000 0.99910  0.97980  0.43010  Biso   1.000  H
  H64      1.0000 0.50090  0.02020  0.93010  Biso   1.000  H
  H65      1.0000 0.06990  0.00090  0.47980  Biso   1.000  H
  H66      1.0000 0.56990  0.49910  0.52020  Biso   1.000  H
  H67      1.0000 0.43010  0.99910  0.97980  Biso   1.000  H
  H68      1.0000 0.93010  0.50090  0.02020  Biso   1.000  H
  H69      1.0000 0.47980  0.06990  0.00090  Biso   1.000  H
  H70      1.0000 0.52020  0.56990  0.49910  Biso   1.000  H
  H71      1.0000 0.97980  0.43010  0.99910  Biso   1.000  H
  H72      1.0000 0.02020  0.93010  0.50090  Biso   1.000  H
  H73      1.0000 0.50620  0.97770  0.48480  Biso   1.000  H
  H74      1.0000 0.99380  0.02230  0.98480  Biso   1.000  H
  H75      1.0000 0.49380  0.47770  0.01520  Biso   1.000  H
  H76      1.0000 0.00620  0.52230  0.51520  Biso   1.000  H
  H77      1.0000 0.48480  0.50620  0.97770  Biso   1.000  H
  H78      1.0000 0.98480  0.99380  0.02230  Biso   1.000  H
  H79      1.0000 0.01520  0.49380  0.47770  Biso   1.000  H
  H80      1.0000 0.51520  0.00620  0.52230  Biso   1.000  H
  H81      1.0000 0.97770  0.48480  0.50620  Biso   1.000  H
  H82      1.0000 0.02230  0.98480  0.99380  Biso   1.000  H
  H83      1.0000 0.47770  0.01520  0.49380  Biso   1.000  H
  H84      1.0000 0.52230  0.51520  0.00620  Biso   1.000  H
  H85      1.0000 0.00620  0.47770  0.98480  Biso   1.000  H
  H86      1.0000 0.49380  0.52230  0.48480  Biso   1.000  H
  H87      1.0000 0.99380  0.97770  0.51520  Biso   1.000  H
  H88      1.0000 0.50620  0.02230  0.01520  Biso   1.000  H
  H89      1.0000 0.98480  0.00620  0.47770  Biso   1.000  H
  H90      1.0000 0.48480  0.49380  0.52230  Biso   1.000  H
  H91      1.0000 0.51520  0.99380  0.97770  Biso   1.000  H
  H92      1.0000 0.01520  0.50620  0.02230  Biso   1.000  H
  H93      1.0000 0.47770  0.98480  0.00620  Biso   1.000  H
  H94      1.0000 0.52230  0.48480  0.49380  Biso   1.000  H
  H95      1.0000 0.97770  0.51520  0.99380  Biso   1.000  H
  H96      1.0000 0.02230  0.01520  0.50620  Biso   1.000  H
  C1       1.0000 0.38540  0.67580  0.39430  Biso   1.000  C
  C2       1.0000 0.11460  0.32420  0.89430  Biso   1.000  C
  C3       1.0000 0.61460  0.17580  0.10570  Biso   1.000  C
  C4       1.0000 0.88540  0.82420  0.60570  Biso   1.000  C
  C5       1.0000 0.39430  0.38540  0.67580  Biso   1.000  C
  C6       1.0000 0.89430  0.11460  0.32420  Biso   1.000  C
  C7       1.0000 0.10570  0.61460  0.17580  Biso   1.000  C
  C8       1.0000 0.60570  0.88540  0.82420  Biso   1.000  C
  C9       1.0000 0.67580  0.39430  0.38540  Biso   1.000  C
  C10      1.0000 0.32420  0.89430  0.11460  Biso   1.000  C
  C11      1.0000 0.17580  0.10570  0.61460  Biso   1.000  C
  C12      1.0000 0.82420  0.60570  0.88540  Biso   1.000  C
  C13      1.0000 0.88540  0.17580  0.89430  Biso   1.000  C
  C14      1.0000 0.61460  0.82420  0.39430  Biso   1.000  C
  C15      1.0000 0.11460  0.67580  0.60570  Biso   1.000  C
  C16      1.0000 0.38540  0.32420  0.10570  Biso   1.000  C
  C17      1.0000 0.89430  0.88540  0.17580  Biso   1.000  C
  C18      1.0000 0.39430  0.61460  0.82420  Biso   1.000  C
  C19      1.0000 0.60570  0.11460  0.67580  Biso   1.000  C
  C20      1.0000 0.10570  0.38540  0.32420  Biso   1.000  C
  C21      1.0000 0.17580  0.89430  0.88540  Biso   1.000  C
  C22      1.0000 0.82420  0.39430  0.61460  Biso   1.000  C
  C23      1.0000 0.67580  0.60570  0.11460  Biso   1.000  C
  C24      1.0000 0.32420  0.10570  0.38540  Biso   1.000  C
  C25      1.0000 0.35430  0.66280  0.46900  Biso   1.000  C
  C26      1.0000 0.14570  0.33720  0.96900  Biso   1.000  C
  C27      1.0000 0.64570  0.16280  0.03100  Biso   1.000  C
  C28      1.0000 0.85430  0.83720  0.53100  Biso   1.000  C
  C29      1.0000 0.46900  0.35430  0.66280  Biso   1.000  C
  C30      1.0000 0.96900  0.14570  0.33720  Biso   1.000  C
  C31      1.0000 0.03100  0.64570  0.16280  Biso   1.000  C
  C32      1.0000 0.53100  0.85430  0.83720  Biso   1.000  C
  C33      1.0000 0.66280  0.46900  0.35430  Biso   1.000  C
  C34      1.0000 0.33720  0.96900  0.14570  Biso   1.000  C
  C35      1.0000 0.16280  0.03100  0.64570  Biso   1.000  C
  C36      1.0000 0.83720  0.53100  0.85430  Biso   1.000  C
  C37      1.0000 0.85430  0.16280  0.96900  Biso   1.000  C
  C38      1.0000 0.64570  0.83720  0.46900  Biso   1.000  C
  C39      1.0000 0.14570  0.66280  0.53100  Biso   1.000  C
  C40      1.0000 0.35430  0.33720  0.03100  Biso   1.000  C
  C41      1.0000 0.96900  0.85430  0.16280  Biso   1.000  C
  C42      1.0000 0.46900  0.64570  0.83720  Biso   1.000  C
  C43      1.0000 0.53100  0.14570  0.66280  Biso   1.000  C
  C44      1.0000 0.03100  0.35430  0.33720  Biso   1.000  C
  C45      1.0000 0.16280  0.96900  0.85430  Biso   1.000  C
  C46      1.0000 0.83720  0.46900  0.64570  Biso   1.000  C
  C47      1.0000 0.66280  0.53100  0.14570  Biso   1.000  C
  C48      1.0000 0.33720  0.03100  0.35430  Biso   1.000  C
  H97      1.0000 0.33650  0.61050  0.48370  Biso   1.000  H
  H98      1.0000 0.16350  0.38950  0.98370  Biso   1.000  H
  H99      1.0000 0.66350  0.11050  0.01630  Biso   1.000  H
  H100     1.0000 0.83650  0.88950  0.51630  Biso   1.000  H
  H101     1.0000 0.48370  0.33650  0.61050  Biso   1.000  H
  H102     1.0000 0.98370  0.16350  0.38950  Biso   1.000  H
  H103     1.0000 0.01630  0.66350  0.11050  Biso   1.000  H
  H104     1.0000 0.51630  0.83650  0.88950  Biso   1.000  H
  H105     1.0000 0.61050  0.48370  0.33650  Biso   1.000  H
  H106     1.0000 0.38950  0.98370  0.16350  Biso   1.000  H
  H107     1.0000 0.11050  0.01630  0.66350  Biso   1.000  H
  H108     1.0000 0.88950  0.51630  0.83650  Biso   1.000  H
  H109     1.0000 0.83650  0.11050  0.98370  Biso   1.000  H
  H110     1.0000 0.66350  0.88950  0.48370  Biso   1.000  H
  H111     1.0000 0.16350  0.61050  0.51630  Biso   1.000  H
  H112     1.0000 0.33650  0.38950  0.01630  Biso   1.000  H
  H113     1.0000 0.98370  0.83650  0.11050  Biso   1.000  H
  H114     1.0000 0.48370  0.66350  0.88950  Biso   1.000  H
  H115     1.0000 0.51630  0.16350  0.61050  Biso   1.000  H
  H116     1.0000 0.01630  0.33650  0.38950  Biso   1.000  H
  H117     1.0000 0.11050  0.98370  0.83650  Biso   1.000  H
  H118     1.0000 0.88950  0.48370  0.66350  Biso   1.000  H
  H119     1.0000 0.61050  0.51630  0.16350  Biso   1.000  H
  H120     1.0000 0.38950  0.01630  0.33650  Biso   1.000  H
  C49      1.0000 0.34830  0.72590  0.52400  Biso   1.000  C
  C50      1.0000 0.15170  0.27410  0.02400  Biso   1.000  C
  C51      1.0000 0.65170  0.22590  0.97600  Biso   1.000  C
  C52      1.0000 0.84830  0.77410  0.47600  Biso   1.000  C
  C53      1.0000 0.52400  0.34830  0.72590  Biso   1.000  C
  C54      1.0000 0.02400  0.15170  0.27410  Biso   1.000  C
  C55      1.0000 0.97600  0.65170  0.22590  Biso   1.000  C
  C56      1.0000 0.47600  0.84830  0.77410  Biso   1.000  C
  C57      1.0000 0.72590  0.52400  0.34830  Biso   1.000  C
  C58      1.0000 0.27410  0.02400  0.15170  Biso   1.000  C
  C59      1.0000 0.22590  0.97600  0.65170  Biso   1.000  C
  C60      1.0000 0.77410  0.47600  0.84830  Biso   1.000  C
  C61      1.0000 0.84830  0.22590  0.02400  Biso   1.000  C
  C62      1.0000 0.65170  0.77410  0.52400  Biso   1.000  C
  C63      1.0000 0.15170  0.72590  0.47600  Biso   1.000  C
  C64      1.0000 0.34830  0.27410  0.97600  Biso   1.000  C
  C65      1.0000 0.02400  0.84830  0.22590  Biso   1.000  C
  C66      1.0000 0.52400  0.65170  0.77410  Biso   1.000  C
  C67      1.0000 0.47600  0.15170  0.72590  Biso   1.000  C
  C68      1.0000 0.97600  0.34830  0.27410  Biso   1.000  C
  C69      1.0000 0.22590  0.02400  0.84830  Biso   1.000  C
  C70      1.0000 0.77410  0.52400  0.65170  Biso   1.000  C
  C71      1.0000 0.72590  0.47600  0.15170  Biso   1.000  C
  C72      1.0000 0.27410  0.97600  0.34830  Biso   1.000  C
  H121     1.0000 0.32850  0.71750  0.57690  Biso   1.000  H
  H122     1.0000 0.17150  0.28250  0.07690  Biso   1.000  H
  H123     1.0000 0.67150  0.21750  0.92310  Biso   1.000  H
  H124     1.0000 0.82850  0.78250  0.42310  Biso   1.000  H
  H125     1.0000 0.57690  0.32850  0.71750  Biso   1.000  H
  H126     1.0000 0.07690  0.17150  0.28250  Biso   1.000  H
  H127     1.0000 0.92310  0.67150  0.21750  Biso   1.000  H
  H128     1.0000 0.42310  0.82850  0.78250  Biso   1.000  H
  H129     1.0000 0.71750  0.57690  0.32850  Biso   1.000  H
  H130     1.0000 0.28250  0.07690  0.17150  Biso   1.000  H
  H131     1.0000 0.21750  0.92310  0.67150  Biso   1.000  H
  H132     1.0000 0.78250  0.42310  0.82850  Biso   1.000  H
  H133     1.0000 0.82850  0.21750  0.07690  Biso   1.000  H
  H134     1.0000 0.67150  0.78250  0.57690  Biso   1.000  H
  H135     1.0000 0.17150  0.71750  0.42310  Biso   1.000  H
  H136     1.0000 0.32850  0.28250  0.92310  Biso   1.000  H
  H137     1.0000 0.07690  0.82850  0.21750  Biso   1.000  H
  H138     1.0000 0.57690  0.67150  0.78250  Biso   1.000  H
  H139     1.0000 0.42310  0.17150  0.71750  Biso   1.000  H
  H140     1.0000 0.92310  0.32850  0.28250  Biso   1.000  H
  H141     1.0000 0.21750  0.07690  0.82850  Biso   1.000  H
  H142     1.0000 0.78250  0.57690  0.67150  Biso   1.000  H
  H143     1.0000 0.71750  0.42310  0.17150  Biso   1.000  H
  H144     1.0000 0.28250  0.92310  0.32850  Biso   1.000  H
  C73      1.0000 0.37320  0.80370  0.49760  Biso   1.000  C
  C74      1.0000 0.12680  0.19630  0.99760  Biso   1.000  C
  C75      1.0000 0.62680  0.30370  0.00240  Biso   1.000  C
  C76      1.0000 0.87320  0.69630  0.50240  Biso   1.000  C
  C77      1.0000 0.49760  0.37320  0.80370  Biso   1.000  C
  C78      1.0000 0.99760  0.12680  0.19630  Biso   1.000  C
  C79      1.0000 0.00240  0.62680  0.30370  Biso   1.000  C
  C80      1.0000 0.50240  0.87320  0.69630  Biso   1.000  C
  C81      1.0000 0.80370  0.49760  0.37320  Biso   1.000  C
  C82      1.0000 0.19630  0.99760  0.12680  Biso   1.000  C
  C83      1.0000 0.30370  0.00240  0.62680  Biso   1.000  C
  C84      1.0000 0.69630  0.50240  0.87320  Biso   1.000  C
  C85      1.0000 0.87320  0.30370  0.99760  Biso   1.000  C
  C86      1.0000 0.62680  0.69630  0.49760  Biso   1.000  C
  C87      1.0000 0.12680  0.80370  0.50240  Biso   1.000  C
  C88      1.0000 0.37320  0.19630  0.00240  Biso   1.000  C
  C89      1.0000 0.99760  0.87320  0.30370  Biso   1.000  C
  C90      1.0000 0.49760  0.62680  0.69630  Biso   1.000  C
  C91      1.0000 0.50240  0.12680  0.80370  Biso   1.000  C
  C92      1.0000 0.00240  0.37320  0.19630  Biso   1.000  C
  C93      1.0000 0.30370  0.99760  0.87320  Biso   1.000  C
  C94      1.0000 0.69630  0.49760  0.62680  Biso   1.000  C
  C95      1.0000 0.80370  0.50240  0.12680  Biso   1.000  C
  C96      1.0000 0.19630  0.00240  0.37320  Biso   1.000  C
  H145     1.0000 0.37040  0.84830  0.53320  Biso   1.000  H
  H146     1.0000 0.12960  0.15170  0.03320  Biso   1.000  H
  H147     1.0000 0.62960  0.34830  0.96680  Biso   1.000  H
  H148     1.0000 0.87040  0.65170  0.46680  Biso   1.000  H
  H149     1.0000 0.53320  0.37040  0.84830  Biso   1.000  H
  H150     1.0000 0.03320  0.12960  0.15170  Biso   1.000  H
  H151     1.0000 0.96680  0.62960  0.34830  Biso   1.000  H
  H152     1.0000 0.46680  0.87040  0.65170  Biso   1.000  H
  H153     1.0000 0.84830  0.53320  0.37040  Biso   1.000  H
  H154     1.0000 0.15170  0.03320  0.12960  Biso   1.000  H
  H155     1.0000 0.34830  0.96680  0.62960  Biso   1.000  H
  H156     1.0000 0.65170  0.46680  0.87040  Biso   1.000  H
  H157     1.0000 0.87040  0.34830  0.03320  Biso   1.000  H
  H158     1.0000 0.62960  0.65170  0.53320  Biso   1.000  H
  H159     1.0000 0.12960  0.84830  0.46680  Biso   1.000  H
  H160     1.0000 0.37040  0.15170  0.96680  Biso   1.000  H
  H161     1.0000 0.03320  0.87040  0.34830  Biso   1.000  H
  H162     1.0000 0.53320  0.62960  0.65170  Biso   1.000  H
  H163     1.0000 0.46680  0.12960  0.84830  Biso   1.000  H
  H164     1.0000 0.96680  0.37040  0.15170  Biso   1.000  H
  H165     1.0000 0.34830  0.03320  0.87040  Biso   1.000  H
  H166     1.0000 0.65170  0.53320  0.62960  Biso   1.000  H
  H167     1.0000 0.84830  0.46680  0.12960  Biso   1.000  H
  H168     1.0000 0.15170  0.96680  0.37040  Biso   1.000  H
  C97      1.0000 0.40050  0.81330  0.42280  Biso   1.000  C
  C98      1.0000 0.09950  0.18670  0.92280  Biso   1.000  C
  C99      1.0000 0.59950  0.31330  0.07720  Biso   1.000  C
  C100     1.0000 0.90050  0.68670  0.57720  Biso   1.000  C
  C101     1.0000 0.42280  0.40050  0.81330  Biso   1.000  C
  C102     1.0000 0.92280  0.09950  0.18670  Biso   1.000  C
  C103     1.0000 0.07720  0.59950  0.31330  Biso   1.000  C
  C104     1.0000 0.57720  0.90050  0.68670  Biso   1.000  C
  C105     1.0000 0.81330  0.42280  0.40050  Biso   1.000  C
  C106     1.0000 0.18670  0.92280  0.09950  Biso   1.000  C
  C107     1.0000 0.31330  0.07720  0.59950  Biso   1.000  C
  C108     1.0000 0.68670  0.57720  0.90050  Biso   1.000  C
  C109     1.0000 0.90050  0.31330  0.92280  Biso   1.000  C
  C110     1.0000 0.59950  0.68670  0.42280  Biso   1.000  C
  C111     1.0000 0.09950  0.81330  0.57720  Biso   1.000  C
  C112     1.0000 0.40050  0.18670  0.07720  Biso   1.000  C
  C113     1.0000 0.92280  0.90050  0.31330  Biso   1.000  C
  C114     1.0000 0.42280  0.59950  0.68670  Biso   1.000  C
  C115     1.0000 0.57720  0.09950  0.81330  Biso   1.000  C
  C116     1.0000 0.07720  0.40050  0.18670  Biso   1.000  C
  C117     1.0000 0.31330  0.92280  0.90050  Biso   1.000  C
  C118     1.0000 0.68670  0.42280  0.59950  Biso   1.000  C
  C119     1.0000 0.81330  0.57720  0.09950  Biso   1.000  C
  C120     1.0000 0.18670  0.07720  0.40050  Biso   1.000  C
  H169     1.0000 0.41090  0.86670  0.40510  Biso   1.000  H
  H170     1.0000 0.08910  0.13330  0.90510  Biso   1.000  H
  H171     1.0000 0.58910  0.36670  0.09490  Biso   1.000  H
  H172     1.0000 0.91090  0.63330  0.59490  Biso   1.000  H
  H173     1.0000 0.40510  0.41090  0.86670  Biso   1.000  H
  H174     1.0000 0.90510  0.08910  0.13330  Biso   1.000  H
  H175     1.0000 0.09490  0.58910  0.36670  Biso   1.000  H
  H176     1.0000 0.59490  0.91090  0.63330  Biso   1.000  H
  H177     1.0000 0.86670  0.40510  0.41090  Biso   1.000  H
  H178     1.0000 0.13330  0.90510  0.08910  Biso   1.000  H
  H179     1.0000 0.36670  0.09490  0.58910  Biso   1.000  H
  H180     1.0000 0.63330  0.59490  0.91090  Biso   1.000  H
  H181     1.0000 0.91090  0.36670  0.90510  Biso   1.000  H
  H182     1.0000 0.58910  0.63330  0.40510  Biso   1.000  H
  H183     1.0000 0.08910  0.86670  0.59490  Biso   1.000  H
  H184     1.0000 0.41090  0.13330  0.09490  Biso   1.000  H
  H185     1.0000 0.90510  0.91090  0.36670  Biso   1.000  H
  H186     1.0000 0.40510  0.58910  0.63330  Biso   1.000  H
  H187     1.0000 0.59490  0.08910  0.86670  Biso   1.000  H
  H188     1.0000 0.09490  0.41090  0.13330  Biso   1.000  H
  H189     1.0000 0.36670  0.90510  0.91090  Biso   1.000  H
  H190     1.0000 0.63330  0.40510  0.58910  Biso   1.000  H
  H191     1.0000 0.86670  0.59490  0.08910  Biso   1.000  H
  H192     1.0000 0.13330  0.09490  0.41090  Biso   1.000  H
