data_image0
_cell_length_a       18.724
_cell_length_b       18.724
_cell_length_c       10.21
_cell_angle_alpha    90
_cell_angle_beta     90
_cell_angle_gamma    120

_symmetry_space_group_name_H-M    "P 1"
_symmetry_int_tables_number       1

loop_
  _symmetry_equiv_pos_as_xyz
  'x, y, z'

loop_
  _atom_site_label
  _atom_site_occupancy
  _atom_site_fract_x
  _atom_site_fract_y
  _atom_site_fract_z
  _atom_site_thermal_displace_type
  _atom_site_B_iso_or_equiv
  _atom_site_type_symbol
  Eu1      1.0000 0.66670  0.33330  0.33330  Biso   1.000  Eu
  Eu2      1.0000 0.33337  0.66663  0.66663  Biso   1.000  Eu
  Eu3      1.0000 0.00003  0.99997  0.99997  Biso   1.000  Eu
  Eu4      1.0000 0.66670  0.33330  0.83330  Biso   1.000  Eu
  Eu5      1.0000 0.33337  0.66663  0.16663  Biso   1.000  Eu
  Eu6      1.0000 0.00003  0.99997  0.49997  Biso   1.000  Eu
  Cu1      1.0000 0.83330  0.16670  0.16670  Biso   1.000  Cu
  Cu2      1.0000 0.83330  0.66660  0.16670  Biso   1.000  Cu
  Cu3      1.0000 0.33340  0.16670  0.16670  Biso   1.000  Cu
  Cu4      1.0000 0.49997  0.50003  0.50003  Biso   1.000  Cu
  Cu5      1.0000 0.49997  0.99993  0.50003  Biso   1.000  Cu
  Cu6      1.0000 0.00007  0.50003  0.50003  Biso   1.000  Cu
  Cu7      1.0000 0.16663  0.83337  0.83337  Biso   1.000  Cu
  Cu8      1.0000 0.16663  0.33327  0.83337  Biso   1.000  Cu
  Cu9      1.0000 0.66673  0.83337  0.83337  Biso   1.000  Cu
  P1       1.0000 0.73963  0.24521  0.08824  Biso   1.000  P
  P2       1.0000 0.75479  0.49442  0.08824  Biso   1.000  P
  P3       1.0000 0.50558  0.26037  0.08824  Biso   1.000  P
  P4       1.0000 0.40630  0.57854  0.42157  Biso   1.000  P
  P5       1.0000 0.42146  0.82775  0.42157  Biso   1.000  P
  P6       1.0000 0.17225  0.59370  0.42157  Biso   1.000  P
  P7       1.0000 0.07296  0.91188  0.75491  Biso   1.000  P
  P8       1.0000 0.08812  0.16109  0.75491  Biso   1.000  P
  P9       1.0000 0.83891  0.92704  0.75491  Biso   1.000  P
  P10      1.0000 0.26037  0.75479  0.91176  Biso   1.000  P
  P11      1.0000 0.24521  0.50558  0.91176  Biso   1.000  P
  P12      1.0000 0.49442  0.73963  0.91176  Biso   1.000  P
  P13      1.0000 0.92704  0.08812  0.24509  Biso   1.000  P
  P14      1.0000 0.91188  0.83891  0.24509  Biso   1.000  P
  P15      1.0000 0.16109  0.07296  0.24509  Biso   1.000  P
  P16      1.0000 0.59370  0.42146  0.57843  Biso   1.000  P
  P17      1.0000 0.57854  0.17225  0.57843  Biso   1.000  P
  P18      1.0000 0.82775  0.40630  0.57843  Biso   1.000  P
  O1       1.0000 0.82232  0.24855  0.07340  Biso   1.000  O
  O2       1.0000 0.75145  0.57377  0.07340  Biso   1.000  O
  O3       1.0000 0.42623  0.17768  0.07340  Biso   1.000  O
  O4       1.0000 0.48899  0.58188  0.40673  Biso   1.000  O
  O5       1.0000 0.41812  0.90710  0.40673  Biso   1.000  O
  O6       1.0000 0.09290  0.51101  0.40673  Biso   1.000  O
  O7       1.0000 0.15565  0.91522  0.74007  Biso   1.000  O
  O8       1.0000 0.08478  0.24044  0.74007  Biso   1.000  O
  O9       1.0000 0.75956  0.84435  0.74007  Biso   1.000  O
  O10      1.0000 0.17768  0.75145  0.92660  Biso   1.000  O
  O11      1.0000 0.24855  0.42623  0.92660  Biso   1.000  O
  O12      1.0000 0.57377  0.82232  0.92660  Biso   1.000  O
  O13      1.0000 0.84435  0.08478  0.25993  Biso   1.000  O
  O14      1.0000 0.91522  0.75956  0.25993  Biso   1.000  O
  O15      1.0000 0.24044  0.15565  0.25993  Biso   1.000  O
  O16      1.0000 0.51101  0.41812  0.59327  Biso   1.000  O
  O17      1.0000 0.58188  0.09290  0.59327  Biso   1.000  O
  O18      1.0000 0.90710  0.48899  0.59327  Biso   1.000  O
  O19      1.0000 0.73986  0.29603  0.20120  Biso   1.000  O
  O20      1.0000 0.70397  0.44383  0.20120  Biso   1.000  O
  O21      1.0000 0.55617  0.26014  0.20120  Biso   1.000  O
  O22      1.0000 0.40653  0.62936  0.53453  Biso   1.000  O
  O23      1.0000 0.37064  0.77716  0.53453  Biso   1.000  O
  O24      1.0000 0.22284  0.59347  0.53453  Biso   1.000  O
  O25      1.0000 0.07319  0.96270  0.86787  Biso   1.000  O
  O26      1.0000 0.03730  0.11050  0.86787  Biso   1.000  O
  O27      1.0000 0.88950  0.92681  0.86787  Biso   1.000  O
  O28      1.0000 0.26014  0.70397  0.79880  Biso   1.000  O
  O29      1.0000 0.29603  0.55617  0.79880  Biso   1.000  O
  O30      1.0000 0.44383  0.73986  0.79880  Biso   1.000  O
  O31      1.0000 0.92681  0.03730  0.13213  Biso   1.000  O
  O32      1.0000 0.96270  0.88950  0.13213  Biso   1.000  O
  O33      1.0000 0.11050  0.07319  0.13213  Biso   1.000  O
  O34      1.0000 0.59347  0.37064  0.46547  Biso   1.000  O
  O35      1.0000 0.62936  0.22284  0.46547  Biso   1.000  O
  O36      1.0000 0.77716  0.40653  0.46547  Biso   1.000  O
  O37      1.0000 0.70936  0.26140  0.96240  Biso   1.000  O
  O38      1.0000 0.73860  0.44796  0.96240  Biso   1.000  O
  O39      1.0000 0.55204  0.29064  0.96240  Biso   1.000  O
  O40      1.0000 0.37603  0.59473  0.29573  Biso   1.000  O
  O41      1.0000 0.40527  0.78129  0.29573  Biso   1.000  O
  O42      1.0000 0.21871  0.62397  0.29573  Biso   1.000  O
  O43      1.0000 0.04269  0.92807  0.62907  Biso   1.000  O
  O44      1.0000 0.07193  0.11463  0.62907  Biso   1.000  O
  O45      1.0000 0.88537  0.95731  0.62907  Biso   1.000  O
  O46      1.0000 0.29064  0.73860  0.03760  Biso   1.000  O
  O47      1.0000 0.26140  0.55204  0.03760  Biso   1.000  O
  O48      1.0000 0.44796  0.70936  0.03760  Biso   1.000  O
  O49      1.0000 0.95731  0.07193  0.37093  Biso   1.000  O
  O50      1.0000 0.92807  0.88537  0.37093  Biso   1.000  O
  O51      1.0000 0.11463  0.04269  0.37093  Biso   1.000  O
  O52      1.0000 0.62397  0.40527  0.70427  Biso   1.000  O
  O53      1.0000 0.59473  0.21871  0.70427  Biso   1.000  O
  O54      1.0000 0.78129  0.37603  0.70427  Biso   1.000  O
  N1       1.0000 0.71153  0.09707  0.16150  Biso   1.000  N
  N2       1.0000 0.90293  0.61446  0.16150  Biso   1.000  N
  N3       1.0000 0.38554  0.28847  0.16150  Biso   1.000  N
  N4       1.0000 0.37820  0.43040  0.49483  Biso   1.000  N
  N5       1.0000 0.56960  0.94779  0.49483  Biso   1.000  N
  N6       1.0000 0.05221  0.62180  0.49483  Biso   1.000  N
  N7       1.0000 0.04486  0.76374  0.82817  Biso   1.000  N
  N8       1.0000 0.23626  0.28113  0.82817  Biso   1.000  N
  N9       1.0000 0.71887  0.95514  0.82817  Biso   1.000  N
  N10      1.0000 0.28847  0.90293  0.83850  Biso   1.000  N
  N11      1.0000 0.09707  0.38554  0.83850  Biso   1.000  N
  N12      1.0000 0.61446  0.71153  0.83850  Biso   1.000  N
  N13      1.0000 0.95514  0.23626  0.17183  Biso   1.000  N
  N14      1.0000 0.76374  0.71887  0.17183  Biso   1.000  N
  N15      1.0000 0.28113  0.04486  0.17183  Biso   1.000  N
  N16      1.0000 0.62180  0.56960  0.50517  Biso   1.000  N
  N17      1.0000 0.43040  0.05221  0.50517  Biso   1.000  N
  N18      1.0000 0.94779  0.37820  0.50517  Biso   1.000  N
  C1       1.0000 0.67158  0.13745  0.13060  Biso   1.000  C
  C2       1.0000 0.86255  0.53413  0.13060  Biso   1.000  C
  C3       1.0000 0.46587  0.32842  0.13060  Biso   1.000  C
  C4       1.0000 0.33825  0.47078  0.46393  Biso   1.000  C
  C5       1.0000 0.52922  0.86746  0.46393  Biso   1.000  C
  C6       1.0000 0.13254  0.66175  0.46393  Biso   1.000  C
  C7       1.0000 0.00491  0.80412  0.79727  Biso   1.000  C
  C8       1.0000 0.19588  0.20080  0.79727  Biso   1.000  C
  C9       1.0000 0.79920  0.99509  0.79727  Biso   1.000  C
  C10      1.0000 0.32842  0.86255  0.86940  Biso   1.000  C
  C11      1.0000 0.13745  0.46587  0.86940  Biso   1.000  C
  C12      1.0000 0.53413  0.67158  0.86940  Biso   1.000  C
  C13      1.0000 0.99509  0.19588  0.20273  Biso   1.000  C
  C14      1.0000 0.80412  0.79920  0.20273  Biso   1.000  C
  C15      1.0000 0.20080  0.00491  0.20273  Biso   1.000  C
  C16      1.0000 0.66175  0.52922  0.53607  Biso   1.000  C
  C17      1.0000 0.47078  0.13254  0.53607  Biso   1.000  C
  C18      1.0000 0.86746  0.33825  0.53607  Biso   1.000  C
  C19      1.0000 0.58630  0.09640  0.12870  Biso   1.000  C
  C20      1.0000 0.90360  0.48990  0.12870  Biso   1.000  C
  C21      1.0000 0.51010  0.41370  0.12870  Biso   1.000  C
  C22      1.0000 0.25297  0.42973  0.46203  Biso   1.000  C
  C23      1.0000 0.57027  0.82323  0.46203  Biso   1.000  C
  C24      1.0000 0.17677  0.74703  0.46203  Biso   1.000  C
  C25      1.0000 0.91963  0.76307  0.79537  Biso   1.000  C
  C26      1.0000 0.23693  0.15657  0.79537  Biso   1.000  C
  C27      1.0000 0.84343  0.08037  0.79537  Biso   1.000  C
  C28      1.0000 0.41370  0.90360  0.87130  Biso   1.000  C
  C29      1.0000 0.09640  0.51010  0.87130  Biso   1.000  C
  C30      1.0000 0.48990  0.58630  0.87130  Biso   1.000  C
  C31      1.0000 0.08037  0.23693  0.20463  Biso   1.000  C
  C32      1.0000 0.76307  0.84343  0.20463  Biso   1.000  C
  C33      1.0000 0.15657  0.91963  0.20463  Biso   1.000  C
  C34      1.0000 0.74703  0.57027  0.53797  Biso   1.000  C
  C35      1.0000 0.42973  0.17677  0.53797  Biso   1.000  C
  C36      1.0000 0.82323  0.25297  0.53797  Biso   1.000  C
  H1       1.0000 0.55850  0.12500  0.11220  Biso   1.000  H
  H2       1.0000 0.87500  0.43350  0.11220  Biso   1.000  H
  H3       1.0000 0.56650  0.44150  0.11220  Biso   1.000  H
  H4       1.0000 0.22517  0.45833  0.44553  Biso   1.000  H
  H5       1.0000 0.54167  0.76683  0.44553  Biso   1.000  H
  H6       1.0000 0.23317  0.77483  0.44553  Biso   1.000  H
  H7       1.0000 0.89183  0.79167  0.77887  Biso   1.000  H
  H8       1.0000 0.20833  0.10017  0.77887  Biso   1.000  H
  H9       1.0000 0.89983  0.10817  0.77887  Biso   1.000  H
  H10      1.0000 0.44150  0.87500  0.88780  Biso   1.000  H
  H11      1.0000 0.12500  0.56650  0.88780  Biso   1.000  H
  H12      1.0000 0.43350  0.55850  0.88780  Biso   1.000  H
  H13      1.0000 0.10817  0.20833  0.22113  Biso   1.000  H
  H14      1.0000 0.79167  0.89983  0.22113  Biso   1.000  H
  H15      1.0000 0.10017  0.89183  0.22113  Biso   1.000  H
  H16      1.0000 0.77483  0.54167  0.55447  Biso   1.000  H
  H17      1.0000 0.45833  0.23317  0.55447  Biso   1.000  H
  H18      1.0000 0.76683  0.22517  0.55447  Biso   1.000  H
  C37      1.0000 0.54270  0.01220  0.15170  Biso   1.000  C
  C38      1.0000 0.98780  0.53050  0.15170  Biso   1.000  C
  C39      1.0000 0.46950  0.45730  0.15170  Biso   1.000  C
  C40      1.0000 0.20937  0.34553  0.48503  Biso   1.000  C
  C41      1.0000 0.65447  0.86383  0.48503  Biso   1.000  C
  C42      1.0000 0.13617  0.79063  0.48503  Biso   1.000  C
  C43      1.0000 0.87603  0.67887  0.81837  Biso   1.000  C
  C44      1.0000 0.32113  0.19717  0.81837  Biso   1.000  C
  C45      1.0000 0.80283  0.12397  0.81837  Biso   1.000  C
  C46      1.0000 0.45730  0.98780  0.84830  Biso   1.000  C
  C47      1.0000 0.01220  0.46950  0.84830  Biso   1.000  C
  C48      1.0000 0.53050  0.54270  0.84830  Biso   1.000  C
  C49      1.0000 0.12397  0.32113  0.18163  Biso   1.000  C
  C50      1.0000 0.67887  0.80283  0.18163  Biso   1.000  C
  C51      1.0000 0.19717  0.87603  0.18163  Biso   1.000  C
  C52      1.0000 0.79063  0.65447  0.51497  Biso   1.000  C
  C53      1.0000 0.34553  0.13617  0.51497  Biso   1.000  C
  C54      1.0000 0.86383  0.20937  0.51497  Biso   1.000  C
  H19      1.0000 0.48540  0.98370  0.15080  Biso   1.000  H
  H20      1.0000 0.01630  0.50170  0.15080  Biso   1.000  H
  H21      1.0000 0.49830  0.51460  0.15080  Biso   1.000  H
  H22      1.0000 0.15207  0.31703  0.48413  Biso   1.000  H
  H23      1.0000 0.68297  0.83503  0.48413  Biso   1.000  H
  H24      1.0000 0.16497  0.84793  0.48413  Biso   1.000  H
  H25      1.0000 0.81873  0.65037  0.81747  Biso   1.000  H
  H26      1.0000 0.34963  0.16837  0.81747  Biso   1.000  H
  H27      1.0000 0.83163  0.18127  0.81747  Biso   1.000  H
  H28      1.0000 0.51460  0.01630  0.84920  Biso   1.000  H
  H29      1.0000 0.98370  0.49830  0.84920  Biso   1.000  H
  H30      1.0000 0.50170  0.48540  0.84920  Biso   1.000  H
  H31      1.0000 0.18127  0.34963  0.18253  Biso   1.000  H
  H32      1.0000 0.65037  0.83163  0.18253  Biso   1.000  H
  H33      1.0000 0.16837  0.81873  0.18253  Biso   1.000  H
  H34      1.0000 0.84793  0.68297  0.51587  Biso   1.000  H
  H35      1.0000 0.31703  0.16497  0.51587  Biso   1.000  H
  H36      1.0000 0.83503  0.15207  0.51587  Biso   1.000  H
  C55      1.0000 0.58520  0.97160  0.17570  Biso   1.000  C
  C56      1.0000 0.02840  0.61360  0.17570  Biso   1.000  C
  C57      1.0000 0.38640  0.41480  0.17570  Biso   1.000  C
  C58      1.0000 0.25187  0.30493  0.50903  Biso   1.000  C
  C59      1.0000 0.69507  0.94693  0.50903  Biso   1.000  C
  C60      1.0000 0.05307  0.74813  0.50903  Biso   1.000  C
  C61      1.0000 0.91853  0.63827  0.84237  Biso   1.000  C
  C62      1.0000 0.36173  0.28027  0.84237  Biso   1.000  C
  C63      1.0000 0.71973  0.08147  0.84237  Biso   1.000  C
  C64      1.0000 0.41480  0.02840  0.82430  Biso   1.000  C
  C65      1.0000 0.97160  0.38640  0.82430  Biso   1.000  C
  C66      1.0000 0.61360  0.58520  0.82430  Biso   1.000  C
  C67      1.0000 0.08147  0.36173  0.15763  Biso   1.000  C
  C68      1.0000 0.63827  0.71973  0.15763  Biso   1.000  C
  C69      1.0000 0.28027  0.91853  0.15763  Biso   1.000  C
  C70      1.0000 0.74813  0.69507  0.49097  Biso   1.000  C
  C71      1.0000 0.30493  0.05307  0.49097  Biso   1.000  C
  C72      1.0000 0.94693  0.25187  0.49097  Biso   1.000  C
  H37      1.0000 0.55710  0.91470  0.18710  Biso   1.000  H
  H38      1.0000 0.08530  0.64240  0.18710  Biso   1.000  H
  H39      1.0000 0.35760  0.44290  0.18710  Biso   1.000  H
  H40      1.0000 0.22377  0.24803  0.52043  Biso   1.000  H
  H41      1.0000 0.75197  0.97573  0.52043  Biso   1.000  H
  H42      1.0000 0.02427  0.77623  0.52043  Biso   1.000  H
  H43      1.0000 0.89043  0.58137  0.85377  Biso   1.000  H
  H44      1.0000 0.41863  0.30907  0.85377  Biso   1.000  H
  H45      1.0000 0.69093  0.10957  0.85377  Biso   1.000  H
  H46      1.0000 0.44290  0.08530  0.81290  Biso   1.000  H
  H47      1.0000 0.91470  0.35760  0.81290  Biso   1.000  H
  H48      1.0000 0.64240  0.55710  0.81290  Biso   1.000  H
  H49      1.0000 0.10957  0.41863  0.14623  Biso   1.000  H
  H50      1.0000 0.58137  0.69093  0.14623  Biso   1.000  H
  H51      1.0000 0.30907  0.89043  0.14623  Biso   1.000  H
  H52      1.0000 0.77623  0.75197  0.47957  Biso   1.000  H
  H53      1.0000 0.24803  0.02427  0.47957  Biso   1.000  H
  H54      1.0000 0.97573  0.22377  0.47957  Biso   1.000  H
  C73      1.0000 0.66920  0.01550  0.18280  Biso   1.000  C
  C74      1.0000 0.98450  0.65370  0.18280  Biso   1.000  C
  C75      1.0000 0.34630  0.33080  0.18280  Biso   1.000  C
  C76      1.0000 0.33587  0.34883  0.51613  Biso   1.000  C
  C77      1.0000 0.65117  0.98703  0.51613  Biso   1.000  C
  C78      1.0000 0.01297  0.66413  0.51613  Biso   1.000  C
  C79      1.0000 0.00253  0.68217  0.84947  Biso   1.000  C
  C80      1.0000 0.31783  0.32037  0.84947  Biso   1.000  C
  C81      1.0000 0.67963  0.99747  0.84947  Biso   1.000  C
  C82      1.0000 0.33080  0.98450  0.81720  Biso   1.000  C
  C83      1.0000 0.01550  0.34630  0.81720  Biso   1.000  C
  C84      1.0000 0.65370  0.66920  0.81720  Biso   1.000  C
  C85      1.0000 0.99747  0.31783  0.15053  Biso   1.000  C
  C86      1.0000 0.68217  0.67963  0.15053  Biso   1.000  C
  C87      1.0000 0.32037  0.00253  0.15053  Biso   1.000  C
  C88      1.0000 0.66413  0.65117  0.48387  Biso   1.000  C
  C89      1.0000 0.34883  0.01297  0.48387  Biso   1.000  C
  C90      1.0000 0.98703  0.33587  0.48387  Biso   1.000  C
  H55      1.0000 0.69780  0.98820  0.20290  Biso   1.000  H
  H56      1.0000 0.01180  0.70960  0.20290  Biso   1.000  H
  H57      1.0000 0.29040  0.30220  0.20290  Biso   1.000  H
  H58      1.0000 0.36447  0.32153  0.53623  Biso   1.000  H
  H59      1.0000 0.67847  0.04293  0.53623  Biso   1.000  H
  H60      1.0000 0.95707  0.63553  0.53623  Biso   1.000  H
  H61      1.0000 0.03113  0.65487  0.86957  Biso   1.000  H
  H62      1.0000 0.34513  0.37627  0.86957  Biso   1.000  H
  H63      1.0000 0.62373  0.96887  0.86957  Biso   1.000  H
  H64      1.0000 0.30220  0.01180  0.79710  Biso   1.000  H
  H65      1.0000 0.98820  0.29040  0.79710  Biso   1.000  H
  H66      1.0000 0.70960  0.69780  0.79710  Biso   1.000  H
  H67      1.0000 0.96887  0.34513  0.13043  Biso   1.000  H
  H68      1.0000 0.65487  0.62373  0.13043  Biso   1.000  H
  H69      1.0000 0.37627  0.03113  0.13043  Biso   1.000  H
  H70      1.0000 0.63553  0.67847  0.46377  Biso   1.000  H
  H71      1.0000 0.32153  0.95707  0.46377  Biso   1.000  H
  H72      1.0000 0.04293  0.36447  0.46377  Biso   1.000  H
