data_image0
_cell_length_a       18.622
_cell_length_b       18.622
_cell_length_c       10.067
_cell_angle_alpha    90
_cell_angle_beta     90
_cell_angle_gamma    120

_symmetry_space_group_name_H-M    "P 1"
_symmetry_int_tables_number       1

loop_
  _symmetry_equiv_pos_as_xyz
  'x, y, z'

loop_
  _atom_site_label
  _atom_site_occupancy
  _atom_site_fract_x
  _atom_site_fract_y
  _atom_site_fract_z
  _atom_site_thermal_displace_type
  _atom_site_B_iso_or_equiv
  _atom_site_type_symbol
  Ho1      1.0000 0.66670  0.33330  0.83330  Biso   1.000  Ho
  Ho2      1.0000 0.33337  0.66663  0.16663  Biso   1.000  Ho
  Ho3      1.0000 0.00003  0.99997  0.49997  Biso   1.000  Ho
  Ho4      1.0000 0.66670  0.33330  0.33330  Biso   1.000  Ho
  Ho5      1.0000 0.33337  0.66663  0.66663  Biso   1.000  Ho
  Ho6      1.0000 0.00003  0.99997  0.99997  Biso   1.000  Ho
  Cu1      1.0000 0.83330  0.16670  0.16670  Biso   1.000  Cu
  Cu2      1.0000 0.83330  0.66660  0.16670  Biso   1.000  Cu
  Cu3      1.0000 0.33340  0.16670  0.16670  Biso   1.000  Cu
  Cu4      1.0000 0.49997  0.50003  0.50003  Biso   1.000  Cu
  Cu5      1.0000 0.49997  0.99993  0.50003  Biso   1.000  Cu
  Cu6      1.0000 0.00007  0.50003  0.50003  Biso   1.000  Cu
  Cu7      1.0000 0.16663  0.83337  0.83337  Biso   1.000  Cu
  Cu8      1.0000 0.16663  0.33327  0.83337  Biso   1.000  Cu
  Cu9      1.0000 0.66673  0.83337  0.83337  Biso   1.000  Cu
  P1       1.0000 0.73987  0.24686  0.08890  Biso   1.000  P
  P2       1.0000 0.75314  0.49301  0.08890  Biso   1.000  P
  P3       1.0000 0.50699  0.26013  0.08890  Biso   1.000  P
  P4       1.0000 0.40654  0.58019  0.42223  Biso   1.000  P
  P5       1.0000 0.41981  0.82634  0.42223  Biso   1.000  P
  P6       1.0000 0.17366  0.59346  0.42223  Biso   1.000  P
  P7       1.0000 0.07320  0.91353  0.75557  Biso   1.000  P
  P8       1.0000 0.08647  0.15968  0.75557  Biso   1.000  P
  P9       1.0000 0.84032  0.92680  0.75557  Biso   1.000  P
  P10      1.0000 0.26013  0.75314  0.91110  Biso   1.000  P
  P11      1.0000 0.24686  0.50699  0.91110  Biso   1.000  P
  P12      1.0000 0.49301  0.73987  0.91110  Biso   1.000  P
  P13      1.0000 0.92680  0.08647  0.24443  Biso   1.000  P
  P14      1.0000 0.91353  0.84032  0.24443  Biso   1.000  P
  P15      1.0000 0.15968  0.07320  0.24443  Biso   1.000  P
  P16      1.0000 0.59346  0.41981  0.57777  Biso   1.000  P
  P17      1.0000 0.58019  0.17366  0.57777  Biso   1.000  P
  P18      1.0000 0.82634  0.40654  0.57777  Biso   1.000  P
  O1       1.0000 0.82200  0.24940  0.07360  Biso   1.000  O
  O2       1.0000 0.75060  0.57260  0.07360  Biso   1.000  O
  O3       1.0000 0.42740  0.17800  0.07360  Biso   1.000  O
  O4       1.0000 0.48867  0.58273  0.40693  Biso   1.000  O
  O5       1.0000 0.41727  0.90593  0.40693  Biso   1.000  O
  O6       1.0000 0.09407  0.51133  0.40693  Biso   1.000  O
  O7       1.0000 0.15533  0.91607  0.74027  Biso   1.000  O
  O8       1.0000 0.08393  0.23927  0.74027  Biso   1.000  O
  O9       1.0000 0.76073  0.84467  0.74027  Biso   1.000  O
  O10      1.0000 0.17800  0.75060  0.92640  Biso   1.000  O
  O11      1.0000 0.24940  0.42740  0.92640  Biso   1.000  O
  O12      1.0000 0.57260  0.82200  0.92640  Biso   1.000  O
  O13      1.0000 0.84467  0.08393  0.25973  Biso   1.000  O
  O14      1.0000 0.91607  0.76073  0.25973  Biso   1.000  O
  O15      1.0000 0.23927  0.15533  0.25973  Biso   1.000  O
  O16      1.0000 0.51133  0.41727  0.59307  Biso   1.000  O
  O17      1.0000 0.58273  0.09407  0.59307  Biso   1.000  O
  O18      1.0000 0.90593  0.48867  0.59307  Biso   1.000  O
  O19      1.0000 0.73720  0.29520  0.20410  Biso   1.000  O
  O20      1.0000 0.70480  0.44200  0.20410  Biso   1.000  O
  O21      1.0000 0.55800  0.26280  0.20410  Biso   1.000  O
  O22      1.0000 0.40387  0.62853  0.53743  Biso   1.000  O
  O23      1.0000 0.37147  0.77533  0.53743  Biso   1.000  O
  O24      1.0000 0.22467  0.59613  0.53743  Biso   1.000  O
  O25      1.0000 0.07053  0.96187  0.87077  Biso   1.000  O
  O26      1.0000 0.03813  0.10867  0.87077  Biso   1.000  O
  O27      1.0000 0.89133  0.92947  0.87077  Biso   1.000  O
  O28      1.0000 0.26280  0.70480  0.79590  Biso   1.000  O
  O29      1.0000 0.29520  0.55800  0.79590  Biso   1.000  O
  O30      1.0000 0.44200  0.73720  0.79590  Biso   1.000  O
  O31      1.0000 0.92947  0.03813  0.12923  Biso   1.000  O
  O32      1.0000 0.96187  0.89133  0.12923  Biso   1.000  O
  O33      1.0000 0.10867  0.07053  0.12923  Biso   1.000  O
  O34      1.0000 0.59613  0.37147  0.46257  Biso   1.000  O
  O35      1.0000 0.62853  0.22467  0.46257  Biso   1.000  O
  O36      1.0000 0.77533  0.40387  0.46257  Biso   1.000  O
  O37      1.0000 0.70970  0.26310  0.96050  Biso   1.000  O
  O38      1.0000 0.73690  0.44660  0.96050  Biso   1.000  O
  O39      1.0000 0.55340  0.29030  0.96050  Biso   1.000  O
  O40      1.0000 0.37637  0.59643  0.29383  Biso   1.000  O
  O41      1.0000 0.40357  0.77993  0.29383  Biso   1.000  O
  O42      1.0000 0.22007  0.62363  0.29383  Biso   1.000  O
  O43      1.0000 0.04303  0.92977  0.62717  Biso   1.000  O
  O44      1.0000 0.07023  0.11327  0.62717  Biso   1.000  O
  O45      1.0000 0.88673  0.95697  0.62717  Biso   1.000  O
  O46      1.0000 0.29030  0.73690  0.03950  Biso   1.000  O
  O47      1.0000 0.26310  0.55340  0.03950  Biso   1.000  O
  O48      1.0000 0.44660  0.70970  0.03950  Biso   1.000  O
  O49      1.0000 0.95697  0.07023  0.37283  Biso   1.000  O
  O50      1.0000 0.92977  0.88673  0.37283  Biso   1.000  O
  O51      1.0000 0.11327  0.04303  0.37283  Biso   1.000  O
  O52      1.0000 0.62363  0.40357  0.70617  Biso   1.000  O
  O53      1.0000 0.59643  0.22007  0.70617  Biso   1.000  O
  O54      1.0000 0.77993  0.37637  0.70617  Biso   1.000  O
  N1       1.0000 0.71030  0.09620  0.16270  Biso   1.000  N
  N2       1.0000 0.90380  0.61410  0.16270  Biso   1.000  N
  N3       1.0000 0.38590  0.28970  0.16270  Biso   1.000  N
  N4       1.0000 0.37697  0.42953  0.49603  Biso   1.000  N
  N5       1.0000 0.57047  0.94743  0.49603  Biso   1.000  N
  N6       1.0000 0.05257  0.62303  0.49603  Biso   1.000  N
  N7       1.0000 0.04363  0.76287  0.82937  Biso   1.000  N
  N8       1.0000 0.23713  0.28077  0.82937  Biso   1.000  N
  N9       1.0000 0.71923  0.95637  0.82937  Biso   1.000  N
  N10      1.0000 0.28970  0.90380  0.83730  Biso   1.000  N
  N11      1.0000 0.09620  0.38590  0.83730  Biso   1.000  N
  N12      1.0000 0.61410  0.71030  0.83730  Biso   1.000  N
  N13      1.0000 0.95637  0.23713  0.17063  Biso   1.000  N
  N14      1.0000 0.76287  0.71923  0.17063  Biso   1.000  N
  N15      1.0000 0.28077  0.04363  0.17063  Biso   1.000  N
  N16      1.0000 0.62303  0.57047  0.50397  Biso   1.000  N
  N17      1.0000 0.42953  0.05257  0.50397  Biso   1.000  N
  N18      1.0000 0.94743  0.37697  0.50397  Biso   1.000  N
  C1       1.0000 0.67170  0.13840  0.13170  Biso   1.000  C
  C2       1.0000 0.86160  0.53330  0.13170  Biso   1.000  C
  C3       1.0000 0.46670  0.32830  0.13170  Biso   1.000  C
  C4       1.0000 0.33837  0.47173  0.46503  Biso   1.000  C
  C5       1.0000 0.52827  0.86663  0.46503  Biso   1.000  C
  C6       1.0000 0.13337  0.66163  0.46503  Biso   1.000  C
  C7       1.0000 0.00503  0.80507  0.79837  Biso   1.000  C
  C8       1.0000 0.19493  0.19997  0.79837  Biso   1.000  C
  C9       1.0000 0.80003  0.99497  0.79837  Biso   1.000  C
  C10      1.0000 0.32830  0.86160  0.86830  Biso   1.000  C
  C11      1.0000 0.13840  0.46670  0.86830  Biso   1.000  C
  C12      1.0000 0.53330  0.67170  0.86830  Biso   1.000  C
  C13      1.0000 0.99497  0.19493  0.20163  Biso   1.000  C
  C14      1.0000 0.80507  0.80003  0.20163  Biso   1.000  C
  C15      1.0000 0.19997  0.00503  0.20163  Biso   1.000  C
  C16      1.0000 0.66163  0.52827  0.53497  Biso   1.000  C
  C17      1.0000 0.47173  0.13337  0.53497  Biso   1.000  C
  C18      1.0000 0.86663  0.33837  0.53497  Biso   1.000  C
  C19      1.0000 0.58490  0.09690  0.13200  Biso   1.000  C
  C20      1.0000 0.90310  0.48800  0.13200  Biso   1.000  C
  C21      1.0000 0.51200  0.41510  0.13200  Biso   1.000  C
  C22      1.0000 0.25157  0.43023  0.46533  Biso   1.000  C
  C23      1.0000 0.56977  0.82133  0.46533  Biso   1.000  C
  C24      1.0000 0.17867  0.74843  0.46533  Biso   1.000  C
  C25      1.0000 0.91823  0.76357  0.79867  Biso   1.000  C
  C26      1.0000 0.23643  0.15467  0.79867  Biso   1.000  C
  C27      1.0000 0.84533  0.08177  0.79867  Biso   1.000  C
  C28      1.0000 0.41510  0.90310  0.86800  Biso   1.000  C
  C29      1.0000 0.09690  0.51200  0.86800  Biso   1.000  C
  C30      1.0000 0.48800  0.58490  0.86800  Biso   1.000  C
  C31      1.0000 0.08177  0.23643  0.20133  Biso   1.000  C
  C32      1.0000 0.76357  0.84533  0.20133  Biso   1.000  C
  C33      1.0000 0.15467  0.91823  0.20133  Biso   1.000  C
  C34      1.0000 0.74843  0.56977  0.53467  Biso   1.000  C
  C35      1.0000 0.43023  0.17867  0.53467  Biso   1.000  C
  C36      1.0000 0.82133  0.25157  0.53467  Biso   1.000  C
  H1       1.0000 0.55700  0.12620  0.12020  Biso   1.000  H
  H2       1.0000 0.87380  0.43080  0.12020  Biso   1.000  H
  H3       1.0000 0.56920  0.44300  0.12020  Biso   1.000  H
  H4       1.0000 0.22367  0.45953  0.45353  Biso   1.000  H
  H5       1.0000 0.54047  0.76413  0.45353  Biso   1.000  H
  H6       1.0000 0.23587  0.77633  0.45353  Biso   1.000  H
  H7       1.0000 0.89033  0.79287  0.78687  Biso   1.000  H
  H8       1.0000 0.20713  0.09747  0.78687  Biso   1.000  H
  H9       1.0000 0.90253  0.10967  0.78687  Biso   1.000  H
  H10      1.0000 0.44300  0.87380  0.87980  Biso   1.000  H
  H11      1.0000 0.12620  0.56920  0.87980  Biso   1.000  H
  H12      1.0000 0.43080  0.55700  0.87980  Biso   1.000  H
  H13      1.0000 0.10967  0.20713  0.21313  Biso   1.000  H
  H14      1.0000 0.79287  0.90253  0.21313  Biso   1.000  H
  H15      1.0000 0.09747  0.89033  0.21313  Biso   1.000  H
  H16      1.0000 0.77633  0.54047  0.54647  Biso   1.000  H
  H17      1.0000 0.45953  0.23587  0.54647  Biso   1.000  H
  H18      1.0000 0.76413  0.22367  0.54647  Biso   1.000  H
  C37      1.0000 0.54160  0.01310  0.14980  Biso   1.000  C
  C38      1.0000 0.98690  0.52850  0.14980  Biso   1.000  C
  C39      1.0000 0.47150  0.45840  0.14980  Biso   1.000  C
  C40      1.0000 0.20827  0.34643  0.48313  Biso   1.000  C
  C41      1.0000 0.65357  0.86183  0.48313  Biso   1.000  C
  C42      1.0000 0.13817  0.79173  0.48313  Biso   1.000  C
  C43      1.0000 0.87493  0.67977  0.81647  Biso   1.000  C
  C44      1.0000 0.32023  0.19517  0.81647  Biso   1.000  C
  C45      1.0000 0.80483  0.12507  0.81647  Biso   1.000  C
  C46      1.0000 0.45840  0.98690  0.85020  Biso   1.000  C
  C47      1.0000 0.01310  0.47150  0.85020  Biso   1.000  C
  C48      1.0000 0.52850  0.54160  0.85020  Biso   1.000  C
  C49      1.0000 0.12507  0.32023  0.18353  Biso   1.000  C
  C50      1.0000 0.67977  0.80483  0.18353  Biso   1.000  C
  C51      1.0000 0.19517  0.87493  0.18353  Biso   1.000  C
  C52      1.0000 0.79173  0.65357  0.51687  Biso   1.000  C
  C53      1.0000 0.34643  0.13817  0.51687  Biso   1.000  C
  C54      1.0000 0.86183  0.20827  0.51687  Biso   1.000  C
  H19      1.0000 0.48400  0.98450  0.14480  Biso   1.000  H
  H20      1.0000 0.01550  0.49950  0.14480  Biso   1.000  H
  H21      1.0000 0.50050  0.51600  0.14480  Biso   1.000  H
  H22      1.0000 0.15067  0.31783  0.47813  Biso   1.000  H
  H23      1.0000 0.68217  0.83283  0.47813  Biso   1.000  H
  H24      1.0000 0.16717  0.84933  0.47813  Biso   1.000  H
  H25      1.0000 0.81733  0.65117  0.81147  Biso   1.000  H
  H26      1.0000 0.34883  0.16617  0.81147  Biso   1.000  H
  H27      1.0000 0.83383  0.18267  0.81147  Biso   1.000  H
  H28      1.0000 0.51600  0.01550  0.85520  Biso   1.000  H
  H29      1.0000 0.98450  0.50050  0.85520  Biso   1.000  H
  H30      1.0000 0.49950  0.48400  0.85520  Biso   1.000  H
  H31      1.0000 0.18267  0.34883  0.18853  Biso   1.000  H
  H32      1.0000 0.65117  0.83383  0.18853  Biso   1.000  H
  H33      1.0000 0.16617  0.81733  0.18853  Biso   1.000  H
  H34      1.0000 0.84933  0.68217  0.52187  Biso   1.000  H
  H35      1.0000 0.31783  0.16717  0.52187  Biso   1.000  H
  H36      1.0000 0.83283  0.15067  0.52187  Biso   1.000  H
  C55      1.0000 0.58390  0.97050  0.17540  Biso   1.000  C
  C56      1.0000 0.02950  0.61340  0.17540  Biso   1.000  C
  C57      1.0000 0.38660  0.41610  0.17540  Biso   1.000  C
  C58      1.0000 0.25057  0.30383  0.50873  Biso   1.000  C
  C59      1.0000 0.69617  0.94673  0.50873  Biso   1.000  C
  C60      1.0000 0.05327  0.74943  0.50873  Biso   1.000  C
  C61      1.0000 0.91723  0.63717  0.84207  Biso   1.000  C
  C62      1.0000 0.36283  0.28007  0.84207  Biso   1.000  C
  C63      1.0000 0.71993  0.08277  0.84207  Biso   1.000  C
  C64      1.0000 0.41610  0.02950  0.82460  Biso   1.000  C
  C65      1.0000 0.97050  0.38660  0.82460  Biso   1.000  C
  C66      1.0000 0.61340  0.58390  0.82460  Biso   1.000  C
  C67      1.0000 0.08277  0.36283  0.15793  Biso   1.000  C
  C68      1.0000 0.63717  0.71993  0.15793  Biso   1.000  C
  C69      1.0000 0.28007  0.91723  0.15793  Biso   1.000  C
  C70      1.0000 0.74943  0.69617  0.49127  Biso   1.000  C
  C71      1.0000 0.30383  0.05327  0.49127  Biso   1.000  C
  C72      1.0000 0.94673  0.25057  0.49127  Biso   1.000  C
  H37      1.0000 0.55510  0.91360  0.19020  Biso   1.000  H
  H38      1.0000 0.08640  0.64150  0.19020  Biso   1.000  H
  H39      1.0000 0.35850  0.44490  0.19020  Biso   1.000  H
  H40      1.0000 0.22177  0.24693  0.52353  Biso   1.000  H
  H41      1.0000 0.75307  0.97483  0.52353  Biso   1.000  H
  H42      1.0000 0.02517  0.77823  0.52353  Biso   1.000  H
  H43      1.0000 0.88843  0.58027  0.85687  Biso   1.000  H
  H44      1.0000 0.41973  0.30817  0.85687  Biso   1.000  H
  H45      1.0000 0.69183  0.11157  0.85687  Biso   1.000  H
  H46      1.0000 0.44490  0.08640  0.80980  Biso   1.000  H
  H47      1.0000 0.91360  0.35850  0.80980  Biso   1.000  H
  H48      1.0000 0.64150  0.55510  0.80980  Biso   1.000  H
  H49      1.0000 0.11157  0.41973  0.14313  Biso   1.000  H
  H50      1.0000 0.58027  0.69183  0.14313  Biso   1.000  H
  H51      1.0000 0.30817  0.88843  0.14313  Biso   1.000  H
  H52      1.0000 0.77823  0.75307  0.47647  Biso   1.000  H
  H53      1.0000 0.24693  0.02517  0.47647  Biso   1.000  H
  H54      1.0000 0.97483  0.22177  0.47647  Biso   1.000  H
  C73      1.0000 0.66990  0.01480  0.17840  Biso   1.000  C
  C74      1.0000 0.98520  0.65510  0.17840  Biso   1.000  C
  C75      1.0000 0.34490  0.33010  0.17840  Biso   1.000  C
  C76      1.0000 0.33657  0.34813  0.51173  Biso   1.000  C
  C77      1.0000 0.65187  0.98843  0.51173  Biso   1.000  C
  C78      1.0000 0.01157  0.66343  0.51173  Biso   1.000  C
  C79      1.0000 0.00323  0.68147  0.84507  Biso   1.000  C
  C80      1.0000 0.31853  0.32177  0.84507  Biso   1.000  C
  C81      1.0000 0.67823  0.99677  0.84507  Biso   1.000  C
  C82      1.0000 0.33010  0.98520  0.82160  Biso   1.000  C
  C83      1.0000 0.01480  0.34490  0.82160  Biso   1.000  C
  C84      1.0000 0.65510  0.66990  0.82160  Biso   1.000  C
  C85      1.0000 0.99677  0.31853  0.15493  Biso   1.000  C
  C86      1.0000 0.68147  0.67823  0.15493  Biso   1.000  C
  C87      1.0000 0.32177  0.00323  0.15493  Biso   1.000  C
  C88      1.0000 0.66343  0.65187  0.48827  Biso   1.000  C
  C89      1.0000 0.34813  0.01157  0.48827  Biso   1.000  C
  C90      1.0000 0.98843  0.33657  0.48827  Biso   1.000  C
  H55      1.0000 0.69930  0.98710  0.19150  Biso   1.000  H
  H56      1.0000 0.01290  0.71220  0.19150  Biso   1.000  H
  H57      1.0000 0.28780  0.30070  0.19150  Biso   1.000  H
  H58      1.0000 0.36597  0.32043  0.52483  Biso   1.000  H
  H59      1.0000 0.67957  0.04553  0.52483  Biso   1.000  H
  H60      1.0000 0.95447  0.63403  0.52483  Biso   1.000  H
  H61      1.0000 0.03263  0.65377  0.85817  Biso   1.000  H
  H62      1.0000 0.34623  0.37887  0.85817  Biso   1.000  H
  H63      1.0000 0.62113  0.96737  0.85817  Biso   1.000  H
  H64      1.0000 0.30070  0.01290  0.80850  Biso   1.000  H
  H65      1.0000 0.98710  0.28780  0.80850  Biso   1.000  H
  H66      1.0000 0.71220  0.69930  0.80850  Biso   1.000  H
  H67      1.0000 0.96737  0.34623  0.14183  Biso   1.000  H
  H68      1.0000 0.65377  0.62113  0.14183  Biso   1.000  H
  H69      1.0000 0.37887  0.03263  0.14183  Biso   1.000  H
  H70      1.0000 0.63403  0.67957  0.47517  Biso   1.000  H
  H71      1.0000 0.32043  0.95447  0.47517  Biso   1.000  H
  H72      1.0000 0.04553  0.36597  0.47517  Biso   1.000  H
