data_image0
_cell_length_a       18.818
_cell_length_b       18.818
_cell_length_c       10.31
_cell_angle_alpha    90
_cell_angle_beta     90
_cell_angle_gamma    120

_symmetry_space_group_name_H-M    "P 1"
_symmetry_int_tables_number       1

loop_
  _symmetry_equiv_pos_as_xyz
  'x, y, z'

loop_
  _atom_site_label
  _atom_site_occupancy
  _atom_site_fract_x
  _atom_site_fract_y
  _atom_site_fract_z
  _atom_site_thermal_displace_type
  _atom_site_B_iso_or_equiv
  _atom_site_type_symbol
  Nd1      1.0000 0.66670  0.33330  0.83330  Biso   1.000  Nd
  Nd2      1.0000 0.33337  0.66663  0.16663  Biso   1.000  Nd
  Nd3      1.0000 0.00003  0.99997  0.49997  Biso   1.000  Nd
  Nd4      1.0000 0.66670  0.33330  0.33330  Biso   1.000  Nd
  Nd5      1.0000 0.33337  0.66663  0.66663  Biso   1.000  Nd
  Nd6      1.0000 0.00003  0.99997  0.99997  Biso   1.000  Nd
  Cu1      1.0000 0.83330  0.16670  0.16670  Biso   1.000  Cu
  Cu2      1.0000 0.83330  0.66660  0.16670  Biso   1.000  Cu
  Cu3      1.0000 0.33340  0.16670  0.16670  Biso   1.000  Cu
  Cu4      1.0000 0.49997  0.50003  0.50003  Biso   1.000  Cu
  Cu5      1.0000 0.49997  0.99993  0.50003  Biso   1.000  Cu
  Cu6      1.0000 0.00007  0.50003  0.50003  Biso   1.000  Cu
  Cu7      1.0000 0.16663  0.83337  0.83337  Biso   1.000  Cu
  Cu8      1.0000 0.16663  0.33327  0.83337  Biso   1.000  Cu
  Cu9      1.0000 0.66673  0.83337  0.83337  Biso   1.000  Cu
  P1       1.0000 0.74007  0.24493  0.08834  Biso   1.000  P
  P2       1.0000 0.75507  0.49514  0.08834  Biso   1.000  P
  P3       1.0000 0.50486  0.25993  0.08834  Biso   1.000  P
  P4       1.0000 0.40674  0.57826  0.42167  Biso   1.000  P
  P5       1.0000 0.42174  0.82847  0.42167  Biso   1.000  P
  P6       1.0000 0.17153  0.59326  0.42167  Biso   1.000  P
  P7       1.0000 0.07340  0.91160  0.75501  Biso   1.000  P
  P8       1.0000 0.08840  0.16181  0.75501  Biso   1.000  P
  P9       1.0000 0.83819  0.92660  0.75501  Biso   1.000  P
  P10      1.0000 0.25993  0.75507  0.91166  Biso   1.000  P
  P11      1.0000 0.24493  0.50486  0.91166  Biso   1.000  P
  P12      1.0000 0.49514  0.74007  0.91166  Biso   1.000  P
  P13      1.0000 0.92660  0.08840  0.24499  Biso   1.000  P
  P14      1.0000 0.91160  0.83819  0.24499  Biso   1.000  P
  P15      1.0000 0.16181  0.07340  0.24499  Biso   1.000  P
  P16      1.0000 0.59326  0.42174  0.57833  Biso   1.000  P
  P17      1.0000 0.57826  0.17153  0.57833  Biso   1.000  P
  P18      1.0000 0.82847  0.40674  0.57833  Biso   1.000  P
  O1       1.0000 0.82270  0.24830  0.07420  Biso   1.000  O
  O2       1.0000 0.75170  0.57440  0.07420  Biso   1.000  O
  O3       1.0000 0.42560  0.17730  0.07420  Biso   1.000  O
  O4       1.0000 0.48937  0.58163  0.40753  Biso   1.000  O
  O5       1.0000 0.41837  0.90773  0.40753  Biso   1.000  O
  O6       1.0000 0.09227  0.51063  0.40753  Biso   1.000  O
  O7       1.0000 0.15603  0.91497  0.74087  Biso   1.000  O
  O8       1.0000 0.08503  0.24107  0.74087  Biso   1.000  O
  O9       1.0000 0.75893  0.84397  0.74087  Biso   1.000  O
  O10      1.0000 0.17730  0.75170  0.92580  Biso   1.000  O
  O11      1.0000 0.24830  0.42560  0.92580  Biso   1.000  O
  O12      1.0000 0.57440  0.82270  0.92580  Biso   1.000  O
  O13      1.0000 0.84397  0.08503  0.25913  Biso   1.000  O
  O14      1.0000 0.91497  0.75893  0.25913  Biso   1.000  O
  O15      1.0000 0.24107  0.15603  0.25913  Biso   1.000  O
  O16      1.0000 0.51063  0.41837  0.59247  Biso   1.000  O
  O17      1.0000 0.58163  0.09227  0.59247  Biso   1.000  O
  O18      1.0000 0.90773  0.48937  0.59247  Biso   1.000  O
  O19      1.0000 0.73940  0.29510  0.19980  Biso   1.000  O
  O20      1.0000 0.70490  0.44430  0.19980  Biso   1.000  O
  O21      1.0000 0.55570  0.26060  0.19980  Biso   1.000  O
  O22      1.0000 0.40607  0.62843  0.53313  Biso   1.000  O
  O23      1.0000 0.37157  0.77763  0.53313  Biso   1.000  O
  O24      1.0000 0.22237  0.59393  0.53313  Biso   1.000  O
  O25      1.0000 0.07273  0.96177  0.86647  Biso   1.000  O
  O26      1.0000 0.03823  0.11097  0.86647  Biso   1.000  O
  O27      1.0000 0.88903  0.92727  0.86647  Biso   1.000  O
  O28      1.0000 0.26060  0.70490  0.80020  Biso   1.000  O
  O29      1.0000 0.29510  0.55570  0.80020  Biso   1.000  O
  O30      1.0000 0.44430  0.73940  0.80020  Biso   1.000  O
  O31      1.0000 0.92727  0.03823  0.13353  Biso   1.000  O
  O32      1.0000 0.96177  0.88903  0.13353  Biso   1.000  O
  O33      1.0000 0.11097  0.07273  0.13353  Biso   1.000  O
  O34      1.0000 0.59393  0.37157  0.46687  Biso   1.000  O
  O35      1.0000 0.62843  0.22237  0.46687  Biso   1.000  O
  O36      1.0000 0.77763  0.40607  0.46687  Biso   1.000  O
  O37      1.0000 0.71010  0.26020  0.96310  Biso   1.000  O
  O38      1.0000 0.73980  0.44990  0.96310  Biso   1.000  O
  O39      1.0000 0.55010  0.28990  0.96310  Biso   1.000  O
  O40      1.0000 0.37677  0.59353  0.29643  Biso   1.000  O
  O41      1.0000 0.40647  0.78323  0.29643  Biso   1.000  O
  O42      1.0000 0.21677  0.62323  0.29643  Biso   1.000  O
  O43      1.0000 0.04343  0.92687  0.62977  Biso   1.000  O
  O44      1.0000 0.07313  0.11657  0.62977  Biso   1.000  O
  O45      1.0000 0.88343  0.95657  0.62977  Biso   1.000  O
  O46      1.0000 0.28990  0.73980  0.03690  Biso   1.000  O
  O47      1.0000 0.26020  0.55010  0.03690  Biso   1.000  O
  O48      1.0000 0.44990  0.71010  0.03690  Biso   1.000  O
  O49      1.0000 0.95657  0.07313  0.37023  Biso   1.000  O
  O50      1.0000 0.92687  0.88343  0.37023  Biso   1.000  O
  O51      1.0000 0.11657  0.04343  0.37023  Biso   1.000  O
  O52      1.0000 0.62323  0.40647  0.70357  Biso   1.000  O
  O53      1.0000 0.59353  0.21677  0.70357  Biso   1.000  O
  O54      1.0000 0.78323  0.37677  0.70357  Biso   1.000  O
  N1       1.0000 0.71190  0.09740  0.16200  Biso   1.000  N
  N2       1.0000 0.90260  0.61450  0.16200  Biso   1.000  N
  N3       1.0000 0.38550  0.28810  0.16200  Biso   1.000  N
  N4       1.0000 0.37857  0.43073  0.49533  Biso   1.000  N
  N5       1.0000 0.56927  0.94783  0.49533  Biso   1.000  N
  N6       1.0000 0.05217  0.62143  0.49533  Biso   1.000  N
  N7       1.0000 0.04523  0.76407  0.82867  Biso   1.000  N
  N8       1.0000 0.23593  0.28117  0.82867  Biso   1.000  N
  N9       1.0000 0.71883  0.95477  0.82867  Biso   1.000  N
  N10      1.0000 0.28810  0.90260  0.83800  Biso   1.000  N
  N11      1.0000 0.09740  0.38550  0.83800  Biso   1.000  N
  N12      1.0000 0.61450  0.71190  0.83800  Biso   1.000  N
  N13      1.0000 0.95477  0.23593  0.17133  Biso   1.000  N
  N14      1.0000 0.76407  0.71883  0.17133  Biso   1.000  N
  N15      1.0000 0.28117  0.04523  0.17133  Biso   1.000  N
  N16      1.0000 0.62143  0.56927  0.50467  Biso   1.000  N
  N17      1.0000 0.43073  0.05217  0.50467  Biso   1.000  N
  N18      1.0000 0.94783  0.37857  0.50467  Biso   1.000  N
  C1       1.0000 0.67170  0.13750  0.13100  Biso   1.000  C
  C2       1.0000 0.86250  0.53420  0.13100  Biso   1.000  C
  C3       1.0000 0.46580  0.32830  0.13100  Biso   1.000  C
  C4       1.0000 0.33837  0.47083  0.46433  Biso   1.000  C
  C5       1.0000 0.52917  0.86753  0.46433  Biso   1.000  C
  C6       1.0000 0.13247  0.66163  0.46433  Biso   1.000  C
  C7       1.0000 0.00503  0.80417  0.79767  Biso   1.000  C
  C8       1.0000 0.19583  0.20087  0.79767  Biso   1.000  C
  C9       1.0000 0.79913  0.99497  0.79767  Biso   1.000  C
  C10      1.0000 0.32830  0.86250  0.86900  Biso   1.000  C
  C11      1.0000 0.13750  0.46580  0.86900  Biso   1.000  C
  C12      1.0000 0.53420  0.67170  0.86900  Biso   1.000  C
  C13      1.0000 0.99497  0.19583  0.20233  Biso   1.000  C
  C14      1.0000 0.80417  0.79913  0.20233  Biso   1.000  C
  C15      1.0000 0.20087  0.00503  0.20233  Biso   1.000  C
  C16      1.0000 0.66163  0.52917  0.53567  Biso   1.000  C
  C17      1.0000 0.47083  0.13247  0.53567  Biso   1.000  C
  C18      1.0000 0.86753  0.33837  0.53567  Biso   1.000  C
  C19      1.0000 0.58720  0.09710  0.12810  Biso   1.000  C
  C20      1.0000 0.90290  0.49010  0.12810  Biso   1.000  C
  C21      1.0000 0.50990  0.41280  0.12810  Biso   1.000  C
  C22      1.0000 0.25387  0.43043  0.46143  Biso   1.000  C
  C23      1.0000 0.56957  0.82343  0.46143  Biso   1.000  C
  C24      1.0000 0.17657  0.74613  0.46143  Biso   1.000  C
  C25      1.0000 0.92053  0.76377  0.79477  Biso   1.000  C
  C26      1.0000 0.23623  0.15677  0.79477  Biso   1.000  C
  C27      1.0000 0.84323  0.07947  0.79477  Biso   1.000  C
  C28      1.0000 0.41280  0.90290  0.87190  Biso   1.000  C
  C29      1.0000 0.09710  0.50990  0.87190  Biso   1.000  C
  C30      1.0000 0.49010  0.58720  0.87190  Biso   1.000  C
  C31      1.0000 0.07947  0.23623  0.20523  Biso   1.000  C
  C32      1.0000 0.76377  0.84323  0.20523  Biso   1.000  C
  C33      1.0000 0.15677  0.92053  0.20523  Biso   1.000  C
  C34      1.0000 0.74613  0.56957  0.53857  Biso   1.000  C
  C35      1.0000 0.43043  0.17657  0.53857  Biso   1.000  C
  C36      1.0000 0.82343  0.25387  0.53857  Biso   1.000  C
  H1       1.0000 0.55960  0.12540  0.11050  Biso   1.000  H
  H2       1.0000 0.87460  0.43420  0.11050  Biso   1.000  H
  H3       1.0000 0.56580  0.44040  0.11050  Biso   1.000  H
  H4       1.0000 0.22627  0.45873  0.44383  Biso   1.000  H
  H5       1.0000 0.54127  0.76753  0.44383  Biso   1.000  H
  H6       1.0000 0.23247  0.77373  0.44383  Biso   1.000  H
  H7       1.0000 0.89293  0.79207  0.77717  Biso   1.000  H
  H8       1.0000 0.20793  0.10087  0.77717  Biso   1.000  H
  H9       1.0000 0.89913  0.10707  0.77717  Biso   1.000  H
  H10      1.0000 0.44040  0.87460  0.88950  Biso   1.000  H
  H11      1.0000 0.12540  0.56580  0.88950  Biso   1.000  H
  H12      1.0000 0.43420  0.55960  0.88950  Biso   1.000  H
  H13      1.0000 0.10707  0.20793  0.22283  Biso   1.000  H
  H14      1.0000 0.79207  0.89913  0.22283  Biso   1.000  H
  H15      1.0000 0.10087  0.89293  0.22283  Biso   1.000  H
  H16      1.0000 0.77373  0.54127  0.55617  Biso   1.000  H
  H17      1.0000 0.45873  0.23247  0.55617  Biso   1.000  H
  H18      1.0000 0.76753  0.22627  0.55617  Biso   1.000  H
  C37      1.0000 0.54420  0.01360  0.15190  Biso   1.000  C
  C38      1.0000 0.98640  0.53060  0.15190  Biso   1.000  C
  C39      1.0000 0.46940  0.45580  0.15190  Biso   1.000  C
  C40      1.0000 0.21087  0.34693  0.48523  Biso   1.000  C
  C41      1.0000 0.65307  0.86393  0.48523  Biso   1.000  C
  C42      1.0000 0.13607  0.78913  0.48523  Biso   1.000  C
  C43      1.0000 0.87753  0.68027  0.81857  Biso   1.000  C
  C44      1.0000 0.31973  0.19727  0.81857  Biso   1.000  C
  C45      1.0000 0.80273  0.12247  0.81857  Biso   1.000  C
  C46      1.0000 0.45580  0.98640  0.84810  Biso   1.000  C
  C47      1.0000 0.01360  0.46940  0.84810  Biso   1.000  C
  C48      1.0000 0.53060  0.54420  0.84810  Biso   1.000  C
  C49      1.0000 0.12247  0.31973  0.18143  Biso   1.000  C
  C50      1.0000 0.68027  0.80273  0.18143  Biso   1.000  C
  C51      1.0000 0.19727  0.87753  0.18143  Biso   1.000  C
  C52      1.0000 0.78913  0.65307  0.51477  Biso   1.000  C
  C53      1.0000 0.34693  0.13607  0.51477  Biso   1.000  C
  C54      1.0000 0.86393  0.21087  0.51477  Biso   1.000  C
  H19      1.0000 0.48710  0.98510  0.15060  Biso   1.000  H
  H20      1.0000 0.01490  0.50200  0.15060  Biso   1.000  H
  H21      1.0000 0.49800  0.51290  0.15060  Biso   1.000  H
  H22      1.0000 0.15377  0.31843  0.48393  Biso   1.000  H
  H23      1.0000 0.68157  0.83533  0.48393  Biso   1.000  H
  H24      1.0000 0.16467  0.84623  0.48393  Biso   1.000  H
  H25      1.0000 0.82043  0.65177  0.81727  Biso   1.000  H
  H26      1.0000 0.34823  0.16867  0.81727  Biso   1.000  H
  H27      1.0000 0.83133  0.17957  0.81727  Biso   1.000  H
  H28      1.0000 0.51290  0.01490  0.84940  Biso   1.000  H
  H29      1.0000 0.98510  0.49800  0.84940  Biso   1.000  H
  H30      1.0000 0.50200  0.48710  0.84940  Biso   1.000  H
  H31      1.0000 0.17957  0.34823  0.18273  Biso   1.000  H
  H32      1.0000 0.65177  0.83133  0.18273  Biso   1.000  H
  H33      1.0000 0.16867  0.82043  0.18273  Biso   1.000  H
  H34      1.0000 0.84623  0.68157  0.51607  Biso   1.000  H
  H35      1.0000 0.31843  0.16467  0.51607  Biso   1.000  H
  H36      1.0000 0.83533  0.15377  0.51607  Biso   1.000  H
  C55      1.0000 0.58600  0.97320  0.17750  Biso   1.000  C
  C56      1.0000 0.02680  0.61280  0.17750  Biso   1.000  C
  C57      1.0000 0.38720  0.41400  0.17750  Biso   1.000  C
  C58      1.0000 0.25267  0.30653  0.51083  Biso   1.000  C
  C59      1.0000 0.69347  0.94613  0.51083  Biso   1.000  C
  C60      1.0000 0.05387  0.74733  0.51083  Biso   1.000  C
  C61      1.0000 0.91933  0.63987  0.84417  Biso   1.000  C
  C62      1.0000 0.36013  0.27947  0.84417  Biso   1.000  C
  C63      1.0000 0.72053  0.08067  0.84417  Biso   1.000  C
  C64      1.0000 0.41400  0.02680  0.82250  Biso   1.000  C
  C65      1.0000 0.97320  0.38720  0.82250  Biso   1.000  C
  C66      1.0000 0.61280  0.58600  0.82250  Biso   1.000  C
  C67      1.0000 0.08067  0.36013  0.15583  Biso   1.000  C
  C68      1.0000 0.63987  0.72053  0.15583  Biso   1.000  C
  C69      1.0000 0.27947  0.91933  0.15583  Biso   1.000  C
  C70      1.0000 0.74733  0.69347  0.48917  Biso   1.000  C
  C71      1.0000 0.30653  0.05387  0.48917  Biso   1.000  C
  C72      1.0000 0.94613  0.25267  0.48917  Biso   1.000  C
  H37      1.0000 0.55770  0.91670  0.19070  Biso   1.000  H
  H38      1.0000 0.08330  0.64100  0.19070  Biso   1.000  H
  H39      1.0000 0.35900  0.44230  0.19070  Biso   1.000  H
  H40      1.0000 0.22437  0.25003  0.52403  Biso   1.000  H
  H41      1.0000 0.74997  0.97433  0.52403  Biso   1.000  H
  H42      1.0000 0.02567  0.77563  0.52403  Biso   1.000  H
  H43      1.0000 0.89103  0.58337  0.85737  Biso   1.000  H
  H44      1.0000 0.41663  0.30767  0.85737  Biso   1.000  H
  H45      1.0000 0.69233  0.10897  0.85737  Biso   1.000  H
  H46      1.0000 0.44230  0.08330  0.80930  Biso   1.000  H
  H47      1.0000 0.91670  0.35900  0.80930  Biso   1.000  H
  H48      1.0000 0.64100  0.55770  0.80930  Biso   1.000  H
  H49      1.0000 0.10897  0.41663  0.14263  Biso   1.000  H
  H50      1.0000 0.58337  0.69233  0.14263  Biso   1.000  H
  H51      1.0000 0.30767  0.89103  0.14263  Biso   1.000  H
  H52      1.0000 0.77563  0.74997  0.47597  Biso   1.000  H
  H53      1.0000 0.25003  0.02567  0.47597  Biso   1.000  H
  H54      1.0000 0.97433  0.22437  0.47597  Biso   1.000  H
  C73      1.0000 0.66950  0.01620  0.18330  Biso   1.000  C
  C74      1.0000 0.98380  0.65330  0.18330  Biso   1.000  C
  C75      1.0000 0.34670  0.33050  0.18330  Biso   1.000  C
  C76      1.0000 0.33617  0.34953  0.51663  Biso   1.000  C
  C77      1.0000 0.65047  0.98663  0.51663  Biso   1.000  C
  C78      1.0000 0.01337  0.66383  0.51663  Biso   1.000  C
  C79      1.0000 0.00283  0.68287  0.84997  Biso   1.000  C
  C80      1.0000 0.31713  0.31997  0.84997  Biso   1.000  C
  C81      1.0000 0.68003  0.99717  0.84997  Biso   1.000  C
  C82      1.0000 0.33050  0.98380  0.81670  Biso   1.000  C
  C83      1.0000 0.01620  0.34670  0.81670  Biso   1.000  C
  C84      1.0000 0.65330  0.66950  0.81670  Biso   1.000  C
  C85      1.0000 0.99717  0.31713  0.15003  Biso   1.000  C
  C86      1.0000 0.68287  0.68003  0.15003  Biso   1.000  C
  C87      1.0000 0.31997  0.00283  0.15003  Biso   1.000  C
  C88      1.0000 0.66383  0.65047  0.48337  Biso   1.000  C
  C89      1.0000 0.34953  0.01337  0.48337  Biso   1.000  C
  C90      1.0000 0.98663  0.33617  0.48337  Biso   1.000  C
  H55      1.0000 0.69770  0.98860  0.20260  Biso   1.000  H
  H56      1.0000 0.01140  0.70910  0.20260  Biso   1.000  H
  H57      1.0000 0.29090  0.30230  0.20260  Biso   1.000  H
  H58      1.0000 0.36437  0.32193  0.53593  Biso   1.000  H
  H59      1.0000 0.67807  0.04243  0.53593  Biso   1.000  H
  H60      1.0000 0.95757  0.63563  0.53593  Biso   1.000  H
  H61      1.0000 0.03103  0.65527  0.86927  Biso   1.000  H
  H62      1.0000 0.34473  0.37577  0.86927  Biso   1.000  H
  H63      1.0000 0.62423  0.96897  0.86927  Biso   1.000  H
  H64      1.0000 0.30230  0.01140  0.79740  Biso   1.000  H
  H65      1.0000 0.98860  0.29090  0.79740  Biso   1.000  H
  H66      1.0000 0.70910  0.69770  0.79740  Biso   1.000  H
  H67      1.0000 0.96897  0.34473  0.13073  Biso   1.000  H
  H68      1.0000 0.65527  0.62423  0.13073  Biso   1.000  H
  H69      1.0000 0.37577  0.03103  0.13073  Biso   1.000  H
  H70      1.0000 0.63563  0.67807  0.46407  Biso   1.000  H
  H71      1.0000 0.32193  0.95757  0.46407  Biso   1.000  H
  H72      1.0000 0.04243  0.36437  0.46407  Biso   1.000  H
