data_image0
_cell_length_a       18.808
_cell_length_b       18.808
_cell_length_c       10.329
_cell_angle_alpha    90
_cell_angle_beta     90
_cell_angle_gamma    120

_symmetry_space_group_name_H-M    "P 1"
_symmetry_int_tables_number       1

loop_
  _symmetry_equiv_pos_as_xyz
  'x, y, z'

loop_
  _atom_site_label
  _atom_site_occupancy
  _atom_site_fract_x
  _atom_site_fract_y
  _atom_site_fract_z
  _atom_site_thermal_displace_type
  _atom_site_B_iso_or_equiv
  _atom_site_type_symbol
  C1       1.0000 0.67220  0.13750  0.13020  Biso   1.000  C
  C2       1.0000 0.86250  0.53470  0.13020  Biso   1.000  C
  C3       1.0000 0.46530  0.32780  0.13020  Biso   1.000  C
  C4       1.0000 0.33887  0.47083  0.46353  Biso   1.000  C
  C5       1.0000 0.52917  0.86803  0.46353  Biso   1.000  C
  C6       1.0000 0.13197  0.66113  0.46353  Biso   1.000  C
  C7       1.0000 0.00553  0.80417  0.79687  Biso   1.000  C
  C8       1.0000 0.19583  0.20137  0.79687  Biso   1.000  C
  C9       1.0000 0.79863  0.99447  0.79687  Biso   1.000  C
  C10      1.0000 0.32780  0.86250  0.86980  Biso   1.000  C
  C11      1.0000 0.13750  0.46530  0.86980  Biso   1.000  C
  C12      1.0000 0.53470  0.67220  0.86980  Biso   1.000  C
  C13      1.0000 0.99447  0.19583  0.20313  Biso   1.000  C
  C14      1.0000 0.80417  0.79863  0.20313  Biso   1.000  C
  C15      1.0000 0.20137  0.00553  0.20313  Biso   1.000  C
  C16      1.0000 0.66113  0.52917  0.53647  Biso   1.000  C
  C17      1.0000 0.47083  0.13197  0.53647  Biso   1.000  C
  C18      1.0000 0.86803  0.33887  0.53647  Biso   1.000  C
  C19      1.0000 0.58770  0.09690  0.12670  Biso   1.000  C
  C20      1.0000 0.90310  0.49080  0.12670  Biso   1.000  C
  C21      1.0000 0.50920  0.41230  0.12670  Biso   1.000  C
  C22      1.0000 0.25437  0.43023  0.46003  Biso   1.000  C
  C23      1.0000 0.56977  0.82413  0.46003  Biso   1.000  C
  C24      1.0000 0.17587  0.74563  0.46003  Biso   1.000  C
  C25      1.0000 0.92103  0.76357  0.79337  Biso   1.000  C
  C26      1.0000 0.23643  0.15747  0.79337  Biso   1.000  C
  C27      1.0000 0.84253  0.07897  0.79337  Biso   1.000  C
  C28      1.0000 0.41230  0.90310  0.87330  Biso   1.000  C
  C29      1.0000 0.09690  0.50920  0.87330  Biso   1.000  C
  C30      1.0000 0.49080  0.58770  0.87330  Biso   1.000  C
  C31      1.0000 0.07897  0.23643  0.20663  Biso   1.000  C
  C32      1.0000 0.76357  0.84253  0.20663  Biso   1.000  C
  C33      1.0000 0.15747  0.92103  0.20663  Biso   1.000  C
  C34      1.0000 0.74563  0.56977  0.53997  Biso   1.000  C
  C35      1.0000 0.43023  0.17587  0.53997  Biso   1.000  C
  C36      1.0000 0.82413  0.25437  0.53997  Biso   1.000  C
  H1       1.0000 0.56000  0.12500  0.10760  Biso   1.000  H
  H2       1.0000 0.87500  0.43500  0.10760  Biso   1.000  H
  H3       1.0000 0.56500  0.44000  0.10760  Biso   1.000  H
  H4       1.0000 0.22667  0.45833  0.44093  Biso   1.000  H
  H5       1.0000 0.54167  0.76833  0.44093  Biso   1.000  H
  H6       1.0000 0.23167  0.77333  0.44093  Biso   1.000  H
  H7       1.0000 0.89333  0.79167  0.77427  Biso   1.000  H
  H8       1.0000 0.20833  0.10167  0.77427  Biso   1.000  H
  H9       1.0000 0.89833  0.10667  0.77427  Biso   1.000  H
  H10      1.0000 0.44000  0.87500  0.89240  Biso   1.000  H
  H11      1.0000 0.12500  0.56500  0.89240  Biso   1.000  H
  H12      1.0000 0.43500  0.56000  0.89240  Biso   1.000  H
  H13      1.0000 0.10667  0.20833  0.22573  Biso   1.000  H
  H14      1.0000 0.79167  0.89833  0.22573  Biso   1.000  H
  H15      1.0000 0.10167  0.89333  0.22573  Biso   1.000  H
  H16      1.0000 0.77333  0.54167  0.55907  Biso   1.000  H
  H17      1.0000 0.45833  0.23167  0.55907  Biso   1.000  H
  H18      1.0000 0.76833  0.22667  0.55907  Biso   1.000  H
  C37      1.0000 0.54480  0.01370  0.15210  Biso   1.000  C
  C38      1.0000 0.98630  0.53110  0.15210  Biso   1.000  C
  C39      1.0000 0.46890  0.45520  0.15210  Biso   1.000  C
  C40      1.0000 0.21147  0.34703  0.48543  Biso   1.000  C
  C41      1.0000 0.65297  0.86443  0.48543  Biso   1.000  C
  C42      1.0000 0.13557  0.78853  0.48543  Biso   1.000  C
  C43      1.0000 0.87813  0.68037  0.81877  Biso   1.000  C
  C44      1.0000 0.31963  0.19777  0.81877  Biso   1.000  C
  C45      1.0000 0.80223  0.12187  0.81877  Biso   1.000  C
  C46      1.0000 0.45520  0.98630  0.84790  Biso   1.000  C
  C47      1.0000 0.01370  0.46890  0.84790  Biso   1.000  C
  C48      1.0000 0.53110  0.54480  0.84790  Biso   1.000  C
  C49      1.0000 0.12187  0.31963  0.18123  Biso   1.000  C
  C50      1.0000 0.68037  0.80223  0.18123  Biso   1.000  C
  C51      1.0000 0.19777  0.87813  0.18123  Biso   1.000  C
  C52      1.0000 0.78853  0.65297  0.51457  Biso   1.000  C
  C53      1.0000 0.34703  0.13557  0.51457  Biso   1.000  C
  C54      1.0000 0.86443  0.21147  0.51457  Biso   1.000  C
  H19      1.0000 0.48770  0.98550  0.15210  Biso   1.000  H
  H20      1.0000 0.01450  0.50220  0.15210  Biso   1.000  H
  H21      1.0000 0.49780  0.51230  0.15210  Biso   1.000  H
  H22      1.0000 0.15437  0.31883  0.48543  Biso   1.000  H
  H23      1.0000 0.68117  0.83553  0.48543  Biso   1.000  H
  H24      1.0000 0.16447  0.84563  0.48543  Biso   1.000  H
  H25      1.0000 0.82103  0.65217  0.81877  Biso   1.000  H
  H26      1.0000 0.34783  0.16887  0.81877  Biso   1.000  H
  H27      1.0000 0.83113  0.17897  0.81877  Biso   1.000  H
  H28      1.0000 0.51230  0.01450  0.84790  Biso   1.000  H
  H29      1.0000 0.98550  0.49780  0.84790  Biso   1.000  H
  H30      1.0000 0.50220  0.48770  0.84790  Biso   1.000  H
  H31      1.0000 0.17897  0.34783  0.18123  Biso   1.000  H
  H32      1.0000 0.65217  0.83113  0.18123  Biso   1.000  H
  H33      1.0000 0.16887  0.82103  0.18123  Biso   1.000  H
  H34      1.0000 0.84563  0.68117  0.51457  Biso   1.000  H
  H35      1.0000 0.31883  0.16447  0.51457  Biso   1.000  H
  H36      1.0000 0.83553  0.15437  0.51457  Biso   1.000  H
  C55      1.0000 0.58590  0.97270  0.17710  Biso   1.000  C
  C56      1.0000 0.02730  0.61320  0.17710  Biso   1.000  C
  C57      1.0000 0.38680  0.41410  0.17710  Biso   1.000  C
  C58      1.0000 0.25257  0.30603  0.51043  Biso   1.000  C
  C59      1.0000 0.69397  0.94653  0.51043  Biso   1.000  C
  C60      1.0000 0.05347  0.74743  0.51043  Biso   1.000  C
  C61      1.0000 0.91923  0.63937  0.84377  Biso   1.000  C
  C62      1.0000 0.36063  0.27987  0.84377  Biso   1.000  C
  C63      1.0000 0.72013  0.08077  0.84377  Biso   1.000  C
  C64      1.0000 0.41410  0.02730  0.82290  Biso   1.000  C
  C65      1.0000 0.97270  0.38680  0.82290  Biso   1.000  C
  C66      1.0000 0.61320  0.58590  0.82290  Biso   1.000  C
  C67      1.0000 0.08077  0.36063  0.15623  Biso   1.000  C
  C68      1.0000 0.63937  0.72013  0.15623  Biso   1.000  C
  C69      1.0000 0.27987  0.91923  0.15623  Biso   1.000  C
  C70      1.0000 0.74743  0.69397  0.48957  Biso   1.000  C
  C71      1.0000 0.30603  0.05347  0.48957  Biso   1.000  C
  C72      1.0000 0.94653  0.25257  0.48957  Biso   1.000  C
  H37      1.0000 0.55780  0.91610  0.18920  Biso   1.000  H
  H38      1.0000 0.08390  0.64170  0.18920  Biso   1.000  H
  H39      1.0000 0.35830  0.44220  0.18920  Biso   1.000  H
  H40      1.0000 0.22447  0.24943  0.52253  Biso   1.000  H
  H41      1.0000 0.75057  0.97503  0.52253  Biso   1.000  H
  H42      1.0000 0.02497  0.77553  0.52253  Biso   1.000  H
  H43      1.0000 0.89113  0.58277  0.85587  Biso   1.000  H
  H44      1.0000 0.41723  0.30837  0.85587  Biso   1.000  H
  H45      1.0000 0.69163  0.10887  0.85587  Biso   1.000  H
  H46      1.0000 0.44220  0.08390  0.81080  Biso   1.000  H
  H47      1.0000 0.91610  0.35830  0.81080  Biso   1.000  H
  H48      1.0000 0.64170  0.55780  0.81080  Biso   1.000  H
  H49      1.0000 0.10887  0.41723  0.14413  Biso   1.000  H
  H50      1.0000 0.58277  0.69163  0.14413  Biso   1.000  H
  H51      1.0000 0.30837  0.89113  0.14413  Biso   1.000  H
  H52      1.0000 0.77553  0.75057  0.47747  Biso   1.000  H
  H53      1.0000 0.24943  0.02497  0.47747  Biso   1.000  H
  H54      1.0000 0.97503  0.22447  0.47747  Biso   1.000  H
  C73      1.0000 0.66980  0.01700  0.18420  Biso   1.000  C
  C74      1.0000 0.98300  0.65280  0.18420  Biso   1.000  C
  C75      1.0000 0.34720  0.33020  0.18420  Biso   1.000  C
  C76      1.0000 0.33647  0.35033  0.51753  Biso   1.000  C
  C77      1.0000 0.64967  0.98613  0.51753  Biso   1.000  C
  C78      1.0000 0.01387  0.66353  0.51753  Biso   1.000  C
  C79      1.0000 0.00313  0.68367  0.85087  Biso   1.000  C
  C80      1.0000 0.31633  0.31947  0.85087  Biso   1.000  C
  C81      1.0000 0.68053  0.99687  0.85087  Biso   1.000  C
  C82      1.0000 0.33020  0.98300  0.81580  Biso   1.000  C
  C83      1.0000 0.01700  0.34720  0.81580  Biso   1.000  C
  C84      1.0000 0.65280  0.66980  0.81580  Biso   1.000  C
  C85      1.0000 0.99687  0.31633  0.14913  Biso   1.000  C
  C86      1.0000 0.68367  0.68053  0.14913  Biso   1.000  C
  C87      1.0000 0.31947  0.00313  0.14913  Biso   1.000  C
  C88      1.0000 0.66353  0.64967  0.48247  Biso   1.000  C
  C89      1.0000 0.35033  0.01387  0.48247  Biso   1.000  C
  C90      1.0000 0.98613  0.33647  0.48247  Biso   1.000  C
  H55      1.0000 0.69830  0.99000  0.20540  Biso   1.000  H
  H56      1.0000 0.01000  0.70830  0.20540  Biso   1.000  H
  H57      1.0000 0.29170  0.30170  0.20540  Biso   1.000  H
  H58      1.0000 0.36497  0.32333  0.53873  Biso   1.000  H
  H59      1.0000 0.67667  0.04163  0.53873  Biso   1.000  H
  H60      1.0000 0.95837  0.63503  0.53873  Biso   1.000  H
  H61      1.0000 0.03163  0.65667  0.87207  Biso   1.000  H
  H62      1.0000 0.34333  0.37497  0.87207  Biso   1.000  H
  H63      1.0000 0.62503  0.96837  0.87207  Biso   1.000  H
  H64      1.0000 0.30170  0.01000  0.79460  Biso   1.000  H
  H65      1.0000 0.99000  0.29170  0.79460  Biso   1.000  H
  H66      1.0000 0.70830  0.69830  0.79460  Biso   1.000  H
  H67      1.0000 0.96837  0.34333  0.12793  Biso   1.000  H
  H68      1.0000 0.65667  0.62503  0.12793  Biso   1.000  H
  H69      1.0000 0.37497  0.03163  0.12793  Biso   1.000  H
  H70      1.0000 0.63503  0.67667  0.46127  Biso   1.000  H
  H71      1.0000 0.32333  0.95837  0.46127  Biso   1.000  H
  H72      1.0000 0.04163  0.36497  0.46127  Biso   1.000  H
  Cu1      1.0000 0.83330  0.16670  0.16670  Biso   1.000  Cu
  Cu2      1.0000 0.83330  0.66660  0.16670  Biso   1.000  Cu
  Cu3      1.0000 0.33340  0.16670  0.16670  Biso   1.000  Cu
  Cu4      1.0000 0.49997  0.50003  0.50003  Biso   1.000  Cu
  Cu5      1.0000 0.49997  0.99993  0.50003  Biso   1.000  Cu
  Cu6      1.0000 0.00007  0.50003  0.50003  Biso   1.000  Cu
  Cu7      1.0000 0.16663  0.83337  0.83337  Biso   1.000  Cu
  Cu8      1.0000 0.16663  0.33327  0.83337  Biso   1.000  Cu
  Cu9      1.0000 0.66673  0.83337  0.83337  Biso   1.000  Cu
  N1       1.0000 0.71190  0.09730  0.16170  Biso   1.000  N
  N2       1.0000 0.90270  0.61460  0.16170  Biso   1.000  N
  N3       1.0000 0.38540  0.28810  0.16170  Biso   1.000  N
  N4       1.0000 0.37857  0.43063  0.49503  Biso   1.000  N
  N5       1.0000 0.56937  0.94793  0.49503  Biso   1.000  N
  N6       1.0000 0.05207  0.62143  0.49503  Biso   1.000  N
  N7       1.0000 0.04523  0.76397  0.82837  Biso   1.000  N
  N8       1.0000 0.23603  0.28127  0.82837  Biso   1.000  N
  N9       1.0000 0.71873  0.95477  0.82837  Biso   1.000  N
  N10      1.0000 0.28810  0.90270  0.83830  Biso   1.000  N
  N11      1.0000 0.09730  0.38540  0.83830  Biso   1.000  N
  N12      1.0000 0.61460  0.71190  0.83830  Biso   1.000  N
  N13      1.0000 0.95477  0.23603  0.17163  Biso   1.000  N
  N14      1.0000 0.76397  0.71873  0.17163  Biso   1.000  N
  N15      1.0000 0.28127  0.04523  0.17163  Biso   1.000  N
  N16      1.0000 0.62143  0.56937  0.50497  Biso   1.000  N
  N17      1.0000 0.43063  0.05207  0.50497  Biso   1.000  N
  N18      1.0000 0.94793  0.37857  0.50497  Biso   1.000  N
  O1       1.0000 0.82250  0.24800  0.07430  Biso   1.000  O
  O2       1.0000 0.75200  0.57450  0.07430  Biso   1.000  O
  O3       1.0000 0.42550  0.17750  0.07430  Biso   1.000  O
  O4       1.0000 0.48917  0.58133  0.40763  Biso   1.000  O
  O5       1.0000 0.41867  0.90783  0.40763  Biso   1.000  O
  O6       1.0000 0.09217  0.51083  0.40763  Biso   1.000  O
  O7       1.0000 0.15583  0.91467  0.74097  Biso   1.000  O
  O8       1.0000 0.08533  0.24117  0.74097  Biso   1.000  O
  O9       1.0000 0.75883  0.84417  0.74097  Biso   1.000  O
  O10      1.0000 0.17750  0.75200  0.92570  Biso   1.000  O
  O11      1.0000 0.24800  0.42550  0.92570  Biso   1.000  O
  O12      1.0000 0.57450  0.82250  0.92570  Biso   1.000  O
  O13      1.0000 0.84417  0.08533  0.25903  Biso   1.000  O
  O14      1.0000 0.91467  0.75883  0.25903  Biso   1.000  O
  O15      1.0000 0.24117  0.15583  0.25903  Biso   1.000  O
  O16      1.0000 0.51083  0.41867  0.59237  Biso   1.000  O
  O17      1.0000 0.58133  0.09217  0.59237  Biso   1.000  O
  O18      1.0000 0.90783  0.48917  0.59237  Biso   1.000  O
  O19      1.0000 0.74000  0.29540  0.19880  Biso   1.000  O
  O20      1.0000 0.70460  0.44460  0.19880  Biso   1.000  O
  O21      1.0000 0.55540  0.26000  0.19880  Biso   1.000  O
  O22      1.0000 0.40667  0.62873  0.53213  Biso   1.000  O
  O23      1.0000 0.37127  0.77793  0.53213  Biso   1.000  O
  O24      1.0000 0.22207  0.59333  0.53213  Biso   1.000  O
  O25      1.0000 0.07333  0.96207  0.86547  Biso   1.000  O
  O26      1.0000 0.03793  0.11127  0.86547  Biso   1.000  O
  O27      1.0000 0.88873  0.92667  0.86547  Biso   1.000  O
  O28      1.0000 0.26000  0.70460  0.80120  Biso   1.000  O
  O29      1.0000 0.29540  0.55540  0.80120  Biso   1.000  O
  O30      1.0000 0.44460  0.74000  0.80120  Biso   1.000  O
  O31      1.0000 0.92667  0.03793  0.13453  Biso   1.000  O
  O32      1.0000 0.96207  0.88873  0.13453  Biso   1.000  O
  O33      1.0000 0.11127  0.07333  0.13453  Biso   1.000  O
  O34      1.0000 0.59333  0.37127  0.46787  Biso   1.000  O
  O35      1.0000 0.62873  0.22207  0.46787  Biso   1.000  O
  O36      1.0000 0.77793  0.40667  0.46787  Biso   1.000  O
  O37      1.0000 0.71080  0.26000  0.96340  Biso   1.000  O
  O38      1.0000 0.74000  0.45080  0.96340  Biso   1.000  O
  O39      1.0000 0.54920  0.28920  0.96340  Biso   1.000  O
  O40      1.0000 0.37747  0.59333  0.29673  Biso   1.000  O
  O41      1.0000 0.40667  0.78413  0.29673  Biso   1.000  O
  O42      1.0000 0.21587  0.62253  0.29673  Biso   1.000  O
  O43      1.0000 0.04413  0.92667  0.63007  Biso   1.000  O
  O44      1.0000 0.07333  0.11747  0.63007  Biso   1.000  O
  O45      1.0000 0.88253  0.95587  0.63007  Biso   1.000  O
  O46      1.0000 0.28920  0.74000  0.03660  Biso   1.000  O
  O47      1.0000 0.26000  0.54920  0.03660  Biso   1.000  O
  O48      1.0000 0.45080  0.71080  0.03660  Biso   1.000  O
  O49      1.0000 0.95587  0.07333  0.36993  Biso   1.000  O
  O50      1.0000 0.92667  0.88253  0.36993  Biso   1.000  O
  O51      1.0000 0.11747  0.04413  0.36993  Biso   1.000  O
  O52      1.0000 0.62253  0.40667  0.70327  Biso   1.000  O
  O53      1.0000 0.59333  0.21587  0.70327  Biso   1.000  O
  O54      1.0000 0.78413  0.37747  0.70327  Biso   1.000  O
  P1       1.0000 0.74045  0.24475  0.08793  Biso   1.000  P
  P2       1.0000 0.75525  0.49570  0.08793  Biso   1.000  P
  P3       1.0000 0.50430  0.25955  0.08793  Biso   1.000  P
  P4       1.0000 0.40712  0.57808  0.42126  Biso   1.000  P
  P5       1.0000 0.42192  0.82903  0.42126  Biso   1.000  P
  P6       1.0000 0.17097  0.59288  0.42126  Biso   1.000  P
  P7       1.0000 0.07378  0.91142  0.75460  Biso   1.000  P
  P8       1.0000 0.08858  0.16237  0.75460  Biso   1.000  P
  P9       1.0000 0.83763  0.92622  0.75460  Biso   1.000  P
  P10      1.0000 0.25955  0.75525  0.91207  Biso   1.000  P
  P11      1.0000 0.24475  0.50430  0.91207  Biso   1.000  P
  P12      1.0000 0.49570  0.74045  0.91207  Biso   1.000  P
  P13      1.0000 0.92622  0.08858  0.24540  Biso   1.000  P
  P14      1.0000 0.91142  0.83763  0.24540  Biso   1.000  P
  P15      1.0000 0.16237  0.07378  0.24540  Biso   1.000  P
  P16      1.0000 0.59288  0.42192  0.57874  Biso   1.000  P
  P17      1.0000 0.57808  0.17097  0.57874  Biso   1.000  P
  P18      1.0000 0.82903  0.40712  0.57874  Biso   1.000  P
  Pr1      1.0000 0.66670  0.33330  0.33330  Biso   1.000  Pr
  Pr2      1.0000 0.33337  0.66663  0.66663  Biso   1.000  Pr
  Pr3      1.0000 0.00003  0.99997  0.99997  Biso   1.000  Pr
  Pr4      1.0000 0.66670  0.33330  0.83330  Biso   1.000  Pr
  Pr5      1.0000 0.33337  0.66663  0.16663  Biso   1.000  Pr
  Pr6      1.0000 0.00003  0.99997  0.49997  Biso   1.000  Pr
