data_image0
_cell_length_a       18.742
_cell_length_b       18.742
_cell_length_c       10.191
_cell_angle_alpha    90
_cell_angle_beta     90
_cell_angle_gamma    120

_symmetry_space_group_name_H-M    "P 1"
_symmetry_int_tables_number       1

loop_
  _symmetry_equiv_pos_as_xyz
  'x, y, z'

loop_
  _atom_site_label
  _atom_site_occupancy
  _atom_site_fract_x
  _atom_site_fract_y
  _atom_site_fract_z
  _atom_site_thermal_displace_type
  _atom_site_B_iso_or_equiv
  _atom_site_type_symbol
  Gd1      1.0000 0.66670  0.33330  0.33330  Biso   1.000  Gd
  Gd2      1.0000 0.33337  0.66663  0.66663  Biso   1.000  Gd
  Gd3      1.0000 0.00003  0.99997  0.99997  Biso   1.000  Gd
  Gd4      1.0000 0.66670  0.33330  0.83330  Biso   1.000  Gd
  Gd5      1.0000 0.33337  0.66663  0.16663  Biso   1.000  Gd
  Gd6      1.0000 0.00003  0.99997  0.49997  Biso   1.000  Gd
  Cu1      1.0000 0.83330  0.16670  0.16670  Biso   1.000  Cu
  Cu2      1.0000 0.83330  0.66660  0.16670  Biso   1.000  Cu
  Cu3      1.0000 0.33340  0.16670  0.16670  Biso   1.000  Cu
  Cu4      1.0000 0.49997  0.50003  0.50003  Biso   1.000  Cu
  Cu5      1.0000 0.49997  0.99993  0.50003  Biso   1.000  Cu
  Cu6      1.0000 0.00007  0.50003  0.50003  Biso   1.000  Cu
  Cu7      1.0000 0.16663  0.83337  0.83337  Biso   1.000  Cu
  Cu8      1.0000 0.16663  0.33327  0.83337  Biso   1.000  Cu
  Cu9      1.0000 0.66673  0.83337  0.83337  Biso   1.000  Cu
  P1       1.0000 0.75471  0.26047  0.08835  Biso   1.000  P
  P2       1.0000 0.73953  0.49424  0.08835  Biso   1.000  P
  P3       1.0000 0.50576  0.24529  0.08835  Biso   1.000  P
  P4       1.0000 0.42138  0.59380  0.42168  Biso   1.000  P
  P5       1.0000 0.40620  0.82757  0.42168  Biso   1.000  P
  P6       1.0000 0.17243  0.57862  0.42168  Biso   1.000  P
  P7       1.0000 0.08804  0.92714  0.75502  Biso   1.000  P
  P8       1.0000 0.07286  0.16091  0.75502  Biso   1.000  P
  P9       1.0000 0.83909  0.91196  0.75502  Biso   1.000  P
  P10      1.0000 0.24529  0.73953  0.91165  Biso   1.000  P
  P11      1.0000 0.26047  0.50576  0.91165  Biso   1.000  P
  P12      1.0000 0.49424  0.75471  0.91165  Biso   1.000  P
  P13      1.0000 0.91196  0.07286  0.24498  Biso   1.000  P
  P14      1.0000 0.92714  0.83909  0.24498  Biso   1.000  P
  P15      1.0000 0.16091  0.08804  0.24498  Biso   1.000  P
  P16      1.0000 0.57862  0.40620  0.57832  Biso   1.000  P
  P17      1.0000 0.59380  0.17243  0.57832  Biso   1.000  P
  P18      1.0000 0.82757  0.42138  0.57832  Biso   1.000  P
  O1       1.0000 0.70401  0.26041  0.20260  Biso   1.000  O
  O2       1.0000 0.73959  0.44360  0.20260  Biso   1.000  O
  O3       1.0000 0.55640  0.29599  0.20260  Biso   1.000  O
  O4       1.0000 0.37068  0.59374  0.53593  Biso   1.000  O
  O5       1.0000 0.40626  0.77693  0.53593  Biso   1.000  O
  O6       1.0000 0.22307  0.62932  0.53593  Biso   1.000  O
  O7       1.0000 0.03734  0.92708  0.86927  Biso   1.000  O
  O8       1.0000 0.07292  0.11027  0.86927  Biso   1.000  O
  O9       1.0000 0.88973  0.96266  0.86927  Biso   1.000  O
  O10      1.0000 0.29599  0.73959  0.79740  Biso   1.000  O
  O11      1.0000 0.26041  0.55640  0.79740  Biso   1.000  O
  O12      1.0000 0.44360  0.70401  0.79740  Biso   1.000  O
  O13      1.0000 0.96266  0.07292  0.13073  Biso   1.000  O
  O14      1.0000 0.92708  0.88973  0.13073  Biso   1.000  O
  O15      1.0000 0.11027  0.03734  0.13073  Biso   1.000  O
  O16      1.0000 0.62932  0.40626  0.46407  Biso   1.000  O
  O17      1.0000 0.59374  0.22307  0.46407  Biso   1.000  O
  O18      1.0000 0.77693  0.37068  0.46407  Biso   1.000  O
  O19      1.0000 0.73873  0.29061  0.96190  Biso   1.000  O
  O20      1.0000 0.70939  0.44812  0.96190  Biso   1.000  O
  O21      1.0000 0.55188  0.26127  0.96190  Biso   1.000  O
  O22      1.0000 0.40540  0.62394  0.29523  Biso   1.000  O
  O23      1.0000 0.37606  0.78145  0.29523  Biso   1.000  O
  O24      1.0000 0.21855  0.59460  0.29523  Biso   1.000  O
  O25      1.0000 0.07206  0.95728  0.62857  Biso   1.000  O
  O26      1.0000 0.04272  0.11479  0.62857  Biso   1.000  O
  O27      1.0000 0.88521  0.92794  0.62857  Biso   1.000  O
  O28      1.0000 0.26127  0.70939  0.03810  Biso   1.000  O
  O29      1.0000 0.29061  0.55188  0.03810  Biso   1.000  O
  O30      1.0000 0.44812  0.73873  0.03810  Biso   1.000  O
  O31      1.0000 0.92794  0.04272  0.37143  Biso   1.000  O
  O32      1.0000 0.95728  0.88521  0.37143  Biso   1.000  O
  O33      1.0000 0.11479  0.07206  0.37143  Biso   1.000  O
  O34      1.0000 0.59460  0.37606  0.70477  Biso   1.000  O
  O35      1.0000 0.62394  0.21855  0.70477  Biso   1.000  O
  O36      1.0000 0.78145  0.40540  0.70477  Biso   1.000  O
  O37      1.0000 0.75156  0.17831  0.07320  Biso   1.000  O
  O38      1.0000 0.82169  0.57325  0.07320  Biso   1.000  O
  O39      1.0000 0.42675  0.24844  0.07320  Biso   1.000  O
  O40      1.0000 0.41823  0.51164  0.40653  Biso   1.000  O
  O41      1.0000 0.48836  0.90658  0.40653  Biso   1.000  O
  O42      1.0000 0.09342  0.58177  0.40653  Biso   1.000  O
  O43      1.0000 0.08489  0.84498  0.73987  Biso   1.000  O
  O44      1.0000 0.15502  0.23992  0.73987  Biso   1.000  O
  O45      1.0000 0.76008  0.91511  0.73987  Biso   1.000  O
  O46      1.0000 0.24844  0.82169  0.92680  Biso   1.000  O
  O47      1.0000 0.17831  0.42675  0.92680  Biso   1.000  O
  O48      1.0000 0.57325  0.75156  0.92680  Biso   1.000  O
  O49      1.0000 0.91511  0.15502  0.26013  Biso   1.000  O
  O50      1.0000 0.84498  0.76008  0.26013  Biso   1.000  O
  O51      1.0000 0.23992  0.08489  0.26013  Biso   1.000  O
  O52      1.0000 0.58177  0.48836  0.59347  Biso   1.000  O
  O53      1.0000 0.51164  0.09342  0.59347  Biso   1.000  O
  O54      1.0000 0.90658  0.41823  0.59347  Biso   1.000  O
  N1       1.0000 0.90300  0.28830  0.16160  Biso   1.000  N
  N2       1.0000 0.71170  0.61470  0.16160  Biso   1.000  N
  N3       1.0000 0.38530  0.09700  0.16160  Biso   1.000  N
  N4       1.0000 0.56967  0.62163  0.49493  Biso   1.000  N
  N5       1.0000 0.37837  0.94803  0.49493  Biso   1.000  N
  N6       1.0000 0.05197  0.43033  0.49493  Biso   1.000  N
  N7       1.0000 0.23633  0.95497  0.82827  Biso   1.000  N
  N8       1.0000 0.04503  0.28137  0.82827  Biso   1.000  N
  N9       1.0000 0.71863  0.76367  0.82827  Biso   1.000  N
  N10      1.0000 0.09700  0.71170  0.83840  Biso   1.000  N
  N11      1.0000 0.28830  0.38530  0.83840  Biso   1.000  N
  N12      1.0000 0.61470  0.90300  0.83840  Biso   1.000  N
  N13      1.0000 0.76367  0.04503  0.17173  Biso   1.000  N
  N14      1.0000 0.95497  0.71863  0.17173  Biso   1.000  N
  N15      1.0000 0.28137  0.23633  0.17173  Biso   1.000  N
  N16      1.0000 0.43033  0.37837  0.50507  Biso   1.000  N
  N17      1.0000 0.62163  0.05197  0.50507  Biso   1.000  N
  N18      1.0000 0.94803  0.56967  0.50507  Biso   1.000  N
  C1       1.0000 0.86280  0.32880  0.13070  Biso   1.000  C
  C2       1.0000 0.67120  0.53400  0.13070  Biso   1.000  C
  C3       1.0000 0.46600  0.13720  0.13070  Biso   1.000  C
  C4       1.0000 0.52947  0.66213  0.46403  Biso   1.000  C
  C5       1.0000 0.33787  0.86733  0.46403  Biso   1.000  C
  C6       1.0000 0.13267  0.47053  0.46403  Biso   1.000  C
  C7       1.0000 0.19613  0.99547  0.79737  Biso   1.000  C
  C8       1.0000 0.00453  0.20067  0.79737  Biso   1.000  C
  C9       1.0000 0.79933  0.80387  0.79737  Biso   1.000  C
  C10      1.0000 0.13720  0.67120  0.86930  Biso   1.000  C
  C11      1.0000 0.32880  0.46600  0.86930  Biso   1.000  C
  C12      1.0000 0.53400  0.86280  0.86930  Biso   1.000  C
  C13      1.0000 0.80387  0.00453  0.20263  Biso   1.000  C
  C14      1.0000 0.99547  0.79933  0.20263  Biso   1.000  C
  C15      1.0000 0.20067  0.19613  0.20263  Biso   1.000  C
  C16      1.0000 0.47053  0.33787  0.53597  Biso   1.000  C
  C17      1.0000 0.66213  0.13267  0.53597  Biso   1.000  C
  C18      1.0000 0.86733  0.52947  0.53597  Biso   1.000  C
  C19      1.0000 0.90370  0.41340  0.12830  Biso   1.000  C
  C20      1.0000 0.58660  0.49030  0.12830  Biso   1.000  C
  C21      1.0000 0.50970  0.09630  0.12830  Biso   1.000  C
  C22      1.0000 0.57037  0.74673  0.46163  Biso   1.000  C
  C23      1.0000 0.25327  0.82363  0.46163  Biso   1.000  C
  C24      1.0000 0.17637  0.42963  0.46163  Biso   1.000  C
  C25      1.0000 0.23703  0.08007  0.79497  Biso   1.000  C
  C26      1.0000 0.91993  0.15697  0.79497  Biso   1.000  C
  C27      1.0000 0.84303  0.76297  0.79497  Biso   1.000  C
  C28      1.0000 0.09630  0.58660  0.87170  Biso   1.000  C
  C29      1.0000 0.41340  0.50970  0.87170  Biso   1.000  C
  C30      1.0000 0.49030  0.90370  0.87170  Biso   1.000  C
  C31      1.0000 0.76297  0.91993  0.20503  Biso   1.000  C
  C32      1.0000 0.08007  0.84303  0.20503  Biso   1.000  C
  C33      1.0000 0.15697  0.23703  0.20503  Biso   1.000  C
  C34      1.0000 0.42963  0.25327  0.53837  Biso   1.000  C
  C35      1.0000 0.74673  0.17637  0.53837  Biso   1.000  C
  C36      1.0000 0.82363  0.57037  0.53837  Biso   1.000  C
  H1       1.0000 0.87520  0.44120  0.11100  Biso   1.000  H
  H2       1.0000 0.55880  0.43400  0.11100  Biso   1.000  H
  H3       1.0000 0.56600  0.12480  0.11100  Biso   1.000  H
  H4       1.0000 0.54187  0.77453  0.44433  Biso   1.000  H
  H5       1.0000 0.22547  0.76733  0.44433  Biso   1.000  H
  H6       1.0000 0.23267  0.45813  0.44433  Biso   1.000  H
  H7       1.0000 0.20853  0.10787  0.77767  Biso   1.000  H
  H8       1.0000 0.89213  0.10067  0.77767  Biso   1.000  H
  H9       1.0000 0.89933  0.79147  0.77767  Biso   1.000  H
  H10      1.0000 0.12480  0.55880  0.88900  Biso   1.000  H
  H11      1.0000 0.44120  0.56600  0.88900  Biso   1.000  H
  H12      1.0000 0.43400  0.87520  0.88900  Biso   1.000  H
  H13      1.0000 0.79147  0.89213  0.22233  Biso   1.000  H
  H14      1.0000 0.10787  0.89933  0.22233  Biso   1.000  H
  H15      1.0000 0.10067  0.20853  0.22233  Biso   1.000  H
  H16      1.0000 0.45813  0.22547  0.55567  Biso   1.000  H
  H17      1.0000 0.77453  0.23267  0.55567  Biso   1.000  H
  H18      1.0000 0.76733  0.54187  0.55567  Biso   1.000  H
  C37      1.0000 0.98790  0.45700  0.15180  Biso   1.000  C
  C38      1.0000 0.54300  0.53090  0.15180  Biso   1.000  C
  C39      1.0000 0.46910  0.01210  0.15180  Biso   1.000  C
  C40      1.0000 0.65457  0.79033  0.48513  Biso   1.000  C
  C41      1.0000 0.20967  0.86423  0.48513  Biso   1.000  C
  C42      1.0000 0.13577  0.34543  0.48513  Biso   1.000  C
  C43      1.0000 0.32123  0.12367  0.81847  Biso   1.000  C
  C44      1.0000 0.87633  0.19757  0.81847  Biso   1.000  C
  C45      1.0000 0.80243  0.67877  0.81847  Biso   1.000  C
  C46      1.0000 0.01210  0.54300  0.84820  Biso   1.000  C
  C47      1.0000 0.45700  0.46910  0.84820  Biso   1.000  C
  C48      1.0000 0.53090  0.98790  0.84820  Biso   1.000  C
  C49      1.0000 0.67877  0.87633  0.18153  Biso   1.000  C
  C50      1.0000 0.12367  0.80243  0.18153  Biso   1.000  C
  C51      1.0000 0.19757  0.32123  0.18153  Biso   1.000  C
  C52      1.0000 0.34543  0.20967  0.51487  Biso   1.000  C
  C53      1.0000 0.79033  0.13577  0.51487  Biso   1.000  C
  C54      1.0000 0.86423  0.65457  0.51487  Biso   1.000  C
  H19      1.0000 0.01640  0.51430  0.15170  Biso   1.000  H
  H20      1.0000 0.48570  0.50210  0.15170  Biso   1.000  H
  H21      1.0000 0.49790  0.98360  0.15170  Biso   1.000  H
  H22      1.0000 0.68307  0.84763  0.48503  Biso   1.000  H
  H23      1.0000 0.15237  0.83543  0.48503  Biso   1.000  H
  H24      1.0000 0.16457  0.31693  0.48503  Biso   1.000  H
  H25      1.0000 0.34973  0.18097  0.81837  Biso   1.000  H
  H26      1.0000 0.81903  0.16877  0.81837  Biso   1.000  H
  H27      1.0000 0.83123  0.65027  0.81837  Biso   1.000  H
  H28      1.0000 0.98360  0.48570  0.84830  Biso   1.000  H
  H29      1.0000 0.51430  0.49790  0.84830  Biso   1.000  H
  H30      1.0000 0.50210  0.01640  0.84830  Biso   1.000  H
  H31      1.0000 0.65027  0.81903  0.18163  Biso   1.000  H
  H32      1.0000 0.18097  0.83123  0.18163  Biso   1.000  H
  H33      1.0000 0.16877  0.34973  0.18163  Biso   1.000  H
  H34      1.0000 0.31693  0.15237  0.51497  Biso   1.000  H
  H35      1.0000 0.84763  0.16457  0.51497  Biso   1.000  H
  H36      1.0000 0.83543  0.68307  0.51497  Biso   1.000  H
  C55      1.0000 0.02830  0.41440  0.17520  Biso   1.000  C
  C56      1.0000 0.58560  0.61390  0.17520  Biso   1.000  C
  C57      1.0000 0.38610  0.97170  0.17520  Biso   1.000  C
  C58      1.0000 0.69497  0.74773  0.50853  Biso   1.000  C
  C59      1.0000 0.25227  0.94723  0.50853  Biso   1.000  C
  C60      1.0000 0.05277  0.30503  0.50853  Biso   1.000  C
  C61      1.0000 0.36163  0.08107  0.84187  Biso   1.000  C
  C62      1.0000 0.91893  0.28057  0.84187  Biso   1.000  C
  C63      1.0000 0.71943  0.63837  0.84187  Biso   1.000  C
  C64      1.0000 0.97170  0.58560  0.82480  Biso   1.000  C
  C65      1.0000 0.41440  0.38610  0.82480  Biso   1.000  C
  C66      1.0000 0.61390  0.02830  0.82480  Biso   1.000  C
  C67      1.0000 0.63837  0.91893  0.15813  Biso   1.000  C
  C68      1.0000 0.08107  0.71943  0.15813  Biso   1.000  C
  C69      1.0000 0.28057  0.36163  0.15813  Biso   1.000  C
  C70      1.0000 0.30503  0.25227  0.49147  Biso   1.000  C
  C71      1.0000 0.74773  0.05277  0.49147  Biso   1.000  C
  C72      1.0000 0.94723  0.69497  0.49147  Biso   1.000  C
  H37      1.0000 0.08520  0.44230  0.18590  Biso   1.000  H
  H38      1.0000 0.55770  0.64290  0.18590  Biso   1.000  H
  H39      1.0000 0.35710  0.91480  0.18590  Biso   1.000  H
  H40      1.0000 0.75187  0.77563  0.51923  Biso   1.000  H
  H41      1.0000 0.22437  0.97623  0.51923  Biso   1.000  H
  H42      1.0000 0.02377  0.24813  0.51923  Biso   1.000  H
  H43      1.0000 0.41853  0.10897  0.85257  Biso   1.000  H
  H44      1.0000 0.89103  0.30957  0.85257  Biso   1.000  H
  H45      1.0000 0.69043  0.58147  0.85257  Biso   1.000  H
  H46      1.0000 0.91480  0.55770  0.81410  Biso   1.000  H
  H47      1.0000 0.44230  0.35710  0.81410  Biso   1.000  H
  H48      1.0000 0.64290  0.08520  0.81410  Biso   1.000  H
  H49      1.0000 0.58147  0.89103  0.14743  Biso   1.000  H
  H50      1.0000 0.10897  0.69043  0.14743  Biso   1.000  H
  H51      1.0000 0.30957  0.41853  0.14743  Biso   1.000  H
  H52      1.0000 0.24813  0.22437  0.48077  Biso   1.000  H
  H53      1.0000 0.77563  0.02377  0.48077  Biso   1.000  H
  H54      1.0000 0.97623  0.75187  0.48077  Biso   1.000  H
  C73      1.0000 0.98430  0.33070  0.18250  Biso   1.000  C
  C74      1.0000 0.66930  0.65360  0.18250  Biso   1.000  C
  C75      1.0000 0.34640  0.01570  0.18250  Biso   1.000  C
  C76      1.0000 0.65097  0.66403  0.51583  Biso   1.000  C
  C77      1.0000 0.33597  0.98693  0.51583  Biso   1.000  C
  C78      1.0000 0.01307  0.34903  0.51583  Biso   1.000  C
  C79      1.0000 0.31763  0.99737  0.84917  Biso   1.000  C
  C80      1.0000 0.00263  0.32027  0.84917  Biso   1.000  C
  C81      1.0000 0.67973  0.68237  0.84917  Biso   1.000  C
  C82      1.0000 0.01570  0.66930  0.81750  Biso   1.000  C
  C83      1.0000 0.33070  0.34640  0.81750  Biso   1.000  C
  C84      1.0000 0.65360  0.98430  0.81750  Biso   1.000  C
  C85      1.0000 0.68237  0.00263  0.15083  Biso   1.000  C
  C86      1.0000 0.99737  0.67973  0.15083  Biso   1.000  C
  C87      1.0000 0.32027  0.31763  0.15083  Biso   1.000  C
  C88      1.0000 0.34903  0.33597  0.48417  Biso   1.000  C
  C89      1.0000 0.66403  0.01307  0.48417  Biso   1.000  C
  C90      1.0000 0.98693  0.65097  0.48417  Biso   1.000  C
  H55      1.0000 0.01160  0.30220  0.20280  Biso   1.000  H
  H56      1.0000 0.69780  0.70940  0.20280  Biso   1.000  H
  H57      1.0000 0.29060  0.98840  0.20280  Biso   1.000  H
  H58      1.0000 0.67827  0.63553  0.53613  Biso   1.000  H
  H59      1.0000 0.36447  0.04273  0.53613  Biso   1.000  H
  H60      1.0000 0.95727  0.32173  0.53613  Biso   1.000  H
  H61      1.0000 0.34493  0.96887  0.86947  Biso   1.000  H
  H62      1.0000 0.03113  0.37607  0.86947  Biso   1.000  H
  H63      1.0000 0.62393  0.65507  0.86947  Biso   1.000  H
  H64      1.0000 0.98840  0.69780  0.79720  Biso   1.000  H
  H65      1.0000 0.30220  0.29060  0.79720  Biso   1.000  H
  H66      1.0000 0.70940  0.01160  0.79720  Biso   1.000  H
  H67      1.0000 0.65507  0.03113  0.13053  Biso   1.000  H
  H68      1.0000 0.96887  0.62393  0.13053  Biso   1.000  H
  H69      1.0000 0.37607  0.34493  0.13053  Biso   1.000  H
  H70      1.0000 0.32173  0.36447  0.46387  Biso   1.000  H
  H71      1.0000 0.63553  0.95727  0.46387  Biso   1.000  H
  H72      1.0000 0.04273  0.67827  0.46387  Biso   1.000  H
