data_image0
_cell_length_a       18.696
_cell_length_b       18.696
_cell_length_c       10.161
_cell_angle_alpha    90
_cell_angle_beta     90
_cell_angle_gamma    120

_symmetry_space_group_name_H-M    "P 1"
_symmetry_int_tables_number       1

loop_
  _symmetry_equiv_pos_as_xyz
  'x, y, z'

loop_
  _atom_site_label
  _atom_site_occupancy
  _atom_site_fract_x
  _atom_site_fract_y
  _atom_site_fract_z
  _atom_site_thermal_displace_type
  _atom_site_B_iso_or_equiv
  _atom_site_type_symbol
  Tb1      1.0000 0.66670  0.33330  0.33330  Biso   1.000  Tb
  Tb2      1.0000 0.33337  0.66663  0.66663  Biso   1.000  Tb
  Tb3      1.0000 0.00003  0.99997  0.99997  Biso   1.000  Tb
  Tb4      1.0000 0.66670  0.33330  0.83330  Biso   1.000  Tb
  Tb5      1.0000 0.33337  0.66663  0.16663  Biso   1.000  Tb
  Tb6      1.0000 0.00003  0.99997  0.49997  Biso   1.000  Tb
  Cu1      1.0000 0.83330  0.16670  0.16670  Biso   1.000  Cu
  Cu2      1.0000 0.83330  0.66660  0.16670  Biso   1.000  Cu
  Cu3      1.0000 0.33340  0.16670  0.16670  Biso   1.000  Cu
  Cu4      1.0000 0.49997  0.50003  0.50003  Biso   1.000  Cu
  Cu5      1.0000 0.49997  0.99993  0.50003  Biso   1.000  Cu
  Cu6      1.0000 0.00007  0.50003  0.50003  Biso   1.000  Cu
  Cu7      1.0000 0.16663  0.83337  0.83337  Biso   1.000  Cu
  Cu8      1.0000 0.16663  0.33327  0.83337  Biso   1.000  Cu
  Cu9      1.0000 0.66673  0.83337  0.83337  Biso   1.000  Cu
  P1       1.0000 0.73914  0.24548  0.08835  Biso   1.000  P
  P2       1.0000 0.75452  0.49366  0.08835  Biso   1.000  P
  P3       1.0000 0.50634  0.26086  0.08835  Biso   1.000  P
  P4       1.0000 0.40581  0.57881  0.42168  Biso   1.000  P
  P5       1.0000 0.42119  0.82699  0.42168  Biso   1.000  P
  P6       1.0000 0.17301  0.59419  0.42168  Biso   1.000  P
  P7       1.0000 0.07247  0.91215  0.75502  Biso   1.000  P
  P8       1.0000 0.08785  0.16033  0.75502  Biso   1.000  P
  P9       1.0000 0.83967  0.92753  0.75502  Biso   1.000  P
  P10      1.0000 0.26086  0.75452  0.91165  Biso   1.000  P
  P11      1.0000 0.24548  0.50634  0.91165  Biso   1.000  P
  P12      1.0000 0.49366  0.73914  0.91165  Biso   1.000  P
  P13      1.0000 0.92753  0.08785  0.24498  Biso   1.000  P
  P14      1.0000 0.91215  0.83967  0.24498  Biso   1.000  P
  P15      1.0000 0.16033  0.07247  0.24498  Biso   1.000  P
  P16      1.0000 0.59419  0.42119  0.57832  Biso   1.000  P
  P17      1.0000 0.57881  0.17301  0.57832  Biso   1.000  P
  P18      1.0000 0.82699  0.40581  0.57832  Biso   1.000  P
  O1       1.0000 0.82189  0.24902  0.07320  Biso   1.000  O
  O2       1.0000 0.75098  0.57287  0.07320  Biso   1.000  O
  O3       1.0000 0.42713  0.17811  0.07320  Biso   1.000  O
  O4       1.0000 0.48856  0.58235  0.40653  Biso   1.000  O
  O5       1.0000 0.41765  0.90620  0.40653  Biso   1.000  O
  O6       1.0000 0.09380  0.51144  0.40653  Biso   1.000  O
  O7       1.0000 0.15522  0.91569  0.73987  Biso   1.000  O
  O8       1.0000 0.08431  0.23954  0.73987  Biso   1.000  O
  O9       1.0000 0.76046  0.84478  0.73987  Biso   1.000  O
  O10      1.0000 0.17811  0.75098  0.92680  Biso   1.000  O
  O11      1.0000 0.24902  0.42713  0.92680  Biso   1.000  O
  O12      1.0000 0.57287  0.82189  0.92680  Biso   1.000  O
  O13      1.0000 0.84478  0.08431  0.26013  Biso   1.000  O
  O14      1.0000 0.91569  0.76046  0.26013  Biso   1.000  O
  O15      1.0000 0.23954  0.15522  0.26013  Biso   1.000  O
  O16      1.0000 0.51144  0.41765  0.59347  Biso   1.000  O
  O17      1.0000 0.58235  0.09380  0.59347  Biso   1.000  O
  O18      1.0000 0.90620  0.48856  0.59347  Biso   1.000  O
  O19      1.0000 0.73979  0.29653  0.20290  Biso   1.000  O
  O20      1.0000 0.70347  0.44326  0.20290  Biso   1.000  O
  O21      1.0000 0.55674  0.26021  0.20290  Biso   1.000  O
  O22      1.0000 0.40646  0.62986  0.53623  Biso   1.000  O
  O23      1.0000 0.37014  0.77659  0.53623  Biso   1.000  O
  O24      1.0000 0.22341  0.59354  0.53623  Biso   1.000  O
  O25      1.0000 0.07312  0.96320  0.86957  Biso   1.000  O
  O26      1.0000 0.03680  0.10993  0.86957  Biso   1.000  O
  O27      1.0000 0.89007  0.92688  0.86957  Biso   1.000  O
  O28      1.0000 0.26021  0.70347  0.79710  Biso   1.000  O
  O29      1.0000 0.29653  0.55674  0.79710  Biso   1.000  O
  O30      1.0000 0.44326  0.73979  0.79710  Biso   1.000  O
  O31      1.0000 0.92688  0.03680  0.13043  Biso   1.000  O
  O32      1.0000 0.96320  0.89007  0.13043  Biso   1.000  O
  O33      1.0000 0.10993  0.07312  0.13043  Biso   1.000  O
  O34      1.0000 0.59354  0.37014  0.46377  Biso   1.000  O
  O35      1.0000 0.62986  0.22341  0.46377  Biso   1.000  O
  O36      1.0000 0.77659  0.40646  0.46377  Biso   1.000  O
  O37      1.0000 0.70875  0.26187  0.96150  Biso   1.000  O
  O38      1.0000 0.73813  0.44688  0.96150  Biso   1.000  O
  O39      1.0000 0.55312  0.29125  0.96150  Biso   1.000  O
  O40      1.0000 0.37542  0.59520  0.29483  Biso   1.000  O
  O41      1.0000 0.40480  0.78021  0.29483  Biso   1.000  O
  O42      1.0000 0.21979  0.62458  0.29483  Biso   1.000  O
  O43      1.0000 0.04208  0.92854  0.62817  Biso   1.000  O
  O44      1.0000 0.07146  0.11355  0.62817  Biso   1.000  O
  O45      1.0000 0.88645  0.95792  0.62817  Biso   1.000  O
  O46      1.0000 0.29125  0.73813  0.03850  Biso   1.000  O
  O47      1.0000 0.26187  0.55312  0.03850  Biso   1.000  O
  O48      1.0000 0.44688  0.70875  0.03850  Biso   1.000  O
  O49      1.0000 0.95792  0.07146  0.37183  Biso   1.000  O
  O50      1.0000 0.92854  0.88645  0.37183  Biso   1.000  O
  O51      1.0000 0.11355  0.04208  0.37183  Biso   1.000  O
  O52      1.0000 0.62458  0.40480  0.70517  Biso   1.000  O
  O53      1.0000 0.59520  0.21979  0.70517  Biso   1.000  O
  O54      1.0000 0.78021  0.37542  0.70517  Biso   1.000  O
  N1       1.0000 0.71120  0.09670  0.16120  Biso   1.000  N
  N2       1.0000 0.90330  0.61450  0.16120  Biso   1.000  N
  N3       1.0000 0.38550  0.28880  0.16120  Biso   1.000  N
  N4       1.0000 0.37787  0.43003  0.49453  Biso   1.000  N
  N5       1.0000 0.56997  0.94783  0.49453  Biso   1.000  N
  N6       1.0000 0.05217  0.62213  0.49453  Biso   1.000  N
  N7       1.0000 0.04453  0.76337  0.82787  Biso   1.000  N
  N8       1.0000 0.23663  0.28117  0.82787  Biso   1.000  N
  N9       1.0000 0.71883  0.95547  0.82787  Biso   1.000  N
  N10      1.0000 0.28880  0.90330  0.83880  Biso   1.000  N
  N11      1.0000 0.09670  0.38550  0.83880  Biso   1.000  N
  N12      1.0000 0.61450  0.71120  0.83880  Biso   1.000  N
  N13      1.0000 0.95547  0.23663  0.17213  Biso   1.000  N
  N14      1.0000 0.76337  0.71883  0.17213  Biso   1.000  N
  N15      1.0000 0.28117  0.04453  0.17213  Biso   1.000  N
  N16      1.0000 0.62213  0.56997  0.50547  Biso   1.000  N
  N17      1.0000 0.43003  0.05217  0.50547  Biso   1.000  N
  N18      1.0000 0.94783  0.37787  0.50547  Biso   1.000  N
  C1       1.0000 0.67120  0.13750  0.13120  Biso   1.000  C
  C2       1.0000 0.86250  0.53370  0.13120  Biso   1.000  C
  C3       1.0000 0.46630  0.32880  0.13120  Biso   1.000  C
  C4       1.0000 0.33787  0.47083  0.46453  Biso   1.000  C
  C5       1.0000 0.52917  0.86703  0.46453  Biso   1.000  C
  C6       1.0000 0.13297  0.66213  0.46453  Biso   1.000  C
  C7       1.0000 0.00453  0.80417  0.79787  Biso   1.000  C
  C8       1.0000 0.19583  0.20037  0.79787  Biso   1.000  C
  C9       1.0000 0.79963  0.99547  0.79787  Biso   1.000  C
  C10      1.0000 0.32880  0.86250  0.86880  Biso   1.000  C
  C11      1.0000 0.13750  0.46630  0.86880  Biso   1.000  C
  C12      1.0000 0.53370  0.67120  0.86880  Biso   1.000  C
  C13      1.0000 0.99547  0.19583  0.20213  Biso   1.000  C
  C14      1.0000 0.80417  0.79963  0.20213  Biso   1.000  C
  C15      1.0000 0.20037  0.00453  0.20213  Biso   1.000  C
  C16      1.0000 0.66213  0.52917  0.53547  Biso   1.000  C
  C17      1.0000 0.47083  0.13297  0.53547  Biso   1.000  C
  C18      1.0000 0.86703  0.33787  0.53547  Biso   1.000  C
  C19      1.0000 0.58620  0.09630  0.13030  Biso   1.000  C
  C20      1.0000 0.90370  0.48990  0.13030  Biso   1.000  C
  C21      1.0000 0.51010  0.41380  0.13030  Biso   1.000  C
  C22      1.0000 0.25287  0.42963  0.46363  Biso   1.000  C
  C23      1.0000 0.57037  0.82323  0.46363  Biso   1.000  C
  C24      1.0000 0.17677  0.74713  0.46363  Biso   1.000  C
  C25      1.0000 0.91953  0.76297  0.79697  Biso   1.000  C
  C26      1.0000 0.23703  0.15657  0.79697  Biso   1.000  C
  C27      1.0000 0.84343  0.08047  0.79697  Biso   1.000  C
  C28      1.0000 0.41380  0.90370  0.86970  Biso   1.000  C
  C29      1.0000 0.09630  0.51010  0.86970  Biso   1.000  C
  C30      1.0000 0.48990  0.58620  0.86970  Biso   1.000  C
  C31      1.0000 0.08047  0.23703  0.20303  Biso   1.000  C
  C32      1.0000 0.76297  0.84343  0.20303  Biso   1.000  C
  C33      1.0000 0.15657  0.91953  0.20303  Biso   1.000  C
  C34      1.0000 0.74713  0.57037  0.53637  Biso   1.000  C
  C35      1.0000 0.42963  0.17677  0.53637  Biso   1.000  C
  C36      1.0000 0.82323  0.25287  0.53637  Biso   1.000  C
  H1       1.0000 0.55840  0.12520  0.11510  Biso   1.000  H
  H2       1.0000 0.87480  0.43320  0.11510  Biso   1.000  H
  H3       1.0000 0.56680  0.44160  0.11510  Biso   1.000  H
  H4       1.0000 0.22507  0.45853  0.44843  Biso   1.000  H
  H5       1.0000 0.54147  0.76653  0.44843  Biso   1.000  H
  H6       1.0000 0.23347  0.77493  0.44843  Biso   1.000  H
  H7       1.0000 0.89173  0.79187  0.78177  Biso   1.000  H
  H8       1.0000 0.20813  0.09987  0.78177  Biso   1.000  H
  H9       1.0000 0.90013  0.10827  0.78177  Biso   1.000  H
  H10      1.0000 0.44160  0.87480  0.88490  Biso   1.000  H
  H11      1.0000 0.12520  0.56680  0.88490  Biso   1.000  H
  H12      1.0000 0.43320  0.55840  0.88490  Biso   1.000  H
  H13      1.0000 0.10827  0.20813  0.21823  Biso   1.000  H
  H14      1.0000 0.79187  0.90013  0.21823  Biso   1.000  H
  H15      1.0000 0.09987  0.89173  0.21823  Biso   1.000  H
  H16      1.0000 0.77493  0.54147  0.55157  Biso   1.000  H
  H17      1.0000 0.45853  0.23347  0.55157  Biso   1.000  H
  H18      1.0000 0.76653  0.22507  0.55157  Biso   1.000  H
  C37      1.0000 0.54220  0.01220  0.15180  Biso   1.000  C
  C38      1.0000 0.98780  0.53000  0.15180  Biso   1.000  C
  C39      1.0000 0.47000  0.45780  0.15180  Biso   1.000  C
  C40      1.0000 0.20887  0.34553  0.48513  Biso   1.000  C
  C41      1.0000 0.65447  0.86333  0.48513  Biso   1.000  C
  C42      1.0000 0.13667  0.79113  0.48513  Biso   1.000  C
  C43      1.0000 0.87553  0.67887  0.81847  Biso   1.000  C
  C44      1.0000 0.32113  0.19667  0.81847  Biso   1.000  C
  C45      1.0000 0.80333  0.12447  0.81847  Biso   1.000  C
  C46      1.0000 0.45780  0.98780  0.84820  Biso   1.000  C
  C47      1.0000 0.01220  0.47000  0.84820  Biso   1.000  C
  C48      1.0000 0.53000  0.54220  0.84820  Biso   1.000  C
  C49      1.0000 0.12447  0.32113  0.18153  Biso   1.000  C
  C50      1.0000 0.67887  0.80333  0.18153  Biso   1.000  C
  C51      1.0000 0.19667  0.87553  0.18153  Biso   1.000  C
  C52      1.0000 0.79113  0.65447  0.51487  Biso   1.000  C
  C53      1.0000 0.34553  0.13667  0.51487  Biso   1.000  C
  C54      1.0000 0.86333  0.20887  0.51487  Biso   1.000  C
  H19      1.0000 0.48480  0.98380  0.15020  Biso   1.000  H
  H20      1.0000 0.01620  0.50100  0.15020  Biso   1.000  H
  H21      1.0000 0.49900  0.51520  0.15020  Biso   1.000  H
  H22      1.0000 0.15147  0.31713  0.48353  Biso   1.000  H
  H23      1.0000 0.68287  0.83433  0.48353  Biso   1.000  H
  H24      1.0000 0.16567  0.84853  0.48353  Biso   1.000  H
  H25      1.0000 0.81813  0.65047  0.81687  Biso   1.000  H
  H26      1.0000 0.34953  0.16767  0.81687  Biso   1.000  H
  H27      1.0000 0.83233  0.18187  0.81687  Biso   1.000  H
  H28      1.0000 0.51520  0.01620  0.84980  Biso   1.000  H
  H29      1.0000 0.98380  0.49900  0.84980  Biso   1.000  H
  H30      1.0000 0.50100  0.48480  0.84980  Biso   1.000  H
  H31      1.0000 0.18187  0.34953  0.18313  Biso   1.000  H
  H32      1.0000 0.65047  0.83233  0.18313  Biso   1.000  H
  H33      1.0000 0.16767  0.81813  0.18313  Biso   1.000  H
  H34      1.0000 0.84853  0.68287  0.51647  Biso   1.000  H
  H35      1.0000 0.31713  0.16567  0.51647  Biso   1.000  H
  H36      1.0000 0.83433  0.15147  0.51647  Biso   1.000  H
  C55      1.0000 0.58480  0.97120  0.17570  Biso   1.000  C
  C56      1.0000 0.02880  0.61360  0.17570  Biso   1.000  C
  C57      1.0000 0.38640  0.41520  0.17570  Biso   1.000  C
  C58      1.0000 0.25147  0.30453  0.50903  Biso   1.000  C
  C59      1.0000 0.69547  0.94693  0.50903  Biso   1.000  C
  C60      1.0000 0.05307  0.74853  0.50903  Biso   1.000  C
  C61      1.0000 0.91813  0.63787  0.84237  Biso   1.000  C
  C62      1.0000 0.36213  0.28027  0.84237  Biso   1.000  C
  C63      1.0000 0.71973  0.08187  0.84237  Biso   1.000  C
  C64      1.0000 0.41520  0.02880  0.82430  Biso   1.000  C
  C65      1.0000 0.97120  0.38640  0.82430  Biso   1.000  C
  C66      1.0000 0.61360  0.58480  0.82430  Biso   1.000  C
  C67      1.0000 0.08187  0.36213  0.15763  Biso   1.000  C
  C68      1.0000 0.63787  0.71973  0.15763  Biso   1.000  C
  C69      1.0000 0.28027  0.91813  0.15763  Biso   1.000  C
  C70      1.0000 0.74853  0.69547  0.49097  Biso   1.000  C
  C71      1.0000 0.30453  0.05307  0.49097  Biso   1.000  C
  C72      1.0000 0.94693  0.25147  0.49097  Biso   1.000  C
  H37      1.0000 0.55660  0.91420  0.18730  Biso   1.000  H
  H38      1.0000 0.08580  0.64240  0.18730  Biso   1.000  H
  H39      1.0000 0.35760  0.44340  0.18730  Biso   1.000  H
  H40      1.0000 0.22327  0.24753  0.52063  Biso   1.000  H
  H41      1.0000 0.75247  0.97573  0.52063  Biso   1.000  H
  H42      1.0000 0.02427  0.77673  0.52063  Biso   1.000  H
  H43      1.0000 0.88993  0.58087  0.85397  Biso   1.000  H
  H44      1.0000 0.41913  0.30907  0.85397  Biso   1.000  H
  H45      1.0000 0.69093  0.11007  0.85397  Biso   1.000  H
  H46      1.0000 0.44340  0.08580  0.81270  Biso   1.000  H
  H47      1.0000 0.91420  0.35760  0.81270  Biso   1.000  H
  H48      1.0000 0.64240  0.55660  0.81270  Biso   1.000  H
  H49      1.0000 0.11007  0.41913  0.14603  Biso   1.000  H
  H50      1.0000 0.58087  0.69093  0.14603  Biso   1.000  H
  H51      1.0000 0.30907  0.88993  0.14603  Biso   1.000  H
  H52      1.0000 0.77673  0.75247  0.47937  Biso   1.000  H
  H53      1.0000 0.24753  0.02427  0.47937  Biso   1.000  H
  H54      1.0000 0.97573  0.22327  0.47937  Biso   1.000  H
  C73      1.0000 0.66930  0.01540  0.18200  Biso   1.000  C
  C74      1.0000 0.98460  0.65390  0.18200  Biso   1.000  C
  C75      1.0000 0.34610  0.33070  0.18200  Biso   1.000  C
  C76      1.0000 0.33597  0.34873  0.51533  Biso   1.000  C
  C77      1.0000 0.65127  0.98723  0.51533  Biso   1.000  C
  C78      1.0000 0.01277  0.66403  0.51533  Biso   1.000  C
  C79      1.0000 0.00263  0.68207  0.84867  Biso   1.000  C
  C80      1.0000 0.31793  0.32057  0.84867  Biso   1.000  C
  C81      1.0000 0.67943  0.99737  0.84867  Biso   1.000  C
  C82      1.0000 0.33070  0.98460  0.81800  Biso   1.000  C
  C83      1.0000 0.01540  0.34610  0.81800  Biso   1.000  C
  C84      1.0000 0.65390  0.66930  0.81800  Biso   1.000  C
  C85      1.0000 0.99737  0.31793  0.15133  Biso   1.000  C
  C86      1.0000 0.68207  0.67943  0.15133  Biso   1.000  C
  C87      1.0000 0.32057  0.00263  0.15133  Biso   1.000  C
  C88      1.0000 0.66403  0.65127  0.48467  Biso   1.000  C
  C89      1.0000 0.34873  0.01277  0.48467  Biso   1.000  C
  C90      1.0000 0.98723  0.33597  0.48467  Biso   1.000  C
  H55      1.0000 0.69810  0.98810  0.20130  Biso   1.000  H
  H56      1.0000 0.01190  0.71000  0.20130  Biso   1.000  H
  H57      1.0000 0.29000  0.30190  0.20130  Biso   1.000  H
  H58      1.0000 0.36477  0.32143  0.53463  Biso   1.000  H
  H59      1.0000 0.67857  0.04333  0.53463  Biso   1.000  H
  H60      1.0000 0.95667  0.63523  0.53463  Biso   1.000  H
  H61      1.0000 0.03143  0.65477  0.86797  Biso   1.000  H
  H62      1.0000 0.34523  0.37667  0.86797  Biso   1.000  H
  H63      1.0000 0.62333  0.96857  0.86797  Biso   1.000  H
  H64      1.0000 0.30190  0.01190  0.79870  Biso   1.000  H
  H65      1.0000 0.98810  0.29000  0.79870  Biso   1.000  H
  H66      1.0000 0.71000  0.69810  0.79870  Biso   1.000  H
  H67      1.0000 0.96857  0.34523  0.13203  Biso   1.000  H
  H68      1.0000 0.65477  0.62333  0.13203  Biso   1.000  H
  H69      1.0000 0.37667  0.03143  0.13203  Biso   1.000  H
  H70      1.0000 0.63523  0.67857  0.46537  Biso   1.000  H
  H71      1.0000 0.32143  0.95667  0.46537  Biso   1.000  H
  H72      1.0000 0.04333  0.36477  0.46537  Biso   1.000  H
