data_image0
_cell_length_a       18.744
_cell_length_b       18.744
_cell_length_c       10.242
_cell_angle_alpha    90
_cell_angle_beta     90
_cell_angle_gamma    120

_symmetry_space_group_name_H-M    "P 1"
_symmetry_int_tables_number       1

loop_
  _symmetry_equiv_pos_as_xyz
  'x, y, z'

loop_
  _atom_site_label
  _atom_site_occupancy
  _atom_site_fract_x
  _atom_site_fract_y
  _atom_site_fract_z
  _atom_site_thermal_displace_type
  _atom_site_B_iso_or_equiv
  _atom_site_type_symbol
  Sm1      1.0000 0.66670  0.33330  0.83330  Biso   1.000  Sm
  Sm2      1.0000 0.33337  0.66663  0.16663  Biso   1.000  Sm
  Sm3      1.0000 0.00003  0.99997  0.49997  Biso   1.000  Sm
  Sm4      1.0000 0.66670  0.33330  0.33330  Biso   1.000  Sm
  Sm5      1.0000 0.33337  0.66663  0.66663  Biso   1.000  Sm
  Sm6      1.0000 0.00003  0.99997  0.99997  Biso   1.000  Sm
  Cu1      1.0000 0.83330  0.16670  0.16670  Biso   1.000  Cu
  Cu2      1.0000 0.83330  0.66660  0.16670  Biso   1.000  Cu
  Cu3      1.0000 0.33340  0.16670  0.16670  Biso   1.000  Cu
  Cu4      1.0000 0.49997  0.50003  0.50003  Biso   1.000  Cu
  Cu5      1.0000 0.49997  0.99993  0.50003  Biso   1.000  Cu
  Cu6      1.0000 0.00007  0.50003  0.50003  Biso   1.000  Cu
  Cu7      1.0000 0.16663  0.83337  0.83337  Biso   1.000  Cu
  Cu8      1.0000 0.16663  0.33327  0.83337  Biso   1.000  Cu
  Cu9      1.0000 0.66673  0.83337  0.83337  Biso   1.000  Cu
  P1       1.0000 0.73979  0.24508  0.08790  Biso   1.000  P
  P2       1.0000 0.75492  0.49471  0.08790  Biso   1.000  P
  P3       1.0000 0.50529  0.26021  0.08790  Biso   1.000  P
  P4       1.0000 0.40646  0.57841  0.42123  Biso   1.000  P
  P5       1.0000 0.42159  0.82804  0.42123  Biso   1.000  P
  P6       1.0000 0.17196  0.59354  0.42123  Biso   1.000  P
  P7       1.0000 0.07312  0.91175  0.75457  Biso   1.000  P
  P8       1.0000 0.08825  0.16138  0.75457  Biso   1.000  P
  P9       1.0000 0.83862  0.92688  0.75457  Biso   1.000  P
  P10      1.0000 0.26021  0.75492  0.91210  Biso   1.000  P
  P11      1.0000 0.24508  0.50529  0.91210  Biso   1.000  P
  P12      1.0000 0.49471  0.73979  0.91210  Biso   1.000  P
  P13      1.0000 0.92688  0.08825  0.24543  Biso   1.000  P
  P14      1.0000 0.91175  0.83862  0.24543  Biso   1.000  P
  P15      1.0000 0.16138  0.07312  0.24543  Biso   1.000  P
  P16      1.0000 0.59354  0.42159  0.57877  Biso   1.000  P
  P17      1.0000 0.57841  0.17196  0.57877  Biso   1.000  P
  P18      1.0000 0.82804  0.40646  0.57877  Biso   1.000  P
  O1       1.0000 0.82193  0.24819  0.07350  Biso   1.000  O
  O2       1.0000 0.75181  0.57374  0.07350  Biso   1.000  O
  O3       1.0000 0.42626  0.17807  0.07350  Biso   1.000  O
  O4       1.0000 0.48860  0.58152  0.40683  Biso   1.000  O
  O5       1.0000 0.41848  0.90707  0.40683  Biso   1.000  O
  O6       1.0000 0.09293  0.51140  0.40683  Biso   1.000  O
  O7       1.0000 0.15526  0.91486  0.74017  Biso   1.000  O
  O8       1.0000 0.08514  0.24041  0.74017  Biso   1.000  O
  O9       1.0000 0.75959  0.84474  0.74017  Biso   1.000  O
  O10      1.0000 0.17807  0.75181  0.92650  Biso   1.000  O
  O11      1.0000 0.24819  0.42626  0.92650  Biso   1.000  O
  O12      1.0000 0.57374  0.82193  0.92650  Biso   1.000  O
  O13      1.0000 0.84474  0.08514  0.25983  Biso   1.000  O
  O14      1.0000 0.91486  0.75959  0.25983  Biso   1.000  O
  O15      1.0000 0.24041  0.15526  0.25983  Biso   1.000  O
  O16      1.0000 0.51140  0.41848  0.59317  Biso   1.000  O
  O17      1.0000 0.58152  0.09293  0.59317  Biso   1.000  O
  O18      1.0000 0.90707  0.48860  0.59317  Biso   1.000  O
  O19      1.0000 0.74002  0.29585  0.20090  Biso   1.000  O
  O20      1.0000 0.70415  0.44417  0.20090  Biso   1.000  O
  O21      1.0000 0.55583  0.25998  0.20090  Biso   1.000  O
  O22      1.0000 0.40669  0.62918  0.53423  Biso   1.000  O
  O23      1.0000 0.37082  0.77750  0.53423  Biso   1.000  O
  O24      1.0000 0.22250  0.59331  0.53423  Biso   1.000  O
  O25      1.0000 0.07335  0.96252  0.86757  Biso   1.000  O
  O26      1.0000 0.03748  0.11084  0.86757  Biso   1.000  O
  O27      1.0000 0.88916  0.92665  0.86757  Biso   1.000  O
  O28      1.0000 0.25998  0.70415  0.79910  Biso   1.000  O
  O29      1.0000 0.29585  0.55583  0.79910  Biso   1.000  O
  O30      1.0000 0.44417  0.74002  0.79910  Biso   1.000  O
  O31      1.0000 0.92665  0.03748  0.13243  Biso   1.000  O
  O32      1.0000 0.96252  0.88916  0.13243  Biso   1.000  O
  O33      1.0000 0.11084  0.07335  0.13243  Biso   1.000  O
  O34      1.0000 0.59331  0.37082  0.46577  Biso   1.000  O
  O35      1.0000 0.62918  0.22250  0.46577  Biso   1.000  O
  O36      1.0000 0.77750  0.40669  0.46577  Biso   1.000  O
  O37      1.0000 0.70962  0.26103  0.96210  Biso   1.000  O
  O38      1.0000 0.73897  0.44859  0.96210  Biso   1.000  O
  O39      1.0000 0.55141  0.29038  0.96210  Biso   1.000  O
  O40      1.0000 0.37629  0.59436  0.29543  Biso   1.000  O
  O41      1.0000 0.40564  0.78192  0.29543  Biso   1.000  O
  O42      1.0000 0.21808  0.62371  0.29543  Biso   1.000  O
  O43      1.0000 0.04295  0.92770  0.62877  Biso   1.000  O
  O44      1.0000 0.07230  0.11526  0.62877  Biso   1.000  O
  O45      1.0000 0.88474  0.95705  0.62877  Biso   1.000  O
  O46      1.0000 0.29038  0.73897  0.03790  Biso   1.000  O
  O47      1.0000 0.26103  0.55141  0.03790  Biso   1.000  O
  O48      1.0000 0.44859  0.70962  0.03790  Biso   1.000  O
  O49      1.0000 0.95705  0.07230  0.37123  Biso   1.000  O
  O50      1.0000 0.92770  0.88474  0.37123  Biso   1.000  O
  O51      1.0000 0.11526  0.04295  0.37123  Biso   1.000  O
  O52      1.0000 0.62371  0.40564  0.70457  Biso   1.000  O
  O53      1.0000 0.59436  0.21808  0.70457  Biso   1.000  O
  O54      1.0000 0.78192  0.37629  0.70457  Biso   1.000  O
  N1       1.0000 0.71193  0.09717  0.16130  Biso   1.000  N
  N2       1.0000 0.90283  0.61476  0.16130  Biso   1.000  N
  N3       1.0000 0.38524  0.28807  0.16130  Biso   1.000  N
  N4       1.0000 0.37860  0.43050  0.49463  Biso   1.000  N
  N5       1.0000 0.56950  0.94809  0.49463  Biso   1.000  N
  N6       1.0000 0.05191  0.62140  0.49463  Biso   1.000  N
  N7       1.0000 0.04526  0.76384  0.82797  Biso   1.000  N
  N8       1.0000 0.23616  0.28143  0.82797  Biso   1.000  N
  N9       1.0000 0.71857  0.95474  0.82797  Biso   1.000  N
  N10      1.0000 0.28807  0.90283  0.83870  Biso   1.000  N
  N11      1.0000 0.09717  0.38524  0.83870  Biso   1.000  N
  N12      1.0000 0.61476  0.71193  0.83870  Biso   1.000  N
  N13      1.0000 0.95474  0.23616  0.17203  Biso   1.000  N
  N14      1.0000 0.76384  0.71857  0.17203  Biso   1.000  N
  N15      1.0000 0.28143  0.04526  0.17203  Biso   1.000  N
  N16      1.0000 0.62140  0.56950  0.50537  Biso   1.000  N
  N17      1.0000 0.43050  0.05191  0.50537  Biso   1.000  N
  N18      1.0000 0.94809  0.37860  0.50537  Biso   1.000  N
  C1       1.0000 0.67190  0.13730  0.13010  Biso   1.000  C
  C2       1.0000 0.86270  0.53460  0.13010  Biso   1.000  C
  C3       1.0000 0.46540  0.32810  0.13010  Biso   1.000  C
  C4       1.0000 0.33857  0.47063  0.46343  Biso   1.000  C
  C5       1.0000 0.52937  0.86793  0.46343  Biso   1.000  C
  C6       1.0000 0.13207  0.66143  0.46343  Biso   1.000  C
  C7       1.0000 0.00523  0.80397  0.79677  Biso   1.000  C
  C8       1.0000 0.19603  0.20127  0.79677  Biso   1.000  C
  C9       1.0000 0.79873  0.99477  0.79677  Biso   1.000  C
  C10      1.0000 0.32810  0.86270  0.86990  Biso   1.000  C
  C11      1.0000 0.13730  0.46540  0.86990  Biso   1.000  C
  C12      1.0000 0.53460  0.67190  0.86990  Biso   1.000  C
  C13      1.0000 0.99477  0.19603  0.20323  Biso   1.000  C
  C14      1.0000 0.80397  0.79873  0.20323  Biso   1.000  C
  C15      1.0000 0.20127  0.00523  0.20323  Biso   1.000  C
  C16      1.0000 0.66143  0.52937  0.53657  Biso   1.000  C
  C17      1.0000 0.47063  0.13207  0.53657  Biso   1.000  C
  C18      1.0000 0.86793  0.33857  0.53657  Biso   1.000  C
  C19      1.0000 0.58680  0.09610  0.12820  Biso   1.000  C
  C20      1.0000 0.90390  0.49070  0.12820  Biso   1.000  C
  C21      1.0000 0.50930  0.41320  0.12820  Biso   1.000  C
  C22      1.0000 0.25347  0.42943  0.46153  Biso   1.000  C
  C23      1.0000 0.57057  0.82403  0.46153  Biso   1.000  C
  C24      1.0000 0.17597  0.74653  0.46153  Biso   1.000  C
  C25      1.0000 0.92013  0.76277  0.79487  Biso   1.000  C
  C26      1.0000 0.23723  0.15737  0.79487  Biso   1.000  C
  C27      1.0000 0.84263  0.07987  0.79487  Biso   1.000  C
  C28      1.0000 0.41320  0.90390  0.87180  Biso   1.000  C
  C29      1.0000 0.09610  0.50930  0.87180  Biso   1.000  C
  C30      1.0000 0.49070  0.58680  0.87180  Biso   1.000  C
  C31      1.0000 0.07987  0.23723  0.20513  Biso   1.000  C
  C32      1.0000 0.76277  0.84263  0.20513  Biso   1.000  C
  C33      1.0000 0.15737  0.92013  0.20513  Biso   1.000  C
  C34      1.0000 0.74653  0.57057  0.53847  Biso   1.000  C
  C35      1.0000 0.42943  0.17597  0.53847  Biso   1.000  C
  C36      1.0000 0.82403  0.25347  0.53847  Biso   1.000  C
  H1       1.0000 0.55900  0.12450  0.11090  Biso   1.000  H
  H2       1.0000 0.87550  0.43450  0.11090  Biso   1.000  H
  H3       1.0000 0.56550  0.44100  0.11090  Biso   1.000  H
  H4       1.0000 0.22567  0.45783  0.44423  Biso   1.000  H
  H5       1.0000 0.54217  0.76783  0.44423  Biso   1.000  H
  H6       1.0000 0.23217  0.77433  0.44423  Biso   1.000  H
  H7       1.0000 0.89233  0.79117  0.77757  Biso   1.000  H
  H8       1.0000 0.20883  0.10117  0.77757  Biso   1.000  H
  H9       1.0000 0.89883  0.10767  0.77757  Biso   1.000  H
  H10      1.0000 0.44100  0.87550  0.88910  Biso   1.000  H
  H11      1.0000 0.12450  0.56550  0.88910  Biso   1.000  H
  H12      1.0000 0.43450  0.55900  0.88910  Biso   1.000  H
  H13      1.0000 0.10767  0.20883  0.22243  Biso   1.000  H
  H14      1.0000 0.79117  0.89883  0.22243  Biso   1.000  H
  H15      1.0000 0.10117  0.89233  0.22243  Biso   1.000  H
  H16      1.0000 0.77433  0.54217  0.55577  Biso   1.000  H
  H17      1.0000 0.45783  0.23217  0.55577  Biso   1.000  H
  H18      1.0000 0.76783  0.22567  0.55577  Biso   1.000  H
  C37      1.0000 0.54360  0.01260  0.15200  Biso   1.000  C
  C38      1.0000 0.98740  0.53100  0.15200  Biso   1.000  C
  C39      1.0000 0.46900  0.45640  0.15200  Biso   1.000  C
  C40      1.0000 0.21027  0.34593  0.48533  Biso   1.000  C
  C41      1.0000 0.65407  0.86433  0.48533  Biso   1.000  C
  C42      1.0000 0.13567  0.78973  0.48533  Biso   1.000  C
  C43      1.0000 0.87693  0.67927  0.81867  Biso   1.000  C
  C44      1.0000 0.32073  0.19767  0.81867  Biso   1.000  C
  C45      1.0000 0.80233  0.12307  0.81867  Biso   1.000  C
  C46      1.0000 0.45640  0.98740  0.84800  Biso   1.000  C
  C47      1.0000 0.01260  0.46900  0.84800  Biso   1.000  C
  C48      1.0000 0.53100  0.54360  0.84800  Biso   1.000  C
  C49      1.0000 0.12307  0.32073  0.18133  Biso   1.000  C
  C50      1.0000 0.67927  0.80233  0.18133  Biso   1.000  C
  C51      1.0000 0.19767  0.87693  0.18133  Biso   1.000  C
  C52      1.0000 0.78973  0.65407  0.51467  Biso   1.000  C
  C53      1.0000 0.34593  0.13567  0.51467  Biso   1.000  C
  C54      1.0000 0.86433  0.21027  0.51467  Biso   1.000  C
  H19      1.0000 0.48630  0.98420  0.15180  Biso   1.000  H
  H20      1.0000 0.01580  0.50210  0.15180  Biso   1.000  H
  H21      1.0000 0.49790  0.51370  0.15180  Biso   1.000  H
  H22      1.0000 0.15297  0.31753  0.48513  Biso   1.000  H
  H23      1.0000 0.68247  0.83543  0.48513  Biso   1.000  H
  H24      1.0000 0.16457  0.84703  0.48513  Biso   1.000  H
  H25      1.0000 0.81963  0.65087  0.81847  Biso   1.000  H
  H26      1.0000 0.34913  0.16877  0.81847  Biso   1.000  H
  H27      1.0000 0.83123  0.18037  0.81847  Biso   1.000  H
  H28      1.0000 0.51370  0.01580  0.84820  Biso   1.000  H
  H29      1.0000 0.98420  0.49790  0.84820  Biso   1.000  H
  H30      1.0000 0.50210  0.48630  0.84820  Biso   1.000  H
  H31      1.0000 0.18037  0.34913  0.18153  Biso   1.000  H
  H32      1.0000 0.65087  0.83123  0.18153  Biso   1.000  H
  H33      1.0000 0.16877  0.81963  0.18153  Biso   1.000  H
  H34      1.0000 0.84703  0.68247  0.51487  Biso   1.000  H
  H35      1.0000 0.31753  0.16457  0.51487  Biso   1.000  H
  H36      1.0000 0.83543  0.15297  0.51487  Biso   1.000  H
  C55      1.0000 0.58580  0.97190  0.17600  Biso   1.000  C
  C56      1.0000 0.02810  0.61390  0.17600  Biso   1.000  C
  C57      1.0000 0.38610  0.41420  0.17600  Biso   1.000  C
  C58      1.0000 0.25247  0.30523  0.50933  Biso   1.000  C
  C59      1.0000 0.69477  0.94723  0.50933  Biso   1.000  C
  C60      1.0000 0.05277  0.74753  0.50933  Biso   1.000  C
  C61      1.0000 0.91913  0.63857  0.84267  Biso   1.000  C
  C62      1.0000 0.36143  0.28057  0.84267  Biso   1.000  C
  C63      1.0000 0.71943  0.08087  0.84267  Biso   1.000  C
  C64      1.0000 0.41420  0.02810  0.82400  Biso   1.000  C
  C65      1.0000 0.97190  0.38610  0.82400  Biso   1.000  C
  C66      1.0000 0.61390  0.58580  0.82400  Biso   1.000  C
  C67      1.0000 0.08087  0.36143  0.15733  Biso   1.000  C
  C68      1.0000 0.63857  0.71943  0.15733  Biso   1.000  C
  C69      1.0000 0.28057  0.91913  0.15733  Biso   1.000  C
  C70      1.0000 0.74753  0.69477  0.49067  Biso   1.000  C
  C71      1.0000 0.30523  0.05277  0.49067  Biso   1.000  C
  C72      1.0000 0.94723  0.25247  0.49067  Biso   1.000  C
  H37      1.0000 0.55780  0.91500  0.18690  Biso   1.000  H
  H38      1.0000 0.08500  0.64280  0.18690  Biso   1.000  H
  H39      1.0000 0.35720  0.44220  0.18690  Biso   1.000  H
  H40      1.0000 0.22447  0.24833  0.52023  Biso   1.000  H
  H41      1.0000 0.75167  0.97613  0.52023  Biso   1.000  H
  H42      1.0000 0.02387  0.77553  0.52023  Biso   1.000  H
  H43      1.0000 0.89113  0.58167  0.85357  Biso   1.000  H
  H44      1.0000 0.41833  0.30947  0.85357  Biso   1.000  H
  H45      1.0000 0.69053  0.10887  0.85357  Biso   1.000  H
  H46      1.0000 0.44220  0.08500  0.81310  Biso   1.000  H
  H47      1.0000 0.91500  0.35720  0.81310  Biso   1.000  H
  H48      1.0000 0.64280  0.55780  0.81310  Biso   1.000  H
  H49      1.0000 0.10887  0.41833  0.14643  Biso   1.000  H
  H50      1.0000 0.58167  0.69053  0.14643  Biso   1.000  H
  H51      1.0000 0.30947  0.89113  0.14643  Biso   1.000  H
  H52      1.0000 0.77553  0.75167  0.47977  Biso   1.000  H
  H53      1.0000 0.24833  0.02387  0.47977  Biso   1.000  H
  H54      1.0000 0.97613  0.22447  0.47977  Biso   1.000  H
  C73      1.0000 0.66950  0.01610  0.18370  Biso   1.000  C
  C74      1.0000 0.98390  0.65340  0.18370  Biso   1.000  C
  C75      1.0000 0.34660  0.33050  0.18370  Biso   1.000  C
  C76      1.0000 0.33617  0.34943  0.51703  Biso   1.000  C
  C77      1.0000 0.65057  0.98673  0.51703  Biso   1.000  C
  C78      1.0000 0.01327  0.66383  0.51703  Biso   1.000  C
  C79      1.0000 0.00283  0.68277  0.85037  Biso   1.000  C
  C80      1.0000 0.31723  0.32007  0.85037  Biso   1.000  C
  C81      1.0000 0.67993  0.99717  0.85037  Biso   1.000  C
  C82      1.0000 0.33050  0.98390  0.81630  Biso   1.000  C
  C83      1.0000 0.01610  0.34660  0.81630  Biso   1.000  C
  C84      1.0000 0.65340  0.66950  0.81630  Biso   1.000  C
  C85      1.0000 0.99717  0.31723  0.14963  Biso   1.000  C
  C86      1.0000 0.68277  0.67993  0.14963  Biso   1.000  C
  C87      1.0000 0.32007  0.00283  0.14963  Biso   1.000  C
  C88      1.0000 0.66383  0.65057  0.48297  Biso   1.000  C
  C89      1.0000 0.34943  0.01327  0.48297  Biso   1.000  C
  C90      1.0000 0.98673  0.33617  0.48297  Biso   1.000  C
  H55      1.0000 0.69800  0.98900  0.20530  Biso   1.000  H
  H56      1.0000 0.01100  0.70900  0.20530  Biso   1.000  H
  H57      1.0000 0.29100  0.30200  0.20530  Biso   1.000  H
  H58      1.0000 0.36467  0.32233  0.53863  Biso   1.000  H
  H59      1.0000 0.67767  0.04233  0.53863  Biso   1.000  H
  H60      1.0000 0.95767  0.63533  0.53863  Biso   1.000  H
  H61      1.0000 0.03133  0.65567  0.87197  Biso   1.000  H
  H62      1.0000 0.34433  0.37567  0.87197  Biso   1.000  H
  H63      1.0000 0.62433  0.96867  0.87197  Biso   1.000  H
  H64      1.0000 0.30200  0.01100  0.79470  Biso   1.000  H
  H65      1.0000 0.98900  0.29100  0.79470  Biso   1.000  H
  H66      1.0000 0.70900  0.69800  0.79470  Biso   1.000  H
  H67      1.0000 0.96867  0.34433  0.12803  Biso   1.000  H
  H68      1.0000 0.65567  0.62433  0.12803  Biso   1.000  H
  H69      1.0000 0.37567  0.03133  0.12803  Biso   1.000  H
  H70      1.0000 0.63533  0.67767  0.46137  Biso   1.000  H
  H71      1.0000 0.32233  0.95767  0.46137  Biso   1.000  H
  H72      1.0000 0.04233  0.36467  0.46137  Biso   1.000  H
