data_image0
_cell_length_a       8.146
_cell_length_b       19.807
_cell_length_c       8.246
_cell_angle_alpha    90
_cell_angle_beta     114.82
_cell_angle_gamma    90

_symmetry_space_group_name_H-M    "P 1"
_symmetry_int_tables_number       1

loop_
  _symmetry_equiv_pos_as_xyz
  'x, y, z'

loop_
  _atom_site_label
  _atom_site_occupancy
  _atom_site_fract_x
  _atom_site_fract_y
  _atom_site_fract_z
  _atom_site_thermal_displace_type
  _atom_site_B_iso_or_equiv
  _atom_site_type_symbol
  Cu1      1.0000 0.29946  0.36978  0.39906  Biso   1.000  Cu
  Cu2      1.0000 0.70054  0.86978  0.10094  Biso   1.000  Cu
  Cu3      1.0000 0.70054  0.63022  0.60094  Biso   1.000  Cu
  Cu4      1.0000 0.29946  0.13022  0.89906  Biso   1.000  Cu
  C1       1.0000 0.11140  0.30490  0.58000  Biso   1.000  C
  C2       1.0000 0.88860  0.80490  0.92000  Biso   1.000  C
  C3       1.0000 0.88860  0.69510  0.42000  Biso   1.000  C
  C4       1.0000 0.11140  0.19510  0.08000  Biso   1.000  C
  C5       1.0000 0.81280  0.29260  0.48660  Biso   1.000  C
  C6       1.0000 0.18720  0.79260  0.01340  Biso   1.000  C
  C7       1.0000 0.18720  0.70740  0.51340  Biso   1.000  C
  C8       1.0000 0.81280  0.20740  0.98660  Biso   1.000  C
  H1       1.0000 0.71390  0.27800  0.50570  Biso   1.000  H
  H2       1.0000 0.28610  0.77800  0.99430  Biso   1.000  H
  H3       1.0000 0.28610  0.72200  0.49430  Biso   1.000  H
  H4       1.0000 0.71390  0.22200  0.00570  Biso   1.000  H
  C9       1.0000 0.78050  0.32310  0.32730  Biso   1.000  C
  C10      1.0000 0.21950  0.82310  0.17270  Biso   1.000  C
  C11      1.0000 0.21950  0.67690  0.67270  Biso   1.000  C
  C12      1.0000 0.78050  0.17690  0.82730  Biso   1.000  C
  H5       1.0000 0.66360  0.32820  0.23920  Biso   1.000  H
  H6       1.0000 0.33640  0.82820  0.26080  Biso   1.000  H
  H7       1.0000 0.33640  0.67180  0.76080  Biso   1.000  H
  H8       1.0000 0.66360  0.17180  0.73920  Biso   1.000  H
  C13      1.0000 0.92930  0.34620  0.30220  Biso   1.000  C
  C14      1.0000 0.07070  0.84620  0.19780  Biso   1.000  C
  C15      1.0000 0.07070  0.65380  0.69780  Biso   1.000  C
  C16      1.0000 0.92930  0.15380  0.80220  Biso   1.000  C
  C17      1.0000 0.93120  0.37870  0.14620  Biso   1.000  C
  C18      1.0000 0.06880  0.87870  0.35380  Biso   1.000  C
  C19      1.0000 0.06880  0.62130  0.85380  Biso   1.000  C
  C20      1.0000 0.93120  0.12130  0.64620  Biso   1.000  C
  C21      1.0000 0.78010  0.39230  0.99140  Biso   1.000  C
  C22      1.0000 0.21990  0.89230  0.50860  Biso   1.000  C
  C23      1.0000 0.21990  0.60770  0.00860  Biso   1.000  C
  C24      1.0000 0.78010  0.10770  0.49140  Biso   1.000  C
  H9       1.0000 0.66490  0.38400  0.98420  Biso   1.000  H
  H10      1.0000 0.33510  0.88400  0.51580  Biso   1.000  H
  H11      1.0000 0.33510  0.61600  0.01580  Biso   1.000  H
  H12      1.0000 0.66490  0.11600  0.48420  Biso   1.000  H
  C25      1.0000 0.80300  0.41830  0.84840  Biso   1.000  C
  C26      1.0000 0.19700  0.91830  0.65160  Biso   1.000  C
  C27      1.0000 0.19700  0.58170  0.15160  Biso   1.000  C
  C28      1.0000 0.80300  0.08170  0.34840  Biso   1.000  C
  H13      1.0000 0.70230  0.42810  0.74330  Biso   1.000  H
  H14      1.0000 0.29770  0.92810  0.75670  Biso   1.000  H
  H15      1.0000 0.29770  0.57190  0.25670  Biso   1.000  H
  H16      1.0000 0.70230  0.07190  0.24330  Biso   1.000  H
  C29      1.0000 0.97120  0.42980  0.85850  Biso   1.000  C
  C30      1.0000 0.02880  0.92980  0.64150  Biso   1.000  C
  C31      1.0000 0.02880  0.57020  0.14150  Biso   1.000  C
  C32      1.0000 0.97120  0.07020  0.35850  Biso   1.000  C
  H17      1.0000 0.98780  0.44590  0.76050  Biso   1.000  H
  H18      1.0000 0.01220  0.94590  0.73950  Biso   1.000  H
  H19      1.0000 0.01220  0.55410  0.23950  Biso   1.000  H
  H20      1.0000 0.98780  0.05410  0.26050  Biso   1.000  H
  C33      1.0000 0.11900  0.41670  0.02110  Biso   1.000  C
  C34      1.0000 0.88100  0.91670  0.47890  Biso   1.000  C
  C35      1.0000 0.88100  0.58330  0.97890  Biso   1.000  C
  C36      1.0000 0.11900  0.08330  0.52110  Biso   1.000  C
  H21      1.0000 0.23510  0.42540  0.03100  Biso   1.000  H
  H22      1.0000 0.76490  0.92540  0.46900  Biso   1.000  H
  H23      1.0000 0.76490  0.57460  0.96900  Biso   1.000  H
  H24      1.0000 0.23510  0.07460  0.53100  Biso   1.000  H
  C37      1.0000 0.59380  0.45830  0.38060  Biso   1.000  C
  C38      1.0000 0.40620  0.95830  0.11940  Biso   1.000  C
  C39      1.0000 0.40620  0.54170  0.61940  Biso   1.000  C
  C40      1.0000 0.59380  0.04170  0.88060  Biso   1.000  C
  N1       1.0000 0.09480  0.33584  0.43360  Biso   1.000  N
  N2       1.0000 0.90520  0.83584  0.06640  Biso   1.000  N
  N3       1.0000 0.90520  0.66416  0.56640  Biso   1.000  N
  N4       1.0000 0.09480  0.16416  0.93360  Biso   1.000  N
  N5       1.0000 0.97880  0.28230  0.61710  Biso   1.000  N
  N6       1.0000 0.02120  0.78230  0.88290  Biso   1.000  N
  N7       1.0000 0.02120  0.71770  0.38290  Biso   1.000  N
  N8       1.0000 0.97880  0.21770  0.11710  Biso   1.000  N
  N9       1.0000 0.09910  0.39260  0.15980  Biso   1.000  N
  N10      1.0000 0.90090  0.89260  0.34020  Biso   1.000  N
  N11      1.0000 0.90090  0.60740  0.84020  Biso   1.000  N
  N12      1.0000 0.09910  0.10740  0.65980  Biso   1.000  N
  N13      1.0000 0.48810  0.42160  0.38400  Biso   1.000  N
  N14      1.0000 0.51190  0.92160  0.11600  Biso   1.000  N
  N15      1.0000 0.51190  0.57840  0.61600  Biso   1.000  N
  N16      1.0000 0.48810  0.07840  0.88400  Biso   1.000  N
  O1       1.0000 0.44080  0.32463  0.64130  Biso   1.000  O
  O2       1.0000 0.55920  0.82463  0.85870  Biso   1.000  O
  O3       1.0000 0.55920  0.67537  0.35870  Biso   1.000  O
  O4       1.0000 0.44080  0.17537  0.14130  Biso   1.000  O
  O5       1.0000 0.36500  0.33195  0.89440  Biso   1.000  O
  O6       1.0000 0.63500  0.83195  0.60560  Biso   1.000  O
  O7       1.0000 0.63500  0.66805  0.10560  Biso   1.000  O
  O8       1.0000 0.36500  0.16805  0.39440  Biso   1.000  O
  O9       1.0000 0.37150  0.22365  0.76340  Biso   1.000  O
  O10      1.0000 0.62850  0.72365  0.73660  Biso   1.000  O
  O11      1.0000 0.62850  0.77635  0.23660  Biso   1.000  O
  O12      1.0000 0.37150  0.27635  0.26340  Biso   1.000  O
  S1       1.0000 0.34314  0.29491  0.73866  Biso   1.000  S
  S2       1.0000 0.65686  0.79491  0.76134  Biso   1.000  S
  S3       1.0000 0.65686  0.70509  0.26134  Biso   1.000  S
  S4       1.0000 0.34314  0.20509  0.23866  Biso   1.000  S
  S5       1.0000 0.75100  0.50856  0.38060  Biso   1.000  S
  S6       1.0000 0.24900  0.00856  0.11940  Biso   1.000  S
  S7       1.0000 0.24900  0.49144  0.61940  Biso   1.000  S
  S8       1.0000 0.75100  0.99144  0.88060  Biso   1.000  S
