data_image0
_cell_length_a       19.926
_cell_length_b       14.516
_cell_length_c       13.526
_cell_angle_alpha    90
_cell_angle_beta     132.204
_cell_angle_gamma    90

_symmetry_space_group_name_H-M    "P 1"
_symmetry_int_tables_number       1

loop_
  _symmetry_equiv_pos_as_xyz
  'x, y, z'

loop_
  _atom_site_label
  _atom_site_occupancy
  _atom_site_fract_x
  _atom_site_fract_y
  _atom_site_fract_z
  _atom_site_thermal_displace_type
  _atom_site_B_iso_or_equiv
  _atom_site_type_symbol
  Cu1      1.0000 0.00000  0.00000  0.00000  Biso   1.000  Cu
  Cu2      1.0000 0.00000  0.00000  0.50000  Biso   1.000  Cu
  Cu3      1.0000 0.50000  0.50000  0.00000  Biso   1.000  Cu
  Cu4      1.0000 0.50000  0.50000  0.50000  Biso   1.000  Cu
  N1       1.0000 0.05940  0.24450  0.19960  Biso   1.000  N
  N2       1.0000 0.94060  0.24450  0.30040  Biso   1.000  N
  N3       1.0000 0.55940  0.74450  0.19960  Biso   1.000  N
  N4       1.0000 0.44060  0.74450  0.30040  Biso   1.000  N
  N5       1.0000 0.94060  0.75550  0.80040  Biso   1.000  N
  N6       1.0000 0.05940  0.75550  0.69960  Biso   1.000  N
  N7       1.0000 0.44060  0.25550  0.80040  Biso   1.000  N
  N8       1.0000 0.55940  0.25550  0.69960  Biso   1.000  N
  N9       1.0000 0.38620  0.52920  0.46450  Biso   1.000  N
  N10      1.0000 0.61380  0.52920  0.03550  Biso   1.000  N
  N11      1.0000 0.88620  0.02920  0.46450  Biso   1.000  N
  N12      1.0000 0.11380  0.02920  0.03550  Biso   1.000  N
  N13      1.0000 0.61380  0.47080  0.53550  Biso   1.000  N
  N14      1.0000 0.38620  0.47080  0.96450  Biso   1.000  N
  N15      1.0000 0.11380  0.97080  0.53550  Biso   1.000  N
  N16      1.0000 0.88620  0.97080  0.96450  Biso   1.000  N
  N17      1.0000 0.03070  0.10360  0.12150  Biso   1.000  N
  N18      1.0000 0.96930  0.10360  0.37850  Biso   1.000  N
  N19      1.0000 0.53070  0.60360  0.12150  Biso   1.000  N
  N20      1.0000 0.46930  0.60360  0.37850  Biso   1.000  N
  N21      1.0000 0.96930  0.89640  0.87850  Biso   1.000  N
  N22      1.0000 0.03070  0.89640  0.62150  Biso   1.000  N
  N23      1.0000 0.46930  0.39640  0.87850  Biso   1.000  N
  N24      1.0000 0.53070  0.39640  0.62150  Biso   1.000  N
  O1       1.0000 0.08300  0.88610  0.18880  Biso   1.000  O
  O2       1.0000 0.91700  0.88610  0.31120  Biso   1.000  O
  O3       1.0000 0.58300  0.38610  0.18880  Biso   1.000  O
  O4       1.0000 0.41700  0.38610  0.31120  Biso   1.000  O
  O5       1.0000 0.91700  0.11390  0.81120  Biso   1.000  O
  O6       1.0000 0.08300  0.11390  0.68880  Biso   1.000  O
  O7       1.0000 0.41700  0.61390  0.81120  Biso   1.000  O
  O8       1.0000 0.58300  0.61390  0.68880  Biso   1.000  O
  H1       1.0000 0.06200  0.85000  0.21400  Biso   1.000  H
  H2       1.0000 0.93800  0.85000  0.28600  Biso   1.000  H
  H3       1.0000 0.56200  0.35000  0.21400  Biso   1.000  H
  H4       1.0000 0.43800  0.35000  0.28600  Biso   1.000  H
  H5       1.0000 0.93800  0.15000  0.78600  Biso   1.000  H
  H6       1.0000 0.06200  0.15000  0.71400  Biso   1.000  H
  H7       1.0000 0.43800  0.65000  0.78600  Biso   1.000  H
  H8       1.0000 0.56200  0.65000  0.71400  Biso   1.000  H
  H9       1.0000 0.13930  0.89600  0.25600  Biso   1.000  H
  H10      1.0000 0.86070  0.89600  0.24400  Biso   1.000  H
  H11      1.0000 0.63930  0.39600  0.25600  Biso   1.000  H
  H12      1.0000 0.36070  0.39600  0.24400  Biso   1.000  H
  H13      1.0000 0.86070  0.10400  0.74400  Biso   1.000  H
  H14      1.0000 0.13930  0.10400  0.75600  Biso   1.000  H
  H15      1.0000 0.36070  0.60400  0.74400  Biso   1.000  H
  H16      1.0000 0.63930  0.60400  0.75600  Biso   1.000  H
  N25      1.0000 0.24400  0.51640  0.37200  Biso   1.000  N
  N26      1.0000 0.75600  0.51640  0.12800  Biso   1.000  N
  N27      1.0000 0.74400  0.01640  0.37200  Biso   1.000  N
  N28      1.0000 0.25600  0.01640  0.12800  Biso   1.000  N
  N29      1.0000 0.75600  0.48360  0.62800  Biso   1.000  N
  N30      1.0000 0.24400  0.48360  0.87200  Biso   1.000  N
  N31      1.0000 0.25600  0.98360  0.62800  Biso   1.000  N
  N32      1.0000 0.74400  0.98360  0.87200  Biso   1.000  N
  C1       1.0000 0.98700  0.39510  0.11570  Biso   1.000  C
  C2       1.0000 0.01300  0.39510  0.38430  Biso   1.000  C
  C3       1.0000 0.48700  0.89510  0.11570  Biso   1.000  C
  C4       1.0000 0.51300  0.89510  0.38430  Biso   1.000  C
  C5       1.0000 0.01300  0.60490  0.88430  Biso   1.000  C
  C6       1.0000 0.98700  0.60490  0.61570  Biso   1.000  C
  C7       1.0000 0.51300  0.10490  0.88430  Biso   1.000  C
  C8       1.0000 0.48700  0.10490  0.61570  Biso   1.000  C
  H17      1.0000 0.93070  0.36661  0.05596  Biso   1.000  H
  H18      1.0000 0.06930  0.36661  0.44404  Biso   1.000  H
  H19      1.0000 0.43070  0.86661  0.05596  Biso   1.000  H
  H20      1.0000 0.56930  0.86661  0.44404  Biso   1.000  H
  H21      1.0000 0.06930  0.63339  0.94404  Biso   1.000  H
  H22      1.0000 0.93070  0.63339  0.55596  Biso   1.000  H
  H23      1.0000 0.56930  0.13339  0.94404  Biso   1.000  H
  H24      1.0000 0.43070  0.13339  0.55596  Biso   1.000  H
  C9       1.0000 0.07940  0.53140  0.20610  Biso   1.000  C
  C10      1.0000 0.92060  0.53140  0.29390  Biso   1.000  C
  C11      1.0000 0.57940  0.03140  0.20610  Biso   1.000  C
  C12      1.0000 0.42060  0.03140  0.29390  Biso   1.000  C
  C13      1.0000 0.92060  0.46860  0.79390  Biso   1.000  C
  C14      1.0000 0.07940  0.46860  0.70610  Biso   1.000  C
  C15      1.0000 0.42060  0.96860  0.79390  Biso   1.000  C
  C16      1.0000 0.57940  0.96860  0.70610  Biso   1.000  C
  H25      1.0000 0.08482  0.59516  0.20808  Biso   1.000  H
  H26      1.0000 0.91518  0.59516  0.29192  Biso   1.000  H
  H27      1.0000 0.58482  0.09516  0.20808  Biso   1.000  H
  H28      1.0000 0.41518  0.09516  0.29192  Biso   1.000  H
  H29      1.0000 0.91518  0.40484  0.79192  Biso   1.000  H
  H30      1.0000 0.08482  0.40484  0.70808  Biso   1.000  H
  H31      1.0000 0.41518  0.90484  0.79192  Biso   1.000  H
  H32      1.0000 0.58482  0.90484  0.70808  Biso   1.000  H
  N33      1.0000 0.90810  0.63760  0.02960  Biso   1.000  N
  N34      1.0000 0.09190  0.63760  0.47040  Biso   1.000  N
  N35      1.0000 0.40810  0.13760  0.02960  Biso   1.000  N
  N36      1.0000 0.59190  0.13760  0.47040  Biso   1.000  N
  N37      1.0000 0.09190  0.36240  0.97040  Biso   1.000  N
  N38      1.0000 0.90810  0.36240  0.52960  Biso   1.000  N
  N39      1.0000 0.59190  0.86240  0.97040  Biso   1.000  N
  N40      1.0000 0.40810  0.86240  0.52960  Biso   1.000  N
  N41      1.0000 0.77240  0.58190  0.88060  Biso   1.000  N
  N42      1.0000 0.22760  0.58190  0.61940  Biso   1.000  N
  N43      1.0000 0.27240  0.08190  0.88060  Biso   1.000  N
  N44      1.0000 0.72760  0.08190  0.61940  Biso   1.000  N
  N45      1.0000 0.22760  0.41810  0.11940  Biso   1.000  N
  N46      1.0000 0.77240  0.41810  0.38060  Biso   1.000  N
  N47      1.0000 0.72760  0.91810  0.11940  Biso   1.000  N
  N48      1.0000 0.27240  0.91810  0.38060  Biso   1.000  N
  C17      1.0000 0.15560  0.47790  0.28980  Biso   1.000  C
  C18      1.0000 0.84440  0.47790  0.21020  Biso   1.000  C
  C19      1.0000 0.65560  0.97790  0.28980  Biso   1.000  C
  C20      1.0000 0.34440  0.97790  0.21020  Biso   1.000  C
  C21      1.0000 0.84440  0.52210  0.71020  Biso   1.000  C
  C22      1.0000 0.15560  0.52210  0.78980  Biso   1.000  C
  C23      1.0000 0.34440  0.02210  0.71020  Biso   1.000  C
  C24      1.0000 0.65560  0.02210  0.78980  Biso   1.000  C
  C25      1.0000 0.06520  0.34230  0.20330  Biso   1.000  C
  C26      1.0000 0.93480  0.34230  0.29670  Biso   1.000  C
  C27      1.0000 0.56520  0.84230  0.20330  Biso   1.000  C
  C28      1.0000 0.43480  0.84230  0.29670  Biso   1.000  C
  C29      1.0000 0.93480  0.65770  0.79670  Biso   1.000  C
  C30      1.0000 0.06520  0.65770  0.70330  Biso   1.000  C
  C31      1.0000 0.43480  0.15770  0.79670  Biso   1.000  C
  C32      1.0000 0.56520  0.15770  0.70330  Biso   1.000  C
  C33      1.0000 0.35670  0.61260  0.47120  Biso   1.000  C
  C34      1.0000 0.64330  0.61260  0.02880  Biso   1.000  C
  C35      1.0000 0.85670  0.11260  0.47120  Biso   1.000  C
  C36      1.0000 0.14330  0.11260  0.02880  Biso   1.000  C
  C37      1.0000 0.64330  0.38740  0.52880  Biso   1.000  C
  C38      1.0000 0.35670  0.38740  0.97120  Biso   1.000  C
  C39      1.0000 0.14330  0.88740  0.52880  Biso   1.000  C
  C40      1.0000 0.85670  0.88740  0.97120  Biso   1.000  C
  H33      1.0000 0.39168  0.66580  0.50845  Biso   1.000  H
  H34      1.0000 0.60832  0.66580  0.99155  Biso   1.000  H
  H35      1.0000 0.89168  0.16580  0.50845  Biso   1.000  H
  H36      1.0000 0.10832  0.16580  0.99155  Biso   1.000  H
  H37      1.0000 0.60832  0.33420  0.49155  Biso   1.000  H
  H38      1.0000 0.39168  0.33420  0.00845  Biso   1.000  H
  H39      1.0000 0.10832  0.83420  0.49155  Biso   1.000  H
  H40      1.0000 0.89168  0.83420  0.00845  Biso   1.000  H
  C41      1.0000 0.01450  0.19150  0.09030  Biso   1.000  C
  C42      1.0000 0.98550  0.19150  0.40970  Biso   1.000  C
  C43      1.0000 0.51450  0.69150  0.09030  Biso   1.000  C
  C44      1.0000 0.48550  0.69150  0.40970  Biso   1.000  C
  C45      1.0000 0.98550  0.80850  0.90970  Biso   1.000  C
  C46      1.0000 0.01450  0.80850  0.59030  Biso   1.000  C
  C47      1.0000 0.48550  0.30850  0.90970  Biso   1.000  C
  C48      1.0000 0.51450  0.30850  0.59030  Biso   1.000  C
  H41      1.0000 0.97675  0.21415  0.00352  Biso   1.000  H
  H42      1.0000 0.02325  0.21415  0.49648  Biso   1.000  H
  H43      1.0000 0.47675  0.71415  0.00352  Biso   1.000  H
  H44      1.0000 0.52325  0.71415  0.49648  Biso   1.000  H
  H45      1.0000 0.02325  0.78585  0.99648  Biso   1.000  H
  H46      1.0000 0.97675  0.78585  0.50352  Biso   1.000  H
  H47      1.0000 0.52325  0.28585  0.99648  Biso   1.000  H
  H48      1.0000 0.47675  0.28585  0.50352  Biso   1.000  H
  N49      1.0000 0.82760  0.50870  0.93750  Biso   1.000  N
  N50      1.0000 0.17240  0.50870  0.56250  Biso   1.000  N
  N51      1.0000 0.32760  0.00870  0.93750  Biso   1.000  N
  N52      1.0000 0.67240  0.00870  0.56250  Biso   1.000  N
  N53      1.0000 0.17240  0.49130  0.06250  Biso   1.000  N
  N54      1.0000 0.82760  0.49130  0.43750  Biso   1.000  N
  N55      1.0000 0.67240  0.99130  0.06250  Biso   1.000  N
  N56      1.0000 0.32760  0.99130  0.43750  Biso   1.000  N
  C49      1.0000 0.14910  0.38290  0.29220  Biso   1.000  C
  C50      1.0000 0.85090  0.38290  0.20780  Biso   1.000  C
  C51      1.0000 0.64910  0.88290  0.29220  Biso   1.000  C
  C52      1.0000 0.35090  0.88290  0.20780  Biso   1.000  C
  C53      1.0000 0.85090  0.61710  0.70780  Biso   1.000  C
  C54      1.0000 0.14910  0.61710  0.79220  Biso   1.000  C
  C55      1.0000 0.35090  0.11710  0.70780  Biso   1.000  C
  C56      1.0000 0.64910  0.11710  0.79220  Biso   1.000  C
  H49      1.0000 0.20076  0.34728  0.35297  Biso   1.000  H
  H50      1.0000 0.79924  0.34728  0.14703  Biso   1.000  H
  H51      1.0000 0.70076  0.84728  0.35297  Biso   1.000  H
  H52      1.0000 0.29924  0.84728  0.14703  Biso   1.000  H
  H53      1.0000 0.79924  0.65272  0.64703  Biso   1.000  H
  H54      1.0000 0.20076  0.65272  0.85297  Biso   1.000  H
  H55      1.0000 0.29924  0.15272  0.64703  Biso   1.000  H
  H56      1.0000 0.70076  0.15272  0.85297  Biso   1.000  H
  C57      1.0000 0.99340  0.49080  0.11770  Biso   1.000  C
  C58      1.0000 0.00660  0.49080  0.38230  Biso   1.000  C
  C59      1.0000 0.49340  0.99080  0.11770  Biso   1.000  C
  C60      1.0000 0.50660  0.99080  0.38230  Biso   1.000  C
  C61      1.0000 0.00660  0.50920  0.88230  Biso   1.000  C
  C62      1.0000 0.99340  0.50920  0.61770  Biso   1.000  C
  C63      1.0000 0.50660  0.00920  0.88230  Biso   1.000  C
  C64      1.0000 0.49340  0.00920  0.61770  Biso   1.000  C
  C65      1.0000 0.31680  0.47370  0.40440  Biso   1.000  C
  C66      1.0000 0.68320  0.47370  0.09560  Biso   1.000  C
  C67      1.0000 0.81680  0.97370  0.40440  Biso   1.000  C
  C68      1.0000 0.18320  0.97370  0.09560  Biso   1.000  C
  C69      1.0000 0.68320  0.52630  0.59560  Biso   1.000  C
  C70      1.0000 0.31680  0.52630  0.90440  Biso   1.000  C
  C71      1.0000 0.18320  0.02630  0.59560  Biso   1.000  C
  C72      1.0000 0.81680  0.02630  0.90440  Biso   1.000  C
  H57      1.0000 0.31748  0.41205  0.38620  Biso   1.000  H
  H58      1.0000 0.68252  0.41205  0.11380  Biso   1.000  H
  H59      1.0000 0.81748  0.91205  0.38620  Biso   1.000  H
  H60      1.0000 0.18252  0.91205  0.11380  Biso   1.000  H
  H61      1.0000 0.68252  0.58795  0.61380  Biso   1.000  H
  H62      1.0000 0.31748  0.58795  0.88620  Biso   1.000  H
  H63      1.0000 0.18252  0.08795  0.61380  Biso   1.000  H
  H64      1.0000 0.81748  0.08795  0.88620  Biso   1.000  H
  C73      1.0000 0.08850  0.10010  0.25780  Biso   1.000  C
  C74      1.0000 0.91150  0.10010  0.24220  Biso   1.000  C
  C75      1.0000 0.58850  0.60010  0.25780  Biso   1.000  C
  C76      1.0000 0.41150  0.60010  0.24220  Biso   1.000  C
  C77      1.0000 0.91150  0.89990  0.74220  Biso   1.000  C
  C78      1.0000 0.08850  0.89990  0.75780  Biso   1.000  C
  C79      1.0000 0.41150  0.39990  0.74220  Biso   1.000  C
  C80      1.0000 0.58850  0.39990  0.75780  Biso   1.000  C
  H65      1.0000 0.11154  0.04646  0.30858  Biso   1.000  H
  H66      1.0000 0.88846  0.04646  0.19142  Biso   1.000  H
  H67      1.0000 0.61154  0.54646  0.30858  Biso   1.000  H
  H68      1.0000 0.38846  0.54646  0.19142  Biso   1.000  H
  H69      1.0000 0.88846  0.95354  0.69142  Biso   1.000  H
  H70      1.0000 0.11154  0.95354  0.80858  Biso   1.000  H
  H71      1.0000 0.38846  0.45354  0.69142  Biso   1.000  H
  H72      1.0000 0.61154  0.45354  0.80858  Biso   1.000  H
  N57      1.0000 0.81900  0.65940  0.93360  Biso   1.000  N
  N58      1.0000 0.18100  0.65940  0.56640  Biso   1.000  N
  N59      1.0000 0.31900  0.15940  0.93360  Biso   1.000  N
  N60      1.0000 0.68100  0.15940  0.56640  Biso   1.000  N
  N61      1.0000 0.18100  0.34060  0.06640  Biso   1.000  N
  N62      1.0000 0.81900  0.34060  0.43360  Biso   1.000  N
  N63      1.0000 0.68100  0.84060  0.06640  Biso   1.000  N
  N64      1.0000 0.31900  0.84060  0.43360  Biso   1.000  N
  C81      1.0000 0.91080  0.54570  0.02920  Biso   1.000  C
  C82      1.0000 0.08920  0.54570  0.47080  Biso   1.000  C
  C83      1.0000 0.41080  0.04570  0.02920  Biso   1.000  C
  C84      1.0000 0.58920  0.04570  0.47080  Biso   1.000  C
  C85      1.0000 0.08920  0.45430  0.97080  Biso   1.000  C
  C86      1.0000 0.91080  0.45430  0.52920  Biso   1.000  C
  C87      1.0000 0.58920  0.95430  0.97080  Biso   1.000  C
  C88      1.0000 0.41080  0.95430  0.52920  Biso   1.000  C
  C89      1.0000 0.26990  0.60650  0.41610  Biso   1.000  C
  C90      1.0000 0.73010  0.60650  0.08390  Biso   1.000  C
  C91      1.0000 0.76990  0.10650  0.41610  Biso   1.000  C
  C92      1.0000 0.23010  0.10650  0.08390  Biso   1.000  C
  C93      1.0000 0.73010  0.39350  0.58390  Biso   1.000  C
  C94      1.0000 0.26990  0.39350  0.91610  Biso   1.000  C
  C95      1.0000 0.23010  0.89350  0.58390  Biso   1.000  C
  C96      1.0000 0.76990  0.89350  0.91610  Biso   1.000  C
  H73      1.0000 0.23485  0.65302  0.40928  Biso   1.000  H
  H74      1.0000 0.76515  0.65302  0.09072  Biso   1.000  H
  H75      1.0000 0.73485  0.15302  0.40928  Biso   1.000  H
  H76      1.0000 0.26515  0.15302  0.09072  Biso   1.000  H
  H77      1.0000 0.76515  0.34698  0.59072  Biso   1.000  H
  H78      1.0000 0.23485  0.34698  0.90928  Biso   1.000  H
  H79      1.0000 0.26515  0.84698  0.59072  Biso   1.000  H
  H80      1.0000 0.73485  0.84698  0.90928  Biso   1.000  H
  C97      1.0000 0.10700  0.18700  0.30720  Biso   1.000  C
  C98      1.0000 0.89300  0.18700  0.19280  Biso   1.000  C
  C99      1.0000 0.60700  0.68700  0.30720  Biso   1.000  C
  C100     1.0000 0.39300  0.68700  0.19280  Biso   1.000  C
  C101     1.0000 0.89300  0.81300  0.69280  Biso   1.000  C
  C102     1.0000 0.10700  0.81300  0.80720  Biso   1.000  C
  C103     1.0000 0.39300  0.31300  0.69280  Biso   1.000  C
  C104     1.0000 0.60700  0.31300  0.80720  Biso   1.000  C
  H81      1.0000 0.14454  0.20399  0.39652  Biso   1.000  H
  H82      1.0000 0.85546  0.20399  0.10348  Biso   1.000  H
  H83      1.0000 0.64454  0.70399  0.39652  Biso   1.000  H
  H84      1.0000 0.35546  0.70399  0.10348  Biso   1.000  H
  H85      1.0000 0.85546  0.79601  0.60348  Biso   1.000  H
  H86      1.0000 0.14454  0.79601  0.89652  Biso   1.000  H
  H87      1.0000 0.35546  0.29601  0.60348  Biso   1.000  H
  H88      1.0000 0.64454  0.29601  0.89652  Biso   1.000  H
  O9       1.0000 0.00000  0.75770  0.25000  Biso   1.000  O
  O10      1.0000 0.50000  0.25770  0.25000  Biso   1.000  O
  O11      1.0000 0.00000  0.24230  0.75000  Biso   1.000  O
  O12      1.0000 0.50000  0.74230  0.75000  Biso   1.000  O
  O13      1.0000 0.20790  0.71360  0.14780  Biso   1.000  O
  O14      1.0000 0.79210  0.71360  0.35220  Biso   1.000  O
  O15      1.0000 0.70790  0.21360  0.14780  Biso   1.000  O
  O16      1.0000 0.29210  0.21360  0.35220  Biso   1.000  O
  O17      1.0000 0.79210  0.28640  0.85220  Biso   1.000  O
  O18      1.0000 0.20790  0.28640  0.64780  Biso   1.000  O
  O19      1.0000 0.29210  0.78640  0.85220  Biso   1.000  O
  O20      1.0000 0.70790  0.78640  0.64780  Biso   1.000  O
