data_image0
_cell_length_a       5.649
_cell_length_b       9.727
_cell_length_c       10.426
_cell_angle_alpha    111.98
_cell_angle_beta     100.45
_cell_angle_gamma    91.64

_symmetry_space_group_name_H-M    "P 1"
_symmetry_int_tables_number       1

loop_
  _symmetry_equiv_pos_as_xyz
  'x, y, z'

loop_
  _atom_site_label
  _atom_site_occupancy
  _atom_site_fract_x
  _atom_site_fract_y
  _atom_site_fract_z
  _atom_site_thermal_displace_type
  _atom_site_B_iso_or_equiv
  _atom_site_type_symbol
  Cu1      1.0000 0.20330  0.00940  0.41880  Biso   1.000  Cu
  Cu2      1.0000 0.79670  0.99060  0.58120  Biso   1.000  Cu
  N1       1.0000 0.44840  0.87680  0.35310  Biso   1.000  N
  N2       1.0000 0.55160  0.12320  0.64690  Biso   1.000  N
  N3       1.0000 0.02860  0.86630  0.47570  Biso   1.000  N
  N4       1.0000 0.97140  0.13370  0.52430  Biso   1.000  N
  N5       1.0000 0.25610  0.14780  0.32510  Biso   1.000  N
  N6       1.0000 0.74390  0.85220  0.67490  Biso   1.000  N
  N7       1.0000 0.55150  0.87570  0.26310  Biso   1.000  N
  N8       1.0000 0.44850  0.12430  0.73690  Biso   1.000  N
  N9       1.0000 0.00150  0.73270  0.42040  Biso   1.000  N
  N10      1.0000 0.99850  0.26730  0.57960  Biso   1.000  N
  C1       1.0000 0.08710  0.15270  0.21980  Biso   1.000  C
  C2       1.0000 0.91290  0.84730  0.78020  Biso   1.000  C
  C3       1.0000 0.45390  0.24360  0.36920  Biso   1.000  C
  C4       1.0000 0.54610  0.75640  0.63080  Biso   1.000  C
  N11      1.0000 0.66050  0.87070  0.18000  Biso   1.000  N
  N12      1.0000 0.33950  0.12930  0.82000  Biso   1.000  N
  N13      1.0000 0.98010  0.60760  0.37210  Biso   1.000  N
  N14      1.0000 0.01990  0.39240  0.62790  Biso   1.000  N
  C5       1.0000 0.10710  0.25040  0.15410  Biso   1.000  C
  C6       1.0000 0.89290  0.74960  0.84590  Biso   1.000  C
  H1       1.0000 0.92500  0.07600  0.18400  Biso   1.000  H
  H2       1.0000 0.07500  0.92400  0.81600  Biso   1.000  H
  C7       1.0000 0.48680  0.34430  0.30920  Biso   1.000  C
  C8       1.0000 0.51320  0.65570  0.69080  Biso   1.000  C
  H3       1.0000 0.59300  0.24200  0.45400  Biso   1.000  H
  H4       1.0000 0.40700  0.75800  0.54600  Biso   1.000  H
  C9       1.0000 0.31490  0.35040  0.20030  Biso   1.000  C
  C10      1.0000 0.68510  0.64960  0.79970  Biso   1.000  C
  C11      1.0000 0.90480  0.24950  0.03820  Biso   1.000  C
  C12      1.0000 0.09520  0.75050  0.96180  Biso   1.000  C
  H5       1.0000 0.65000  0.42000  0.34800  Biso   1.000  H
  H6       1.0000 0.35000  0.58000  0.65200  Biso   1.000  H
  C13      1.0000 0.34940  0.46250  0.13520  Biso   1.000  C
  C14      1.0000 0.65060  0.53750  0.86480  Biso   1.000  C
  H7       1.0000 0.96900  0.22800  0.94100  Biso   1.000  H
  H8       1.0000 0.03100  0.77200  0.05900  Biso   1.000  H
  H9       1.0000 0.82900  0.35500  0.06400  Biso   1.000  H
  H10      1.0000 0.17100  0.64500  0.93600  Biso   1.000  H
  H11      1.0000 0.76600  0.16100  0.01900  Biso   1.000  H
  H12      1.0000 0.23400  0.83900  0.98100  Biso   1.000  H
  H13      1.0000 0.19600  0.52700  0.13700  Biso   1.000  H
  H14      1.0000 0.80400  0.47300  0.86300  Biso   1.000  H
  H15      1.0000 0.36000  0.40600  0.02600  Biso   1.000  H
  H16      1.0000 0.64000  0.59400  0.97400  Biso   1.000  H
  H17      1.0000 0.51100  0.53900  0.18800  Biso   1.000  H
  H18      1.0000 0.48900  0.46100  0.81200  Biso   1.000  H
