data_image0
_cell_length_a       7.6429
_cell_length_b       20.753
_cell_length_c       8.1058
_cell_angle_alpha    90
_cell_angle_beta     112.06
_cell_angle_gamma    90

_symmetry_space_group_name_H-M    "P 1"
_symmetry_int_tables_number       1

loop_
  _symmetry_equiv_pos_as_xyz
  'x, y, z'

loop_
  _atom_site_label
  _atom_site_occupancy
  _atom_site_fract_x
  _atom_site_fract_y
  _atom_site_fract_z
  _atom_site_thermal_displace_type
  _atom_site_B_iso_or_equiv
  _atom_site_type_symbol
  Cu1      1.0000 0.46522  0.99060  0.82745  Biso   1.000  Cu
  Cu2      1.0000 0.53478  0.49060  0.17255  Biso   1.000  Cu
  Cu3      1.0000 0.82693  0.87986  0.45220  Biso   1.000  Cu
  Cu4      1.0000 0.17307  0.37986  0.54780  Biso   1.000  Cu
  Na1      1.0000 0.03340  0.78140  0.21430  Biso   1.000  Na
  Na2      1.0000 0.96660  0.28140  0.78570  Biso   1.000  Na
  K1       1.0000 0.50050  0.70347  0.21780  Biso   1.000  K
  K2       1.0000 0.49950  0.20347  0.78220  Biso   1.000  K
  O1       1.0000 0.35400  0.04020  0.61500  Biso   1.000  O
  O2       1.0000 0.64600  0.54020  0.38500  Biso   1.000  O
  O3       1.0000 0.25160  0.04930  0.32150  Biso   1.000  O
  O4       1.0000 0.74840  0.54930  0.67850  Biso   1.000  O
  O5       1.0000 0.42500  0.91150  0.60420  Biso   1.000  O
  O6       1.0000 0.57500  0.41150  0.39580  Biso   1.000  O
  O7       1.0000 0.64160  0.95040  0.41500  Biso   1.000  O
  O8       1.0000 0.35840  0.45040  0.58500  Biso   1.000  O
  O9       1.0000 0.60190  0.82840  0.33870  Biso   1.000  O
  O10      1.0000 0.39810  0.32840  0.66130  Biso   1.000  O
  O11      1.0000 0.29430  0.83340  0.18730  Biso   1.000  O
  O12      1.0000 0.70570  0.33340  0.81270  Biso   1.000  O
  O13      1.0000 0.61000  0.93740  0.03160  Biso   1.000  O
  O14      1.0000 0.39000  0.43740  0.96840  Biso   1.000  O
  O15      1.0000 0.88950  0.89620  0.19620  Biso   1.000  O
  O16      1.0000 0.11050  0.39620  0.80380  Biso   1.000  O
  O17      1.0000 0.72850  0.99880  0.81790  Biso   1.000  O
  O18      1.0000 0.27150  0.49880  0.18210  Biso   1.000  O
  O19      1.0000 0.81070  0.87180  0.75030  Biso   1.000  O
  O20      1.0000 0.18930  0.37180  0.24970  Biso   1.000  O
  O21      1.0000 0.03830  0.93280  0.60520  Biso   1.000  O
  O22      1.0000 0.96170  0.43280  0.39480  Biso   1.000  O
  O23      1.0000 0.22880  0.97060  0.87250  Biso   1.000  O
  O24      1.0000 0.77120  0.47060  0.12750  Biso   1.000  O
  O25      1.0000 0.98990  0.80350  0.48000  Biso   1.000  O
  O26      1.0000 0.01010  0.30350  0.52000  Biso   1.000  O
  O27      1.0000 0.93920  0.75570  0.70660  Biso   1.000  O
  O28      1.0000 0.06080  0.25570  0.29340  Biso   1.000  O
  O29      1.0000 0.23390  0.71770  0.46510  Biso   1.000  O
  O30      1.0000 0.76610  0.21770  0.53490  Biso   1.000  O
  O31      1.0000 0.86240  0.65110  0.38780  Biso   1.000  O
  O32      1.0000 0.13760  0.15110  0.61220  Biso   1.000  O
  O33      1.0000 0.27620  0.56480  0.63800  Biso   1.000  O
  O34      1.0000 0.72380  0.06480  0.36200  Biso   1.000  O
  O35      1.0000 0.11750  0.57050  0.34810  Biso   1.000  O
  O36      1.0000 0.88250  0.07050  0.65190  Biso   1.000  O
  O37      1.0000 0.51500  0.08810  0.99750  Biso   1.000  O
  O38      1.0000 0.48500  0.58810  0.00250  Biso   1.000  O
  O39      1.0000 0.60180  0.68020  0.61660  Biso   1.000  O
  O40      1.0000 0.39820  0.18020  0.38340  Biso   1.000  O
  O41      1.0000 0.12360  0.70050  0.03550  Biso   1.000  O
  O42      1.0000 0.87640  0.20050  0.96450  Biso   1.000  O
  O43      1.0000 0.38270  0.81430  0.84820  Biso   1.000  O
  O44      1.0000 0.61730  0.31430  0.15180  Biso   1.000  O
  O45      1.0000 0.15270  0.10730  0.98860  Biso   1.000  O
  O46      1.0000 0.84730  0.60730  0.01140  Biso   1.000  O
  O47      1.0000 0.72360  0.74830  0.01430  Biso   1.000  O
  O48      1.0000 0.27640  0.24830  0.98570  Biso   1.000  O
  C1       1.0000 0.31350  0.01730  0.45880  Biso   1.000  C
  C2       1.0000 0.68650  0.51730  0.54120  Biso   1.000  C
  C3       1.0000 0.33660  0.94380  0.43820  Biso   1.000  C
  C4       1.0000 0.66340  0.44380  0.56180  Biso   1.000  C
  H1       1.0000 0.21010  0.92540  0.37980  Biso   1.000  H
  H2       1.0000 0.78990  0.42540  0.62020  Biso   1.000  H
  C5       1.0000 0.44790  0.93050  0.31880  Biso   1.000  C
  C6       1.0000 0.55210  0.43050  0.68120  Biso   1.000  C
  H3       1.0000 0.39390  0.95550  0.20860  Biso   1.000  H
  H4       1.0000 0.60610  0.45550  0.79140  Biso   1.000  H
  C7       1.0000 0.44340  0.85890  0.27400  Biso   1.000  C
  C8       1.0000 0.55660  0.35890  0.72600  Biso   1.000  C
  C9       1.0000 0.78360  0.92830  0.06690  Biso   1.000  C
  C10      1.0000 0.21640  0.42830  0.93310  Biso   1.000  C
  C11      1.0000 0.87330  0.96330  0.94880  Biso   1.000  C
  C12      1.0000 0.12670  0.46330  0.05120  Biso   1.000  C
  H5       1.0000 0.97200  0.99280  0.02220  Biso   1.000  H
  H6       1.0000 0.02800  0.49280  0.97780  Biso   1.000  H
  C13      1.0000 0.96100  0.91200  0.86470  Biso   1.000  C
  C14      1.0000 0.03900  0.41200  0.13530  Biso   1.000  C
  H7       1.0000 0.04370  0.88480  0.96140  Biso   1.000  H
  H8       1.0000 0.95630  0.38480  0.03860  Biso   1.000  H
  C15      1.0000 0.08150  0.94050  0.76720  Biso   1.000  C
  C16      1.0000 0.91850  0.44050  0.23280  Biso   1.000  C
  C17      1.0000 0.01430  0.75910  0.58910  Biso   1.000  C
  C18      1.0000 0.98570  0.25910  0.41090  Biso   1.000  C
  C19      1.0000 0.14490  0.70290  0.58890  Biso   1.000  C
  C20      1.0000 0.85510  0.20290  0.41110  Biso   1.000  C
  H9       1.0000 0.24200  0.69800  0.70840  Biso   1.000  H
  H10      1.0000 0.75800  0.19800  0.29160  Biso   1.000  H
  C21      1.0000 0.03200  0.64180  0.53700  Biso   1.000  C
  C22      1.0000 0.96800  0.14180  0.46300  Biso   1.000  C
  H11      1.0000 0.99780  0.62890  0.63730  Biso   1.000  H
  H12      1.0000 0.00220  0.12890  0.36270  Biso   1.000  H
  C23      1.0000 0.14890  0.58710  0.50290  Biso   1.000  C
  C24      1.0000 0.85110  0.08710  0.49710  Biso   1.000  C
