data_image0
_cell_length_a       8.001
_cell_length_b       8.078
_cell_length_c       10.705
_cell_angle_alpha    69.09
_cell_angle_beta     69.34
_cell_angle_gamma    82.11

_symmetry_space_group_name_H-M    "P 1"
_symmetry_int_tables_number       1

loop_
  _symmetry_equiv_pos_as_xyz
  'x, y, z'

loop_
  _atom_site_label
  _atom_site_occupancy
  _atom_site_fract_x
  _atom_site_fract_y
  _atom_site_fract_z
  _atom_site_thermal_displace_type
  _atom_site_B_iso_or_equiv
  _atom_site_type_symbol
  Cu1      1.0000 0.00000  0.50000  0.50000  Biso   1.000  Cu
  Cu2      1.0000 0.33180  0.37520  0.60360  Biso   1.000  Cu
  Cu3      1.0000 0.66820  0.62480  0.39640  Biso   1.000  Cu
  N1       1.0000 0.23560  0.39370  0.43180  Biso   1.000  N
  N2       1.0000 0.76440  0.60630  0.56820  Biso   1.000  N
  N3       1.0000 0.29610  0.31360  0.35120  Biso   1.000  N
  N4       1.0000 0.70390  0.68640  0.64880  Biso   1.000  N
  N5       1.0000 0.36360  0.23830  0.27440  Biso   1.000  N
  N6       1.0000 0.63640  0.76170  0.72560  Biso   1.000  N
  N7       1.0000 0.07940  0.45680  0.66370  Biso   1.000  N
  N8       1.0000 0.92060  0.54320  0.33630  Biso   1.000  N
  N9       1.0000 0.01230  0.51090  0.76250  Biso   1.000  N
  N10      1.0000 0.98770  0.48910  0.23750  Biso   1.000  N
  N11      1.0000 0.94960  0.55890  0.85680  Biso   1.000  N
  N12      1.0000 0.05040  0.44110  0.14320  Biso   1.000  N
  N13      1.0000 0.58150  0.33620  0.50370  Biso   1.000  N
  N14      1.0000 0.41850  0.66380  0.49630  Biso   1.000  N
  N15      1.0000 0.68660  0.24650  0.55980  Biso   1.000  N
  N16      1.0000 0.31340  0.75350  0.44020  Biso   1.000  N
  N17      1.0000 0.79400  0.17210  0.60470  Biso   1.000  N
  N18      1.0000 0.20600  0.82790  0.39530  Biso   1.000  N
  N19      1.0000 0.30330  0.17350  0.78650  Biso   1.000  N
  N20      1.0000 0.69670  0.82650  0.21350  Biso   1.000  N
  C1       1.0000 0.24760  0.01440  0.80490  Biso   1.000  C
  C2       1.0000 0.75240  0.98560  0.19510  Biso   1.000  C
  C3       1.0000 0.20770  0.88160  0.93480  Biso   1.000  C
  C4       1.0000 0.79230  0.11840  0.06520  Biso   1.000  C
  C5       1.0000 0.22110  0.91340  0.04880  Biso   1.000  C
  C6       1.0000 0.77890  0.08660  0.95120  Biso   1.000  C
  C7       1.0000 0.28110  0.07670  0.03000  Biso   1.000  C
  C8       1.0000 0.71890  0.92330  0.97000  Biso   1.000  C
  C9       1.0000 0.32170  0.20450  0.89760  Biso   1.000  C
  C10      1.0000 0.67830  0.79550  0.10240  Biso   1.000  C
  C11      1.0000 0.23070  0.98520  0.67950  Biso   1.000  C
  C12      1.0000 0.76930  0.01480  0.32050  Biso   1.000  C
  C13      1.0000 0.39450  0.38200  0.86820  Biso   1.000  C
  C14      1.0000 0.60550  0.61800  0.13180  Biso   1.000  C
  H1       1.0000 0.16630  0.75340  0.94700  Biso   1.000  H
  H2       1.0000 0.83370  0.24660  0.05300  Biso   1.000  H
  H3       1.0000 0.18510  0.81230  0.15200  Biso   1.000  H
  H4       1.0000 0.81490  0.18770  0.84800  Biso   1.000  H
  H5       1.0000 0.29570  0.10300  0.11770  Biso   1.000  H
  H6       1.0000 0.70430  0.89700  0.88230  Biso   1.000  H
  H7       1.0000 0.18470  0.85370  0.70660  Biso   1.000  H
  H8       1.0000 0.81530  0.14630  0.29340  Biso   1.000  H
  H9       1.0000 0.35510  0.00710  0.59310  Biso   1.000  H
  H10      1.0000 0.64490  0.99290  0.40690  Biso   1.000  H
  H11      1.0000 0.13580  0.08010  0.64040  Biso   1.000  H
  H12      1.0000 0.86420  0.91990  0.35960  Biso   1.000  H
  H13      1.0000 0.41200  0.39830  0.95820  Biso   1.000  H
  H14      1.0000 0.58800  0.60170  0.04180  Biso   1.000  H
  H15      1.0000 0.52070  0.39790  0.78340  Biso   1.000  H
  H16      1.0000 0.47930  0.60210  0.21660  Biso   1.000  H
  H17      1.0000 0.30750  0.48820  0.83090  Biso   1.000  H
  H18      1.0000 0.69250  0.51180  0.16910  Biso   1.000  H
