data_image0
_cell_length_a       7.499
_cell_length_b       10.385
_cell_length_c       11.43
_cell_angle_alpha    111.44
_cell_angle_beta     106.3
_cell_angle_gamma    94.62

_symmetry_space_group_name_H-M    "P 1"
_symmetry_int_tables_number       1

loop_
  _symmetry_equiv_pos_as_xyz
  'x, y, z'

loop_
  _atom_site_label
  _atom_site_occupancy
  _atom_site_fract_x
  _atom_site_fract_y
  _atom_site_fract_z
  _atom_site_thermal_displace_type
  _atom_site_B_iso_or_equiv
  _atom_site_type_symbol
  Cu1      1.0000 0.06490  0.19920  0.06740  Biso   1.000  Cu
  Cu2      1.0000 0.93510  0.80080  0.93260  Biso   1.000  Cu
  Na1      1.0000 0.87580  0.54190  0.34710  Biso   1.000  Na
  Na2      1.0000 0.12420  0.45810  0.65290  Biso   1.000  Na
  O1       1.0000 0.93160  0.79270  0.43830  Biso   1.000  O
  O2       1.0000 0.06840  0.20730  0.56170  Biso   1.000  O
  O3       1.0000 0.96910  0.57930  0.17880  Biso   1.000  O
  O4       1.0000 0.03090  0.42070  0.82120  Biso   1.000  O
  N1       1.0000 0.23370  0.40780  0.07270  Biso   1.000  N
  N2       1.0000 0.76630  0.59220  0.92730  Biso   1.000  N
  N3       1.0000 0.39140  0.44660  0.14670  Biso   1.000  N
  N4       1.0000 0.60860  0.55340  0.85330  Biso   1.000  N
  N5       1.0000 0.54590  0.48280  0.21940  Biso   1.000  N
  N6       1.0000 0.45410  0.51720  0.78060  Biso   1.000  N
  O5       1.0000 0.11220  0.07130  0.91010  Biso   1.000  O
  O6       1.0000 0.88780  0.92870  0.08990  Biso   1.000  O
  O7       1.0000 0.01960  0.01290  0.69120  Biso   1.000  O
  O8       1.0000 0.98040  0.98710  0.30880  Biso   1.000  O
  C1       1.0000 0.99860  0.06500  0.80030  Biso   1.000  C
  C2       1.0000 0.00140  0.93500  0.19970  Biso   1.000  C
  N7       1.0000 0.82570  0.19110  0.93640  Biso   1.000  N
  N8       1.0000 0.17430  0.80890  0.06360  Biso   1.000  N
  C3       1.0000 0.67650  0.24750  0.95760  Biso   1.000  C
  C4       1.0000 0.32350  0.75250  0.04240  Biso   1.000  C
  C5       1.0000 0.52140  0.23930  0.85280  Biso   1.000  C
  C6       1.0000 0.47860  0.76070  0.14720  Biso   1.000  C
  C7       1.0000 0.52330  0.17530  0.72400  Biso   1.000  C
  C8       1.0000 0.47670  0.82470  0.27600  Biso   1.000  C
  C9       1.0000 0.67770  0.11740  0.70200  Biso   1.000  C
  C10      1.0000 0.32230  0.88260  0.29800  Biso   1.000  C
  C11      1.0000 0.82510  0.12690  0.81070  Biso   1.000  C
  C12      1.0000 0.17490  0.87310  0.18930  Biso   1.000  C
  O9       1.0000 0.99940  0.30250  0.22420  Biso   1.000  O
  O10      1.0000 0.00060  0.69750  0.77580  Biso   1.000  O
  O11      1.0000 0.13630  0.42690  0.44080  Biso   1.000  O
  O12      1.0000 0.86370  0.57310  0.55920  Biso   1.000  O
  C13      1.0000 0.13570  0.34020  0.33370  Biso   1.000  C
  C14      1.0000 0.86430  0.65980  0.66630  Biso   1.000  C
  N9       1.0000 0.29580  0.19510  0.19990  Biso   1.000  N
  N10      1.0000 0.70420  0.80490  0.80010  Biso   1.000  N
  C15      1.0000 0.44450  0.14000  0.17910  Biso   1.000  C
  C16      1.0000 0.55550  0.86000  0.82090  Biso   1.000  C
  C17      1.0000 0.60750  0.16120  0.28370  Biso   1.000  C
  C18      1.0000 0.39250  0.83880  0.71630  Biso   1.000  C
  C19      1.0000 0.61730  0.24060  0.41170  Biso   1.000  C
  C20      1.0000 0.38270  0.75940  0.58830  Biso   1.000  C
  C21      1.0000 0.46310  0.30120  0.43340  Biso   1.000  C
  C22      1.0000 0.53690  0.69880  0.56660  Biso   1.000  C
  C23      1.0000 0.30690  0.27570  0.32510  Biso   1.000  C
  C24      1.0000 0.69310  0.72430  0.67490  Biso   1.000  C
  H1       1.0000 0.67700  0.30100  0.05900  Biso   1.000  H
  H2       1.0000 0.32300  0.69900  0.94100  Biso   1.000  H
  H3       1.0000 0.40100  0.28300  0.87200  Biso   1.000  H
  H4       1.0000 0.59900  0.71700  0.12800  Biso   1.000  H
  H5       1.0000 0.40500  0.17000  0.64100  Biso   1.000  H
  H6       1.0000 0.59500  0.83000  0.35900  Biso   1.000  H
  H7       1.0000 0.68200  0.06600  0.60200  Biso   1.000  H
  H8       1.0000 0.31800  0.93400  0.39800  Biso   1.000  H
  H9       1.0000 0.43900  0.07800  0.07800  Biso   1.000  H
  H10      1.0000 0.56100  0.92200  0.92200  Biso   1.000  H
  H11      1.0000 0.72600  0.11500  0.26400  Biso   1.000  H
  H12      1.0000 0.27400  0.88500  0.73600  Biso   1.000  H
  H13      1.0000 0.74200  0.25600  0.49500  Biso   1.000  H
  H14      1.0000 0.25800  0.74400  0.50500  Biso   1.000  H
  H15      1.0000 0.46800  0.36600  0.53300  Biso   1.000  H
  H16      1.0000 0.53200  0.63400  0.46700  Biso   1.000  H
  H17      1.0000 0.95200  0.85200  0.39800  Biso   1.000  H
  H18      1.0000 0.04800  0.14800  0.60200  Biso   1.000  H
  H19      1.0000 0.94300  0.86000  0.52000  Biso   1.000  H
  H20      1.0000 0.05700  0.14000  0.48000  Biso   1.000  H
  H21      1.0000 0.88400  0.58900  0.10700  Biso   1.000  H
  H22      1.0000 0.11600  0.41100  0.89300  Biso   1.000  H
  H23      1.0000 0.06800  0.54400  0.15200  Biso   1.000  H
  H24      1.0000 0.93200  0.45600  0.84800  Biso   1.000  H
