data_image0
_cell_length_a       9.0767
_cell_length_b       22.897
_cell_length_c       7.2953
_cell_angle_alpha    90
_cell_angle_beta     96.448
_cell_angle_gamma    90

_symmetry_space_group_name_H-M    "P 1"
_symmetry_int_tables_number       1

loop_
  _symmetry_equiv_pos_as_xyz
  'x, y, z'

loop_
  _atom_site_label
  _atom_site_occupancy
  _atom_site_fract_x
  _atom_site_fract_y
  _atom_site_fract_z
  _atom_site_thermal_displace_type
  _atom_site_B_iso_or_equiv
  _atom_site_type_symbol
  Cu1      1.0000 0.09615  0.25792  0.30458  Biso   1.000  Cu
  Cu2      1.0000 0.90385  0.75792  0.19542  Biso   1.000  Cu
  Cu3      1.0000 0.90385  0.74208  0.69542  Biso   1.000  Cu
  Cu4      1.0000 0.09615  0.24208  0.80458  Biso   1.000  Cu
  Cl1      1.0000 0.09232  0.04857  0.36375  Biso   1.000  Cl
  Cl2      1.0000 0.90768  0.54857  0.13625  Biso   1.000  Cl
  Cl3      1.0000 0.90768  0.95143  0.63625  Biso   1.000  Cl
  Cl4      1.0000 0.09232  0.45143  0.86375  Biso   1.000  Cl
  Cl5      1.0000 0.65892  0.03398  0.22240  Biso   1.000  Cl
  Cl6      1.0000 0.34108  0.53398  0.27760  Biso   1.000  Cl
  Cl7      1.0000 0.34108  0.96602  0.77760  Biso   1.000  Cl
  Cl8      1.0000 0.65892  0.46602  0.72240  Biso   1.000  Cl
  O1       1.0000 0.14330  0.17315  0.36180  Biso   1.000  O
  O2       1.0000 0.85670  0.67315  0.13820  Biso   1.000  O
  O3       1.0000 0.85670  0.82685  0.63820  Biso   1.000  O
  O4       1.0000 0.14330  0.32685  0.86180  Biso   1.000  O
  N1       1.0000 0.31970  0.27140  0.30650  Biso   1.000  N
  N2       1.0000 0.68030  0.77140  0.19350  Biso   1.000  N
  N3       1.0000 0.68030  0.72860  0.69350  Biso   1.000  N
  N4       1.0000 0.31970  0.22860  0.80650  Biso   1.000  N
  N5       1.0000 0.09270  0.35075  0.25260  Biso   1.000  N
  N6       1.0000 0.90730  0.85075  0.24740  Biso   1.000  N
  N7       1.0000 0.90730  0.64925  0.74740  Biso   1.000  N
  N8       1.0000 0.09270  0.14925  0.75260  Biso   1.000  N
  N9       1.0000 0.98610  0.26061  0.54030  Biso   1.000  N
  N10      1.0000 0.01390  0.76061  0.95970  Biso   1.000  N
  N11      1.0000 0.01390  0.73939  0.45970  Biso   1.000  N
  N12      1.0000 0.98610  0.23939  0.04030  Biso   1.000  N
  N13      1.0000 0.85540  0.26976  0.53400  Biso   1.000  N
  N14      1.0000 0.14460  0.76976  0.96600  Biso   1.000  N
  N15      1.0000 0.14460  0.73024  0.46600  Biso   1.000  N
  N16      1.0000 0.85540  0.23024  0.03400  Biso   1.000  N
  N17      1.0000 0.72970  0.27769  0.52820  Biso   1.000  N
  N18      1.0000 0.27030  0.77769  0.97180  Biso   1.000  N
  N19      1.0000 0.27030  0.72231  0.47180  Biso   1.000  N
  N20      1.0000 0.72970  0.22231  0.02820  Biso   1.000  N
  C1       1.0000 0.25930  0.14407  0.32920  Biso   1.000  C
  C2       1.0000 0.74070  0.64407  0.17080  Biso   1.000  C
  C3       1.0000 0.74070  0.85593  0.67080  Biso   1.000  C
  C4       1.0000 0.25930  0.35593  0.82920  Biso   1.000  C
  C5       1.0000 0.25690  0.08268  0.32690  Biso   1.000  C
  C6       1.0000 0.74310  0.58268  0.17310  Biso   1.000  C
  C7       1.0000 0.74310  0.91732  0.67310  Biso   1.000  C
  C8       1.0000 0.25690  0.41732  0.82690  Biso   1.000  C
  C9       1.0000 0.37710  0.04916  0.29560  Biso   1.000  C
  C10      1.0000 0.62290  0.54916  0.20440  Biso   1.000  C
  C11      1.0000 0.62290  0.95084  0.70440  Biso   1.000  C
  C12      1.0000 0.37710  0.45084  0.79560  Biso   1.000  C
  H1       1.0000 0.37040  0.00860  0.29530  Biso   1.000  H
  H2       1.0000 0.62960  0.50860  0.20470  Biso   1.000  H
  H3       1.0000 0.62960  0.99140  0.70470  Biso   1.000  H
  H4       1.0000 0.37040  0.49140  0.79530  Biso   1.000  H
  C13      1.0000 0.50690  0.07609  0.26500  Biso   1.000  C
  C14      1.0000 0.49310  0.57609  0.23500  Biso   1.000  C
  C15      1.0000 0.49310  0.92391  0.73500  Biso   1.000  C
  C16      1.0000 0.50690  0.42391  0.76500  Biso   1.000  C
  C17      1.0000 0.51830  0.13493  0.26710  Biso   1.000  C
  C18      1.0000 0.48170  0.63493  0.23290  Biso   1.000  C
  C19      1.0000 0.48170  0.86507  0.73290  Biso   1.000  C
  C20      1.0000 0.51830  0.36507  0.76710  Biso   1.000  C
  H5       1.0000 0.60780  0.15240  0.24810  Biso   1.000  H
  H6       1.0000 0.39220  0.65240  0.25190  Biso   1.000  H
  H7       1.0000 0.39220  0.84760  0.75190  Biso   1.000  H
  H8       1.0000 0.60780  0.34760  0.74810  Biso   1.000  H
  C21      1.0000 0.39630  0.17011  0.29770  Biso   1.000  C
  C22      1.0000 0.60370  0.67011  0.20230  Biso   1.000  C
  C23      1.0000 0.60370  0.82989  0.70230  Biso   1.000  C
  C24      1.0000 0.39630  0.32989  0.79770  Biso   1.000  C
  C25      1.0000 0.41860  0.23208  0.29180  Biso   1.000  C
  C26      1.0000 0.58140  0.73208  0.20820  Biso   1.000  C
  C27      1.0000 0.58140  0.76792  0.70820  Biso   1.000  C
  C28      1.0000 0.41860  0.26792  0.79180  Biso   1.000  C
  H9       1.0000 0.51350  0.24500  0.27580  Biso   1.000  H
  H10      1.0000 0.48650  0.74500  0.22420  Biso   1.000  H
  H11      1.0000 0.48650  0.75500  0.72420  Biso   1.000  H
  H12      1.0000 0.51350  0.25500  0.77580  Biso   1.000  H
  C29      1.0000 0.36170  0.33280  0.28940  Biso   1.000  C
  C30      1.0000 0.63830  0.83280  0.21060  Biso   1.000  C
  C31      1.0000 0.63830  0.66720  0.71060  Biso   1.000  C
  C32      1.0000 0.36170  0.16720  0.78940  Biso   1.000  C
  H13      1.0000 0.38200  0.34070  0.16400  Biso   1.000  H
  H14      1.0000 0.61800  0.84070  0.33600  Biso   1.000  H
  H15      1.0000 0.61800  0.65930  0.83600  Biso   1.000  H
  H16      1.0000 0.38200  0.15930  0.66400  Biso   1.000  H
  H17      1.0000 0.45100  0.34090  0.37150  Biso   1.000  H
  H18      1.0000 0.54900  0.84090  0.12850  Biso   1.000  H
  H19      1.0000 0.54900  0.65910  0.62850  Biso   1.000  H
  H20      1.0000 0.45100  0.15910  0.87150  Biso   1.000  H
  C33      1.0000 0.23790  0.37133  0.33770  Biso   1.000  C
  C34      1.0000 0.76210  0.87133  0.16230  Biso   1.000  C
  C35      1.0000 0.76210  0.62867  0.66230  Biso   1.000  C
  C36      1.0000 0.23790  0.12867  0.83770  Biso   1.000  C
  H21      1.0000 0.23800  0.37220  0.47070  Biso   1.000  H
  H22      1.0000 0.76200  0.87220  0.02930  Biso   1.000  H
  H23      1.0000 0.76200  0.62780  0.52930  Biso   1.000  H
  H24      1.0000 0.23800  0.12780  0.97070  Biso   1.000  H
  H25      1.0000 0.25430  0.41080  0.29650  Biso   1.000  H
  H26      1.0000 0.74570  0.91080  0.20350  Biso   1.000  H
  H27      1.0000 0.74570  0.58920  0.70350  Biso   1.000  H
  H28      1.0000 0.25430  0.08920  0.79650  Biso   1.000  H
  C37      1.0000 0.97070  0.38750  0.30460  Biso   1.000  C
  C38      1.0000 0.02930  0.88750  0.19540  Biso   1.000  C
  C39      1.0000 0.02930  0.61250  0.69540  Biso   1.000  C
  C40      1.0000 0.97070  0.11250  0.80460  Biso   1.000  C
  H29      1.0000 0.99560  0.42830  0.28950  Biso   1.000  H
  H30      1.0000 0.00440  0.92830  0.21050  Biso   1.000  H
  H31      1.0000 0.00440  0.57170  0.71050  Biso   1.000  H
  H32      1.0000 0.99560  0.07170  0.78950  Biso   1.000  H
  H33      1.0000 0.95920  0.38110  0.43360  Biso   1.000  H
  H34      1.0000 0.04080  0.88110  0.06640  Biso   1.000  H
  H35      1.0000 0.04080  0.61890  0.56640  Biso   1.000  H
  H36      1.0000 0.95920  0.11890  0.93360  Biso   1.000  H
  C41      1.0000 0.82650  0.37440  0.18970  Biso   1.000  C
  C42      1.0000 0.17350  0.87440  0.31030  Biso   1.000  C
  C43      1.0000 0.17350  0.62560  0.81030  Biso   1.000  C
  C44      1.0000 0.82650  0.12560  0.68970  Biso   1.000  C
  H37      1.0000 0.83620  0.38220  0.06240  Biso   1.000  H
  H38      1.0000 0.16380  0.88220  0.43760  Biso   1.000  H
  H39      1.0000 0.16380  0.61780  0.93760  Biso   1.000  H
  H40      1.0000 0.83620  0.11780  0.56240  Biso   1.000  H
  H41      1.0000 0.74970  0.39850  0.22950  Biso   1.000  H
  H42      1.0000 0.25030  0.89850  0.27050  Biso   1.000  H
  H43      1.0000 0.25030  0.60150  0.77050  Biso   1.000  H
  H44      1.0000 0.74970  0.10150  0.72950  Biso   1.000  H
  H45      1.0000 0.80160  0.33400  0.20390  Biso   1.000  H
  H46      1.0000 0.19840  0.83400  0.29610  Biso   1.000  H
  H47      1.0000 0.19840  0.66600  0.79610  Biso   1.000  H
  H48      1.0000 0.80160  0.16600  0.70390  Biso   1.000  H
  H49      1.0000 0.09600  0.35090  0.13000  Biso   1.000  H
  H50      1.0000 0.90400  0.85090  0.37000  Biso   1.000  H
  H51      1.0000 0.90400  0.64910  0.87000  Biso   1.000  H
  H52      1.0000 0.09600  0.14910  0.63000  Biso   1.000  H
