data_image0
_cell_length_a       11.015
_cell_length_b       12.023
_cell_length_c       14.524
_cell_angle_alpha    90
_cell_angle_beta     100.18
_cell_angle_gamma    90

_symmetry_space_group_name_H-M    "P 1"
_symmetry_int_tables_number       1

loop_
  _symmetry_equiv_pos_as_xyz
  'x, y, z'

loop_
  _atom_site_label
  _atom_site_occupancy
  _atom_site_fract_x
  _atom_site_fract_y
  _atom_site_fract_z
  _atom_site_thermal_displace_type
  _atom_site_B_iso_or_equiv
  _atom_site_type_symbol
  Cu1      1.0000 0.82839  0.23979  0.34872  Biso   1.000  Cu
  Cu2      1.0000 0.17161  0.73979  0.15128  Biso   1.000  Cu
  Cu3      1.0000 0.17161  0.76021  0.65128  Biso   1.000  Cu
  Cu4      1.0000 0.82839  0.26021  0.84872  Biso   1.000  Cu
  O1       1.0000 0.79000  0.34120  0.22380  Biso   1.000  O
  O2       1.0000 0.21000  0.84120  0.27620  Biso   1.000  O
  O3       1.0000 0.21000  0.65880  0.77620  Biso   1.000  O
  O4       1.0000 0.79000  0.15880  0.72380  Biso   1.000  O
  O5       1.0000 0.66070  0.18230  0.31450  Biso   1.000  O
  O6       1.0000 0.33930  0.68230  0.18550  Biso   1.000  O
  O7       1.0000 0.33930  0.81770  0.68550  Biso   1.000  O
  O8       1.0000 0.66070  0.31770  0.81450  Biso   1.000  O
  O9       1.0000 0.82110  0.47790  0.12610  Biso   1.000  O
  O10      1.0000 0.17890  0.97790  0.37390  Biso   1.000  O
  O11      1.0000 0.17890  0.52210  0.87390  Biso   1.000  O
  O12      1.0000 0.82110  0.02210  0.62610  Biso   1.000  O
  O13      1.0000 0.45550  0.19370  0.29230  Biso   1.000  O
  O14      1.0000 0.54450  0.69370  0.20770  Biso   1.000  O
  O15      1.0000 0.54450  0.80630  0.70770  Biso   1.000  O
  O16      1.0000 0.45550  0.30630  0.79230  Biso   1.000  O
  N1       1.0000 0.99820  0.29590  0.37010  Biso   1.000  N
  N2       1.0000 0.00180  0.79590  0.12990  Biso   1.000  N
  N3       1.0000 0.00180  0.70410  0.62990  Biso   1.000  N
  N4       1.0000 0.99820  0.20410  0.87010  Biso   1.000  N
  N5       1.0000 0.78240  0.33010  0.45140  Biso   1.000  N
  N6       1.0000 0.21760  0.83010  0.04860  Biso   1.000  N
  N7       1.0000 0.21760  0.66990  0.54860  Biso   1.000  N
  N8       1.0000 0.78240  0.16990  0.95140  Biso   1.000  N
  N9       1.0000 0.10760  0.59020  0.18890  Biso   1.000  N
  N10      1.0000 0.89240  0.09020  0.31110  Biso   1.000  N
  N11      1.0000 0.89240  0.40980  0.81110  Biso   1.000  N
  N12      1.0000 0.10760  0.90980  0.68890  Biso   1.000  N
  N13      1.0000 0.35670  0.39460  0.42580  Biso   1.000  N
  N14      1.0000 0.64330  0.89460  0.07420  Biso   1.000  N
  N15      1.0000 0.64330  0.60540  0.57420  Biso   1.000  N
  N16      1.0000 0.35670  0.10540  0.92580  Biso   1.000  N
  C1       1.0000 0.04200  0.37220  0.32350  Biso   1.000  C
  C2       1.0000 0.95800  0.87220  0.17650  Biso   1.000  C
  C3       1.0000 0.95800  0.62780  0.67650  Biso   1.000  C
  C4       1.0000 0.04200  0.12780  0.82350  Biso   1.000  C
  C5       1.0000 0.98160  0.43450  0.24670  Biso   1.000  C
  C6       1.0000 0.01840  0.93450  0.25330  Biso   1.000  C
  C7       1.0000 0.01840  0.56550  0.75330  Biso   1.000  C
  C8       1.0000 0.98160  0.06550  0.74670  Biso   1.000  C
  C9       1.0000 0.85770  0.41340  0.20070  Biso   1.000  C
  C10      1.0000 0.14230  0.91340  0.29930  Biso   1.000  C
  C11      1.0000 0.14230  0.58660  0.79930  Biso   1.000  C
  C12      1.0000 0.85770  0.08660  0.70070  Biso   1.000  C
  C13      1.0000 0.66890  0.35250  0.45930  Biso   1.000  C
  C14      1.0000 0.33110  0.85250  0.04070  Biso   1.000  C
  C15      1.0000 0.33110  0.64750  0.54070  Biso   1.000  C
  C16      1.0000 0.66890  0.14750  0.95930  Biso   1.000  C
  C17      1.0000 0.56290  0.30880  0.40410  Biso   1.000  C
  C18      1.0000 0.43710  0.80880  0.09590  Biso   1.000  C
  C19      1.0000 0.43710  0.69120  0.59590  Biso   1.000  C
  C20      1.0000 0.56290  0.19120  0.90410  Biso   1.000  C
  C21      1.0000 0.56660  0.22640  0.33640  Biso   1.000  C
  C22      1.0000 0.43340  0.72640  0.16360  Biso   1.000  C
  C23      1.0000 0.43340  0.77360  0.66360  Biso   1.000  C
  C24      1.0000 0.56660  0.27360  0.83640  Biso   1.000  C
  C25      1.0000 0.08110  0.24320  0.44740  Biso   1.000  C
  C26      1.0000 0.91890  0.74320  0.05260  Biso   1.000  C
  C27      1.0000 0.91890  0.75680  0.55260  Biso   1.000  C
  C28      1.0000 0.08110  0.25680  0.94740  Biso   1.000  C
  C29      1.0000 0.01760  0.21650  0.52910  Biso   1.000  C
  C30      1.0000 0.98240  0.71650  0.97090  Biso   1.000  C
  C31      1.0000 0.98240  0.78350  0.47090  Biso   1.000  C
  C32      1.0000 0.01760  0.28350  0.02910  Biso   1.000  C
  C33      1.0000 0.96820  0.31490  0.57660  Biso   1.000  C
  C34      1.0000 0.03180  0.81490  0.92340  Biso   1.000  C
  C35      1.0000 0.03180  0.68510  0.42340  Biso   1.000  C
  C36      1.0000 0.96820  0.18510  0.07660  Biso   1.000  C
  C37      1.0000 0.87890  0.39040  0.51430  Biso   1.000  C
  C38      1.0000 0.12110  0.89040  0.98570  Biso   1.000  C
  C39      1.0000 0.12110  0.60960  0.48570  Biso   1.000  C
  C40      1.0000 0.87890  0.10960  0.01430  Biso   1.000  C
  C41      1.0000 0.69960  0.45380  0.07210  Biso   1.000  C
  C42      1.0000 0.30040  0.95380  0.42790  Biso   1.000  C
  C43      1.0000 0.30040  0.54620  0.92790  Biso   1.000  C
  C44      1.0000 0.69960  0.04620  0.57210  Biso   1.000  C
  C45      1.0000 0.67730  0.52890  0.99230  Biso   1.000  C
  C46      1.0000 0.32270  0.02890  0.50770  Biso   1.000  C
  C47      1.0000 0.32270  0.47110  0.00770  Biso   1.000  C
  C48      1.0000 0.67730  0.97110  0.49230  Biso   1.000  C
  C49      1.0000 0.44780  0.12080  0.21380  Biso   1.000  C
  C50      1.0000 0.55220  0.62080  0.28620  Biso   1.000  C
  C51      1.0000 0.55220  0.87920  0.78620  Biso   1.000  C
  C52      1.0000 0.44780  0.37920  0.71380  Biso   1.000  C
  C53      1.0000 0.31700  0.11450  0.16980  Biso   1.000  C
  C54      1.0000 0.68300  0.61450  0.33020  Biso   1.000  C
  C55      1.0000 0.68300  0.88550  0.83020  Biso   1.000  C
  C56      1.0000 0.31700  0.38550  0.66980  Biso   1.000  C
  C57      1.0000 0.04990  0.52060  0.21360  Biso   1.000  C
  C58      1.0000 0.95010  0.02060  0.28640  Biso   1.000  C
  C59      1.0000 0.95010  0.47940  0.78640  Biso   1.000  C
  C60      1.0000 0.04990  0.97940  0.71360  Biso   1.000  C
  C61      1.0000 0.44770  0.35420  0.41690  Biso   1.000  C
  C62      1.0000 0.55230  0.85420  0.08310  Biso   1.000  C
  C63      1.0000 0.55230  0.64580  0.58310  Biso   1.000  C
  C64      1.0000 0.44770  0.14580  0.91690  Biso   1.000  C
  H1       1.0000 0.12600  0.38500  0.34200  Biso   1.000  H
  H2       1.0000 0.87400  0.88500  0.15800  Biso   1.000  H
  H3       1.0000 0.87400  0.61500  0.65800  Biso   1.000  H
  H4       1.0000 0.12600  0.11500  0.84200  Biso   1.000  H
  H5       1.0000 0.66400  0.40200  0.50400  Biso   1.000  H
  H6       1.0000 0.33600  0.90200  0.99600  Biso   1.000  H
  H7       1.0000 0.33600  0.59800  0.49600  Biso   1.000  H
  H8       1.0000 0.66400  0.09800  0.00400  Biso   1.000  H
  H9       1.0000 0.11600  0.17700  0.42300  Biso   1.000  H
  H10      1.0000 0.88400  0.67700  0.07700  Biso   1.000  H
  H11      1.0000 0.88400  0.82300  0.57700  Biso   1.000  H
  H12      1.0000 0.11600  0.32300  0.92300  Biso   1.000  H
  H13      1.0000 0.14400  0.29100  0.46900  Biso   1.000  H
  H14      1.0000 0.85600  0.79100  0.03100  Biso   1.000  H
  H15      1.0000 0.85600  0.70900  0.53100  Biso   1.000  H
  H16      1.0000 0.14400  0.20900  0.96900  Biso   1.000  H
  H17      1.0000 0.95000  0.16900  0.50700  Biso   1.000  H
  H18      1.0000 0.05000  0.66900  0.99300  Biso   1.000  H
  H19      1.0000 0.05000  0.83100  0.49300  Biso   1.000  H
  H20      1.0000 0.95000  0.33100  0.00700  Biso   1.000  H
  H21      1.0000 0.07900  0.17900  0.58000  Biso   1.000  H
  H22      1.0000 0.92100  0.67900  0.92000  Biso   1.000  H
  H23      1.0000 0.92100  0.82100  0.42000  Biso   1.000  H
  H24      1.0000 0.07900  0.32100  0.08000  Biso   1.000  H
  H25      1.0000 0.05400  0.36200  0.60900  Biso   1.000  H
  H26      1.0000 0.94600  0.86200  0.89100  Biso   1.000  H
  H27      1.0000 0.94600  0.63800  0.39100  Biso   1.000  H
  H28      1.0000 0.05400  0.13800  0.10900  Biso   1.000  H
  H29      1.0000 0.93800  0.29100  0.62100  Biso   1.000  H
  H30      1.0000 0.06200  0.79100  0.87900  Biso   1.000  H
  H31      1.0000 0.06200  0.70900  0.37900  Biso   1.000  H
  H32      1.0000 0.93800  0.20900  0.12100  Biso   1.000  H
  H33      1.0000 0.85300  0.43700  0.55700  Biso   1.000  H
  H34      1.0000 0.14700  0.93700  0.94300  Biso   1.000  H
  H35      1.0000 0.14700  0.56300  0.44300  Biso   1.000  H
  H36      1.0000 0.85300  0.06300  0.05700  Biso   1.000  H
  H37      1.0000 0.91600  0.44400  0.47200  Biso   1.000  H
  H38      1.0000 0.08400  0.94400  0.02800  Biso   1.000  H
  H39      1.0000 0.08400  0.55600  0.52800  Biso   1.000  H
  H40      1.0000 0.91600  0.05600  0.97200  Biso   1.000  H
  H41      1.0000 0.64700  0.47400  0.11900  Biso   1.000  H
  H42      1.0000 0.35300  0.97400  0.38100  Biso   1.000  H
  H43      1.0000 0.35300  0.52600  0.88100  Biso   1.000  H
  H44      1.0000 0.64700  0.02600  0.61900  Biso   1.000  H
  H45      1.0000 0.68900  0.37900  0.05700  Biso   1.000  H
  H46      1.0000 0.31100  0.87900  0.44300  Biso   1.000  H
  H47      1.0000 0.31100  0.62100  0.94300  Biso   1.000  H
  H48      1.0000 0.68900  0.12100  0.55700  Biso   1.000  H
  H49      1.0000 0.67000  0.60400  0.02100  Biso   1.000  H
  H50      1.0000 0.33000  0.10400  0.47900  Biso   1.000  H
  H51      1.0000 0.33000  0.39600  0.97900  Biso   1.000  H
  H52      1.0000 0.67000  0.89600  0.52100  Biso   1.000  H
  H53      1.0000 0.60400  0.51100  0.95200  Biso   1.000  H
  H54      1.0000 0.39600  0.01100  0.54800  Biso   1.000  H
  H55      1.0000 0.39600  0.48900  0.04800  Biso   1.000  H
  H56      1.0000 0.60400  0.98900  0.45200  Biso   1.000  H
  H57      1.0000 0.74600  0.53600  0.95400  Biso   1.000  H
  H58      1.0000 0.25400  0.03600  0.54600  Biso   1.000  H
  H59      1.0000 0.25400  0.46400  0.04600  Biso   1.000  H
  H60      1.0000 0.74600  0.96400  0.45400  Biso   1.000  H
  H61      1.0000 0.46200  0.16400  0.14800  Biso   1.000  H
  H62      1.0000 0.53800  0.66400  0.35200  Biso   1.000  H
  H63      1.0000 0.53800  0.83600  0.85200  Biso   1.000  H
  H64      1.0000 0.46200  0.33600  0.64800  Biso   1.000  H
  H65      1.0000 0.47800  0.06200  0.23400  Biso   1.000  H
  H66      1.0000 0.52200  0.56200  0.26600  Biso   1.000  H
  H67      1.0000 0.52200  0.93800  0.76600  Biso   1.000  H
  H68      1.0000 0.47800  0.43800  0.73400  Biso   1.000  H
  H69      1.0000 0.31400  0.07700  0.09400  Biso   1.000  H
  H70      1.0000 0.68600  0.57700  0.40600  Biso   1.000  H
  H71      1.0000 0.68600  0.92300  0.90600  Biso   1.000  H
  H72      1.0000 0.31400  0.42300  0.59400  Biso   1.000  H
  H73      1.0000 0.26100  0.11300  0.23900  Biso   1.000  H
  H74      1.0000 0.73900  0.61300  0.26100  Biso   1.000  H
  H75      1.0000 0.73900  0.88700  0.76100  Biso   1.000  H
  H76      1.0000 0.26100  0.38700  0.73900  Biso   1.000  H
  H77      1.0000 0.27600  0.20800  0.17400  Biso   1.000  H
  H78      1.0000 0.72400  0.70800  0.32600  Biso   1.000  H
  H79      1.0000 0.72400  0.79200  0.82600  Biso   1.000  H
  H80      1.0000 0.27600  0.29200  0.67400  Biso   1.000  H
