data_image0
_cell_length_a       8.9056
_cell_length_b       11.4712
_cell_length_c       12.5918
_cell_angle_alpha    90
_cell_angle_beta     106.484
_cell_angle_gamma    90

_symmetry_space_group_name_H-M    "P 1"
_symmetry_int_tables_number       1

loop_
  _symmetry_equiv_pos_as_xyz
  'x, y, z'

loop_
  _atom_site_label
  _atom_site_occupancy
  _atom_site_fract_x
  _atom_site_fract_y
  _atom_site_fract_z
  _atom_site_thermal_displace_type
  _atom_site_B_iso_or_equiv
  _atom_site_type_symbol
  Ag1      1.0000 0.17340  0.82881  0.67239  Biso   1.000  Ag
  Ag2      1.0000 0.32660  0.32881  0.82761  Biso   1.000  Ag
  Ag3      1.0000 0.82660  0.17119  0.32761  Biso   1.000  Ag
  Ag4      1.0000 0.67340  0.67119  0.17239  Biso   1.000  Ag
  Cu1      1.0000 0.00000  0.00000  0.00000  Biso   1.000  Cu
  Cu2      1.0000 0.50000  0.50000  0.50000  Biso   1.000  Cu
  N1       1.0000 0.07600  0.92910  0.88330  Biso   1.000  N
  N2       1.0000 0.42400  0.42910  0.61670  Biso   1.000  N
  N3       1.0000 0.92400  0.07090  0.11670  Biso   1.000  N
  N4       1.0000 0.57600  0.57090  0.38330  Biso   1.000  N
  N5       1.0000 0.12160  0.19130  0.95930  Biso   1.000  N
  N6       1.0000 0.37840  0.69130  0.54070  Biso   1.000  N
  N7       1.0000 0.87840  0.80870  0.04070  Biso   1.000  N
  N8       1.0000 0.62160  0.30870  0.45930  Biso   1.000  N
  N9       1.0000 0.20610  0.95930  0.11720  Biso   1.000  N
  N10      1.0000 0.29390  0.45930  0.38280  Biso   1.000  N
  N11      1.0000 0.79390  0.04070  0.88280  Biso   1.000  N
  N12      1.0000 0.70610  0.54070  0.61720  Biso   1.000  N
  N13      1.0000 0.91710  0.85500  0.53290  Biso   1.000  N
  N14      1.0000 0.58290  0.35500  0.96710  Biso   1.000  N
  N15      1.0000 0.08290  0.14500  0.46710  Biso   1.000  N
  N16      1.0000 0.41710  0.64500  0.03290  Biso   1.000  N
  C1       1.0000 0.11350  0.89180  0.81100  Biso   1.000  C
  C2       1.0000 0.38650  0.39180  0.68900  Biso   1.000  C
  C3       1.0000 0.88650  0.10820  0.18900  Biso   1.000  C
  C4       1.0000 0.61350  0.60820  0.31100  Biso   1.000  C
  C5       1.0000 0.19040  0.24670  0.91560  Biso   1.000  C
  C6       1.0000 0.30960  0.74670  0.58440  Biso   1.000  C
  C7       1.0000 0.80960  0.75330  0.08440  Biso   1.000  C
  C8       1.0000 0.69040  0.25330  0.41560  Biso   1.000  C
  C9       1.0000 0.34300  0.99610  0.10580  Biso   1.000  C
  C10      1.0000 0.15700  0.49610  0.39420  Biso   1.000  C
  C11      1.0000 0.65700  0.00390  0.89420  Biso   1.000  C
  C12      1.0000 0.84300  0.50390  0.60580  Biso   1.000  C
  H1       1.0000 0.34370  0.03570  0.04150  Biso   1.000  H
  H2       1.0000 0.15630  0.53570  0.45850  Biso   1.000  H
  H3       1.0000 0.65630  0.96430  0.95850  Biso   1.000  H
  H4       1.0000 0.84370  0.46430  0.54150  Biso   1.000  H
  C13      1.0000 0.48290  0.97770  0.18530  Biso   1.000  C
  C14      1.0000 0.01710  0.47770  0.31470  Biso   1.000  C
  C15      1.0000 0.51710  0.02230  0.81470  Biso   1.000  C
  C16      1.0000 0.98290  0.52230  0.68530  Biso   1.000  C
  H5       1.0000 0.57540  0.00530  0.17410  Biso   1.000  H
  H6       1.0000 0.92460  0.50530  0.32590  Biso   1.000  H
  H7       1.0000 0.42460  0.99470  0.82590  Biso   1.000  H
  H8       1.0000 0.07540  0.49470  0.67410  Biso   1.000  H
  C17      1.0000 0.48690  0.91840  0.28190  Biso   1.000  C
  C18      1.0000 0.01310  0.41840  0.21810  Biso   1.000  C
  C19      1.0000 0.51310  0.08160  0.71810  Biso   1.000  C
  C20      1.0000 0.98690  0.58160  0.78190  Biso   1.000  C
  C21      1.0000 0.34510  0.87790  0.29120  Biso   1.000  C
  C22      1.0000 0.15490  0.37790  0.20880  Biso   1.000  C
  C23      1.0000 0.65490  0.12210  0.70880  Biso   1.000  C
  C24      1.0000 0.84510  0.62210  0.79120  Biso   1.000  C
  H9       1.0000 0.34150  0.83550  0.35330  Biso   1.000  H
  H10      1.0000 0.15850  0.33550  0.14670  Biso   1.000  H
  H11      1.0000 0.65850  0.16450  0.64670  Biso   1.000  H
  H12      1.0000 0.84150  0.66450  0.85330  Biso   1.000  H
  C25      1.0000 0.20920  0.90010  0.20890  Biso   1.000  C
  C26      1.0000 0.29080  0.40010  0.29110  Biso   1.000  C
  C27      1.0000 0.79080  0.09990  0.79110  Biso   1.000  C
  C28      1.0000 0.70920  0.59990  0.70890  Biso   1.000  C
  H13      1.0000 0.11520  0.87260  0.21760  Biso   1.000  H
  H14      1.0000 0.38480  0.37260  0.28240  Biso   1.000  H
  H15      1.0000 0.88480  0.12740  0.78240  Biso   1.000  H
  H16      1.0000 0.61520  0.62740  0.71760  Biso   1.000  H
  C29      1.0000 0.63580  0.89860  0.36940  Biso   1.000  C
  C30      1.0000 0.86420  0.39860  0.13060  Biso   1.000  C
  C31      1.0000 0.36420  0.10140  0.63060  Biso   1.000  C
  C32      1.0000 0.13580  0.60140  0.86940  Biso   1.000  C
  C33      1.0000 0.77720  0.89210  0.34400  Biso   1.000  C
  C34      1.0000 0.72280  0.39210  0.15600  Biso   1.000  C
  C35      1.0000 0.22280  0.10790  0.65600  Biso   1.000  C
  C36      1.0000 0.27720  0.60790  0.84400  Biso   1.000  C
  H17      1.0000 0.78090  0.90300  0.27160  Biso   1.000  H
  H18      1.0000 0.71910  0.40300  0.22840  Biso   1.000  H
  H19      1.0000 0.21910  0.09700  0.72840  Biso   1.000  H
  H20      1.0000 0.28090  0.59700  0.77160  Biso   1.000  H
  C37      1.0000 0.91280  0.86920  0.42760  Biso   1.000  C
  C38      1.0000 0.58720  0.36920  0.07240  Biso   1.000  C
  C39      1.0000 0.08720  0.13080  0.57240  Biso   1.000  C
  C40      1.0000 0.41280  0.63080  0.92760  Biso   1.000  C
  H21      1.0000 0.00630  0.86340  0.40890  Biso   1.000  H
  H22      1.0000 0.49370  0.36340  0.09110  Biso   1.000  H
  H23      1.0000 0.99370  0.13660  0.59110  Biso   1.000  H
  H24      1.0000 0.50630  0.63660  0.90890  Biso   1.000  H
  C41      1.0000 0.78130  0.86380  0.55700  Biso   1.000  C
  C42      1.0000 0.71870  0.36380  0.94300  Biso   1.000  C
  C43      1.0000 0.21870  0.13620  0.44300  Biso   1.000  C
  C44      1.0000 0.28130  0.63620  0.05700  Biso   1.000  C
  H25      1.0000 0.78210  0.85600  0.63070  Biso   1.000  H
  H26      1.0000 0.71790  0.35600  0.86930  Biso   1.000  H
  H27      1.0000 0.21790  0.14400  0.36930  Biso   1.000  H
  H28      1.0000 0.28210  0.64400  0.13070  Biso   1.000  H
  C45      1.0000 0.64010  0.88350  0.47980  Biso   1.000  C
  C46      1.0000 0.85990  0.38350  0.02020  Biso   1.000  C
  C47      1.0000 0.35990  0.11650  0.52020  Biso   1.000  C
  C48      1.0000 0.14010  0.61650  0.97980  Biso   1.000  C
  H29      1.0000 0.54830  0.88670  0.50100  Biso   1.000  H
  H30      1.0000 0.95170  0.38670  0.99900  Biso   1.000  H
  H31      1.0000 0.45170  0.11330  0.49900  Biso   1.000  H
  H32      1.0000 0.04830  0.61330  0.00100  Biso   1.000  H
