data_image0
_cell_length_a       10.8838
_cell_length_b       12.7348
_cell_length_c       6.0901
_cell_angle_alpha    90
_cell_angle_beta     90
_cell_angle_gamma    90

_symmetry_space_group_name_H-M    "P 1"
_symmetry_int_tables_number       1

loop_
  _symmetry_equiv_pos_as_xyz
  'x, y, z'

loop_
  _atom_site_label
  _atom_site_occupancy
  _atom_site_fract_x
  _atom_site_fract_y
  _atom_site_fract_z
  _atom_site_thermal_displace_type
  _atom_site_B_iso_or_equiv
  _atom_site_type_symbol
  Cu1      1.0000 0.09770  0.15651  0.25000  Biso   1.000  Cu
  Cu2      1.0000 0.90230  0.84349  0.75000  Biso   1.000  Cu
  Cu3      1.0000 0.09770  0.34349  0.75000  Biso   1.000  Cu
  Cu4      1.0000 0.90230  0.65651  0.25000  Biso   1.000  Cu
  Cl1      1.0000 0.89228  0.12193  0.25000  Biso   1.000  Cl
  Cl2      1.0000 0.10772  0.87807  0.75000  Biso   1.000  Cl
  Cl3      1.0000 0.89228  0.37807  0.75000  Biso   1.000  Cl
  Cl4      1.0000 0.10772  0.62193  0.25000  Biso   1.000  Cl
  Cl5      1.0000 0.08784  0.33405  0.25000  Biso   1.000  Cl
  Cl6      1.0000 0.91216  0.66595  0.75000  Biso   1.000  Cl
  Cl7      1.0000 0.08784  0.16595  0.75000  Biso   1.000  Cl
  Cl8      1.0000 0.91216  0.83405  0.25000  Biso   1.000  Cl
  C1       1.0000 0.33130  0.06330  0.25000  Biso   1.000  C
  C2       1.0000 0.66870  0.93670  0.75000  Biso   1.000  C
  C3       1.0000 0.33130  0.43670  0.75000  Biso   1.000  C
  C4       1.0000 0.66870  0.56330  0.25000  Biso   1.000  C
  N1       1.0000 0.47670  0.18320  0.25000  Biso   1.000  N
  N2       1.0000 0.52330  0.81680  0.75000  Biso   1.000  N
  N3       1.0000 0.47670  0.31680  0.75000  Biso   1.000  N
  N4       1.0000 0.52330  0.68320  0.25000  Biso   1.000  N
  N5       1.0000 0.13660  0.99600  0.25000  Biso   1.000  N
  N6       1.0000 0.86340  0.00400  0.75000  Biso   1.000  N
  N7       1.0000 0.13660  0.50400  0.75000  Biso   1.000  N
  N8       1.0000 0.86340  0.49600  0.25000  Biso   1.000  N
  N9       1.0000 0.27830  0.15830  0.25000  Biso   1.000  N
  N10      1.0000 0.72170  0.84170  0.75000  Biso   1.000  N
  N11      1.0000 0.27830  0.34170  0.75000  Biso   1.000  N
  N12      1.0000 0.72170  0.65830  0.25000  Biso   1.000  N
  N13      1.0000 0.26490  0.97610  0.25000  Biso   1.000  N
  N14      1.0000 0.73510  0.02390  0.75000  Biso   1.000  N
  N15      1.0000 0.26490  0.52390  0.75000  Biso   1.000  N
  N16      1.0000 0.73510  0.47610  0.25000  Biso   1.000  N
  N17      1.0000 0.37200  0.23000  0.25000  Biso   1.000  N
  N18      1.0000 0.62800  0.77000  0.75000  Biso   1.000  N
  N19      1.0000 0.37200  0.27000  0.75000  Biso   1.000  N
  N20      1.0000 0.62800  0.73000  0.25000  Biso   1.000  N
  N21      1.0000 0.45280  0.07720  0.25000  Biso   1.000  N
  N22      1.0000 0.54720  0.92280  0.75000  Biso   1.000  N
  N23      1.0000 0.45280  0.42280  0.75000  Biso   1.000  N
  N24      1.0000 0.54720  0.57720  0.25000  Biso   1.000  N
  C5       1.0000 0.31290  0.87030  0.25000  Biso   1.000  C
  C6       1.0000 0.68710  0.12970  0.75000  Biso   1.000  C
  C7       1.0000 0.31290  0.62970  0.75000  Biso   1.000  C
  C8       1.0000 0.68710  0.37030  0.25000  Biso   1.000  C
  H1       1.0000 0.24460  0.82020  0.25000  Biso   1.000  H
  H2       1.0000 0.75540  0.17980  0.75000  Biso   1.000  H
  H3       1.0000 0.24460  0.67980  0.75000  Biso   1.000  H
  H4       1.0000 0.75540  0.32020  0.25000  Biso   1.000  H
  H5       1.0000 0.36330  0.85950  0.38140  Biso   1.000  H
  H6       1.0000 0.63670  0.14050  0.88140  Biso   1.000  H
  H7       1.0000 0.36330  0.64050  0.61860  Biso   1.000  H
  H8       1.0000 0.63670  0.35950  0.11860  Biso   1.000  H
  H9       1.0000 0.63670  0.14050  0.61860  Biso   1.000  H
  H10      1.0000 0.36330  0.85950  0.11860  Biso   1.000  H
  H11      1.0000 0.63670  0.35950  0.38140  Biso   1.000  H
  H12      1.0000 0.36330  0.64050  0.88140  Biso   1.000  H
  H13      1.0000 0.51300  0.03600  0.25000  Biso   1.000  H
  H14      1.0000 0.48700  0.96400  0.75000  Biso   1.000  H
  H15      1.0000 0.51300  0.46400  0.75000  Biso   1.000  H
  H16      1.0000 0.48700  0.53600  0.25000  Biso   1.000  H
  H17      1.0000 0.10700  0.96500  0.13000  Biso   1.000  H
  H18      1.0000 0.89300  0.03500  0.63000  Biso   1.000  H
  H19      1.0000 0.10700  0.53500  0.87000  Biso   1.000  H
  H20      1.0000 0.89300  0.46500  0.37000  Biso   1.000  H
  H21      1.0000 0.89300  0.03500  0.87000  Biso   1.000  H
  H22      1.0000 0.10700  0.96500  0.37000  Biso   1.000  H
  H23      1.0000 0.89300  0.46500  0.13000  Biso   1.000  H
  H24      1.0000 0.10700  0.53500  0.63000  Biso   1.000  H
  O1       1.0000 0.65160  0.95560  0.25000  Biso   1.000  O
  O2       1.0000 0.34840  0.04440  0.75000  Biso   1.000  O
  O3       1.0000 0.65160  0.54440  0.75000  Biso   1.000  O
  O4       1.0000 0.34840  0.45560  0.25000  Biso   1.000  O
  H25      1.0000 0.64400  0.89500  0.25000  Biso   1.000  H
  H26      1.0000 0.35600  0.10500  0.75000  Biso   1.000  H
  H27      1.0000 0.64400  0.60500  0.75000  Biso   1.000  H
  H28      1.0000 0.35600  0.39500  0.25000  Biso   1.000  H
  H29      1.0000 0.72400  0.97900  0.25000  Biso   1.000  H
  H30      1.0000 0.27600  0.02100  0.75000  Biso   1.000  H
  H31      1.0000 0.72400  0.52100  0.75000  Biso   1.000  H
  H32      1.0000 0.27600  0.47900  0.25000  Biso   1.000  H
