data_image0
_cell_length_a       6.1807
_cell_length_b       7.9197
_cell_length_c       16.6645
_cell_angle_alpha    90
_cell_angle_beta     100.4
_cell_angle_gamma    90

_symmetry_space_group_name_H-M    "P 1"
_symmetry_int_tables_number       1

loop_
  _symmetry_equiv_pos_as_xyz
  'x, y, z'

loop_
  _atom_site_label
  _atom_site_occupancy
  _atom_site_fract_x
  _atom_site_fract_y
  _atom_site_fract_z
  _atom_site_thermal_displace_type
  _atom_site_B_iso_or_equiv
  _atom_site_type_symbol
  Cu1      1.0000 0.22299  0.09838  0.43795  Biso   1.000  Cu
  Cu2      1.0000 0.27701  0.59838  0.06205  Biso   1.000  Cu
  Cu3      1.0000 0.77701  0.90162  0.56205  Biso   1.000  Cu
  Cu4      1.0000 0.72299  0.40162  0.93795  Biso   1.000  Cu
  N1       1.0000 0.89300  0.10185  0.42829  Biso   1.000  N
  N2       1.0000 0.60700  0.60185  0.07171  Biso   1.000  N
  N3       1.0000 0.10700  0.89815  0.57171  Biso   1.000  N
  N4       1.0000 0.39300  0.39815  0.92829  Biso   1.000  N
  O1       1.0000 0.25690  0.33910  0.51934  Biso   1.000  O
  O2       1.0000 0.24310  0.83910  0.98066  Biso   1.000  O
  O3       1.0000 0.74310  0.66090  0.48066  Biso   1.000  O
  O4       1.0000 0.75690  0.16090  0.01934  Biso   1.000  O
  N5       1.0000 0.91770  0.29330  0.32244  Biso   1.000  N
  N6       1.0000 0.58230  0.79330  0.17756  Biso   1.000  N
  N7       1.0000 0.08230  0.70670  0.67756  Biso   1.000  N
  N8       1.0000 0.41770  0.20670  0.82244  Biso   1.000  N
  C1       1.0000 0.79780  0.20740  0.36970  Biso   1.000  C
  C2       1.0000 0.70220  0.70740  0.13030  Biso   1.000  C
  C3       1.0000 0.20220  0.79260  0.63030  Biso   1.000  C
  C4       1.0000 0.29780  0.29260  0.86970  Biso   1.000  C
  N9       1.0000 0.14160  0.23910  0.33488  Biso   1.000  N
  N10      1.0000 0.35840  0.73910  0.16512  Biso   1.000  N
  N11      1.0000 0.85840  0.76090  0.66512  Biso   1.000  N
  N12      1.0000 0.64160  0.26090  0.83488  Biso   1.000  N
  C5       1.0000 0.81860  0.36190  0.24484  Biso   1.000  C
  C6       1.0000 0.68140  0.86190  0.25516  Biso   1.000  C
  C7       1.0000 0.18140  0.63810  0.75516  Biso   1.000  C
  C8       1.0000 0.31860  0.13810  0.74484  Biso   1.000  C
  O5       1.0000 0.30200  0.58639  0.32262  Biso   1.000  O
  O6       1.0000 0.19800  0.08639  0.17738  Biso   1.000  O
  O7       1.0000 0.69800  0.41361  0.67738  Biso   1.000  O
  O8       1.0000 0.80200  0.91361  0.82262  Biso   1.000  O
  O9       1.0000 0.22810  0.84661  0.34728  Biso   1.000  O
  O10      1.0000 0.27190  0.34661  0.15272  Biso   1.000  O
  O11      1.0000 0.77190  0.15339  0.65272  Biso   1.000  O
  O12      1.0000 0.72810  0.65339  0.84728  Biso   1.000  O
  O13      1.0000 0.16520  0.64790  0.42986  Biso   1.000  O
  O14      1.0000 0.33480  0.14790  0.07014  Biso   1.000  O
  O15      1.0000 0.83480  0.35210  0.57014  Biso   1.000  O
  O16      1.0000 0.66520  0.85210  0.92986  Biso   1.000  O
  N13      1.0000 0.23190  0.69390  0.36632  Biso   1.000  N
  N14      1.0000 0.26810  0.19390  0.13368  Biso   1.000  N
  N15      1.0000 0.76810  0.30610  0.63368  Biso   1.000  N
  N16      1.0000 0.73190  0.80610  0.86632  Biso   1.000  N
  N17      1.0000 0.72630  0.04670  0.46376  Biso   1.000  N
  N18      1.0000 0.77370  0.54670  0.03624  Biso   1.000  N
  N19      1.0000 0.27370  0.95330  0.53624  Biso   1.000  N
  N20      1.0000 0.22630  0.45330  0.96376  Biso   1.000  N
  N21      1.0000 0.58140  0.21930  0.36639  Biso   1.000  N
  N22      1.0000 0.91860  0.71930  0.13361  Biso   1.000  N
  N23      1.0000 0.41860  0.78070  0.63361  Biso   1.000  N
  N24      1.0000 0.08140  0.28070  0.86639  Biso   1.000  N
  N25      1.0000 0.54390  0.11688  0.42650  Biso   1.000  N
  N26      1.0000 0.95610  0.61688  0.07350  Biso   1.000  N
  N27      1.0000 0.45610  0.88312  0.57350  Biso   1.000  N
  N28      1.0000 0.04390  0.38312  0.92650  Biso   1.000  N
  H1       1.0000 0.21700  0.33000  0.33970  Biso   1.000  H
  H2       1.0000 0.28300  0.83000  0.16030  Biso   1.000  H
  H3       1.0000 0.78300  0.67000  0.66030  Biso   1.000  H
  H4       1.0000 0.71700  0.17000  0.83970  Biso   1.000  H
  H5       1.0000 0.16000  0.18800  0.29430  Biso   1.000  H
  H6       1.0000 0.34000  0.68800  0.20570  Biso   1.000  H
  H7       1.0000 0.84000  0.81200  0.70570  Biso   1.000  H
  H8       1.0000 0.66000  0.31200  0.79430  Biso   1.000  H
  H9       1.0000 0.90300  0.43400  0.22600  Biso   1.000  H
  H10      1.0000 0.59700  0.93400  0.27400  Biso   1.000  H
  H11      1.0000 0.09700  0.56600  0.77400  Biso   1.000  H
  H12      1.0000 0.40300  0.06600  0.72600  Biso   1.000  H
  H13      1.0000 0.68100  0.39300  0.24470  Biso   1.000  H
  H14      1.0000 0.81900  0.89300  0.25530  Biso   1.000  H
  H15      1.0000 0.31900  0.60700  0.75530  Biso   1.000  H
  H16      1.0000 0.18100  0.10700  0.74470  Biso   1.000  H
  H17      1.0000 0.80200  0.26300  0.20300  Biso   1.000  H
  H18      1.0000 0.69800  0.76300  0.29700  Biso   1.000  H
  H19      1.0000 0.19800  0.73700  0.79700  Biso   1.000  H
  H20      1.0000 0.30200  0.23700  0.70300  Biso   1.000  H
  H21      1.0000 0.25700  0.43000  0.49910  Biso   1.000  H
  H22      1.0000 0.24300  0.93000  0.00090  Biso   1.000  H
  H23      1.0000 0.74300  0.57000  0.50090  Biso   1.000  H
  H24      1.0000 0.75700  0.07000  0.99910  Biso   1.000  H
  H25      1.0000 0.16700  0.34500  0.54100  Biso   1.000  H
  H26      1.0000 0.33300  0.84500  0.95900  Biso   1.000  H
  H27      1.0000 0.83300  0.65500  0.45900  Biso   1.000  H
  H28      1.0000 0.66700  0.15500  0.04100  Biso   1.000  H
