data_image0
_cell_length_a       6.8303
_cell_length_b       6.833
_cell_length_c       16.4376
_cell_angle_alpha    89.952
_cell_angle_beta     89.991
_cell_angle_gamma    89.98

_symmetry_space_group_name_H-M    "P 1"
_symmetry_int_tables_number       1

loop_
  _symmetry_equiv_pos_as_xyz
  'x, y, z'

loop_
  _atom_site_label
  _atom_site_occupancy
  _atom_site_fract_x
  _atom_site_fract_y
  _atom_site_fract_z
  _atom_site_thermal_displace_type
  _atom_site_B_iso_or_equiv
  _atom_site_type_symbol
  Cu1      1.0000 0.50000  0.50000  0.50000  Biso   1.000  Cu
  Cu2      1.0000 0.00000  0.00000  0.00000  Biso   1.000  Cu
  Cu3      1.0000 0.49996  0.99981  0.74997  Biso   1.000  Cu
  Cu4      1.0000 0.50004  0.00019  0.25003  Biso   1.000  Cu
  S1       1.0000 0.23591  0.99967  0.90303  Biso   1.000  S
  S2       1.0000 0.76409  0.00033  0.09697  Biso   1.000  S
  S3       1.0000 0.76432  0.99963  0.90322  Biso   1.000  S
  S4       1.0000 0.23568  0.00037  0.09678  Biso   1.000  S
  S5       1.0000 0.50029  0.26423  0.59678  Biso   1.000  S
  S6       1.0000 0.49971  0.73577  0.40322  Biso   1.000  S
  S7       1.0000 0.49982  0.73573  0.59687  Biso   1.000  S
  S8       1.0000 0.50018  0.26427  0.40313  Biso   1.000  S
  N1       1.0000 0.49920  0.70350  0.75670  Biso   1.000  N
  N2       1.0000 0.50080  0.29650  0.24330  Biso   1.000  N
  N3       1.0000 0.49990  0.29650  0.75684  Biso   1.000  N
  N4       1.0000 0.50010  0.70350  0.24316  Biso   1.000  N
  N5       1.0000 0.79640  0.00020  0.74322  Biso   1.000  N
  N6       1.0000 0.20360  0.99980  0.25678  Biso   1.000  N
  N7       1.0000 0.20380  0.00080  0.74330  Biso   1.000  N
  N8       1.0000 0.79620  0.99920  0.25670  Biso   1.000  N
  C1       1.0000 0.49920  0.39910  0.82720  Biso   1.000  C
  C2       1.0000 0.50080  0.60090  0.17280  Biso   1.000  C
  H1       1.0000 0.49780  0.33190  0.87650  Biso   1.000  H
  H2       1.0000 0.50220  0.66810  0.12350  Biso   1.000  H
  C3       1.0000 0.50060  0.60120  0.82760  Biso   1.000  C
  C4       1.0000 0.49940  0.39880  0.17240  Biso   1.000  C
  H3       1.0000 0.50240  0.66790  0.87680  Biso   1.000  H
  H4       1.0000 0.49760  0.33210  0.12320  Biso   1.000  H
  C5       1.0000 0.10030  0.00020  0.67260  Biso   1.000  C
  C6       1.0000 0.89970  0.99980  0.32740  Biso   1.000  C
  H5       1.0000 0.16710  0.99990  0.62330  Biso   1.000  H
  H6       1.0000 0.83290  0.00010  0.37670  Biso   1.000  H
  C7       1.0000 0.90020  0.00010  0.67240  Biso   1.000  C
  C8       1.0000 0.09980  0.99990  0.32760  Biso   1.000  C
  H7       1.0000 0.83360  0.99990  0.62300  Biso   1.000  H
  H8       1.0000 0.16640  0.00010  0.37700  Biso   1.000  H
  C9       1.0000 0.10560  0.99960  0.81380  Biso   1.000  C
  C10      1.0000 0.89440  0.00040  0.18620  Biso   1.000  C
  C11      1.0000 0.89400  0.00030  0.81390  Biso   1.000  C
  C12      1.0000 0.10600  0.99970  0.18610  Biso   1.000  C
  C13      1.0000 0.49960  0.60560  0.68600  Biso   1.000  C
  C14      1.0000 0.50040  0.39440  0.31400  Biso   1.000  C
  C15      1.0000 0.50000  0.39540  0.68640  Biso   1.000  C
  C16      1.0000 0.50000  0.60460  0.31360  Biso   1.000  C
  C17      1.0000 0.99980  0.49980  0.71190  Biso   1.000  C
  C18      1.0000 0.00020  0.50020  0.28810  Biso   1.000  C
  C19      1.0000 0.00040  0.49870  0.78790  Biso   1.000  C
  C20      1.0000 0.99960  0.50130  0.21210  Biso   1.000  C
  H9       1.0000 0.02000  0.47000  0.85100  Biso   1.000  H
  H10      1.0000 0.98000  0.53000  0.14900  Biso   1.000  H
  H11      1.0000 0.00000  0.51000  0.64600  Biso   1.000  H
  H12      1.0000 0.00000  0.49000  0.35400  Biso   1.000  H
