data_image0
_cell_length_a       14.824
_cell_length_b       19.384
_cell_length_c       29.616
_cell_angle_alpha    99.043
_cell_angle_beta     97.751
_cell_angle_gamma    101.782

_symmetry_space_group_name_H-M    "P 1"
_symmetry_int_tables_number       1

loop_
  _symmetry_equiv_pos_as_xyz
  'x, y, z'

loop_
  _atom_site_label
  _atom_site_occupancy
  _atom_site_fract_x
  _atom_site_fract_y
  _atom_site_fract_z
  _atom_site_thermal_displace_type
  _atom_site_B_iso_or_equiv
  _atom_site_type_symbol
  Cu1      1.0000 0.56432  0.61800  0.40139  Biso   1.000  Cu
  Cu2      1.0000 0.43568  0.38200  0.59861  Biso   1.000  Cu
  Cu3      1.0000 0.92752  0.22464  0.40239  Biso   1.000  Cu
  Cu4      1.0000 0.07248  0.77536  0.59761  Biso   1.000  Cu
  Cu5      1.0000 0.93271  0.39317  0.09949  Biso   1.000  Cu
  Cu6      1.0000 0.06729  0.60683  0.90051  Biso   1.000  Cu
  Cu7      1.0000 0.57416  0.78275  0.10399  Biso   1.000  Cu
  Cu8      1.0000 0.42584  0.21725  0.89601  Biso   1.000  Cu
  O1       1.0000 0.66590  0.63000  0.45160  Biso   1.000  O
  O2       1.0000 0.33410  0.37000  0.54840  Biso   1.000  O
  O3       1.0000 0.51470  0.52090  0.40730  Biso   1.000  O
  O4       1.0000 0.48530  0.47910  0.59270  Biso   1.000  O
  O5       1.0000 0.96290  0.30950  0.45030  Biso   1.000  O
  O6       1.0000 0.03710  0.69050  0.54970  Biso   1.000  O
  O7       1.0000 0.79810  0.20780  0.41060  Biso   1.000  O
  O8       1.0000 0.20190  0.79220  0.58940  Biso   1.000  O
  O9       1.0000 0.88370  0.15110  0.34710  Biso   1.000  O
  O10      1.0000 0.11630  0.84890  0.65290  Biso   1.000  O
  O11      1.0000 0.04640  0.25440  0.38330  Biso   1.000  O
  O12      1.0000 0.95360  0.74560  0.61670  Biso   1.000  O
  O13      1.0000 0.87840  0.29680  0.10530  Biso   1.000  O
  O14      1.0000 0.12160  0.70320  0.89470  Biso   1.000  O
  O15      1.0000 0.04780  0.39390  0.13830  Biso   1.000  O
  O16      1.0000 0.95220  0.60610  0.86170  Biso   1.000  O
  O17      1.0000 0.99160  0.48540  0.08750  Biso   1.000  O
  O18      1.0000 0.00840  0.51460  0.91250  Biso   1.000  O
  O19      1.0000 0.82670  0.38370  0.05160  Biso   1.000  O
  O20      1.0000 0.17330  0.61630  0.94840  Biso   1.000  O
  O21      1.0000 0.70380  0.80150  0.09470  Biso   1.000  O
  O22      1.0000 0.29620  0.19850  0.90530  Biso   1.000  O
  O23      1.0000 0.54110  0.69630  0.05780  Biso   1.000  O
  O24      1.0000 0.45890  0.30370  0.94220  Biso   1.000  O
  O25      1.0000 0.45090  0.75620  0.12000  Biso   1.000  O
  O26      1.0000 0.54910  0.24380  0.88000  Biso   1.000  O
  O27      1.0000 0.61810  0.85130  0.16060  Biso   1.000  O
  O28      1.0000 0.38190  0.14870  0.83940  Biso   1.000  O
  O29      1.0000 0.45080  0.60990  0.35890  Biso   1.000  O
  O30      1.0000 0.54920  0.39010  0.64110  Biso   1.000  O
  O31      1.0000 0.60370  0.71950  0.40190  Biso   1.000  O
  O32      1.0000 0.39630  0.28050  0.59810  Biso   1.000  O
  N1       1.0000 0.64870  0.58250  0.34320  Biso   1.000  N
  N2       1.0000 0.35130  0.41750  0.65680  Biso   1.000  N
  N3       1.0000 0.87000  0.44640  0.16170  Biso   1.000  N
  N4       1.0000 0.13000  0.55360  0.83830  Biso   1.000  N
  N5       1.0000 0.96570  0.14760  0.44710  Biso   1.000  N
  N6       1.0000 0.03430  0.85240  0.55290  Biso   1.000  N
  N7       1.0000 0.53710  0.85990  0.05920  Biso   1.000  N
  N8       1.0000 0.46290  0.14010  0.94080  Biso   1.000  N
  C1       1.0000 0.77580  0.60620  0.50910  Biso   1.000  C
  C2       1.0000 0.22420  0.39380  0.49090  Biso   1.000  C
  H1       1.0000 0.81260  0.65110  0.50340  Biso   1.000  H
  H2       1.0000 0.18740  0.34890  0.49660  Biso   1.000  H
  H3       1.0000 0.81300  0.56970  0.50720  Biso   1.000  H
  H4       1.0000 0.18700  0.43030  0.49280  Biso   1.000  H
  H5       1.0000 0.75880  0.61430  0.54000  Biso   1.000  H
  H6       1.0000 0.24120  0.38570  0.46000  Biso   1.000  H
  C3       1.0000 0.68780  0.58050  0.47270  Biso   1.000  C
  C4       1.0000 0.31220  0.41950  0.52730  Biso   1.000  C
  C5       1.0000 0.63680  0.50950  0.46480  Biso   1.000  C
  C6       1.0000 0.36320  0.49050  0.53520  Biso   1.000  C
  C7       1.0000 0.55190  0.48430  0.43330  Biso   1.000  C
  C8       1.0000 0.44810  0.51570  0.56670  Biso   1.000  C
  C9       1.0000 0.49630  0.40880  0.43040  Biso   1.000  C
  C10      1.0000 0.50370  0.59120  0.56960  Biso   1.000  C
  H7       1.0000 0.48310  0.40230  0.46120  Biso   1.000  H
  H8       1.0000 0.51690  0.59770  0.53880  Biso   1.000  H
  H9       1.0000 0.53240  0.37450  0.41930  Biso   1.000  H
  H10      1.0000 0.46760  0.62550  0.58070  Biso   1.000  H
  H11      1.0000 0.43720  0.40050  0.40880  Biso   1.000  H
  H12      1.0000 0.56280  0.59950  0.59120  Biso   1.000  H
  C11      1.0000 0.67310  0.45640  0.49090  Biso   1.000  C
  C12      1.0000 0.32690  0.54360  0.50910  Biso   1.000  C
  C13      1.0000 0.65560  0.45010  0.53460  Biso   1.000  C
  C14      1.0000 0.34440  0.54990  0.46540  Biso   1.000  C
  H13      1.0000 0.62150  0.48080  0.54940  Biso   1.000  H
  H14      1.0000 0.37850  0.51920  0.45060  Biso   1.000  H
  C15      1.0000 0.68700  0.39910  0.55810  Biso   1.000  C
  C16      1.0000 0.31300  0.60090  0.44190  Biso   1.000  C
  H15      1.0000 0.67360  0.39470  0.58810  Biso   1.000  H
  H16      1.0000 0.32640  0.60530  0.41190  Biso   1.000  H
  C17      1.0000 0.73810  0.35560  0.53610  Biso   1.000  C
  C18      1.0000 0.26190  0.64440  0.46390  Biso   1.000  C
  H17      1.0000 0.76150  0.32200  0.55170  Biso   1.000  H
  H18      1.0000 0.23850  0.67800  0.44830  Biso   1.000  H
  C19      1.0000 0.75540  0.36050  0.49150  Biso   1.000  C
  C20      1.0000 0.24460  0.63950  0.50850  Biso   1.000  C
  C21      1.0000 0.72270  0.41180  0.46970  Biso   1.000  C
  C22      1.0000 0.27730  0.58820  0.53030  Biso   1.000  C
  H19      1.0000 0.73500  0.41600  0.43950  Biso   1.000  H
  H20      1.0000 0.26500  0.58400  0.56050  Biso   1.000  H
  C23      1.0000 0.95530  0.40320  0.50890  Biso   1.000  C
  C24      1.0000 0.04470  0.59680  0.49110  Biso   1.000  C
  H21      1.0000 0.94770  0.39340  0.53980  Biso   1.000  H
  H22      1.0000 0.05230  0.60660  0.46020  Biso   1.000  H
  H23      1.0000 0.92720  0.44330  0.50320  Biso   1.000  H
  H24      1.0000 0.07280  0.55670  0.49680  Biso   1.000  H
  H25      1.0000 0.02200  0.41560  0.50710  Biso   1.000  H
  H26      1.0000 0.97800  0.58440  0.49290  Biso   1.000  H
  C25      1.0000 0.90790  0.33810  0.47300  Biso   1.000  C
  C26      1.0000 0.09210  0.66190  0.52700  Biso   1.000  C
  C27      1.0000 0.81000  0.31370  0.46620  Biso   1.000  C
  C28      1.0000 0.19000  0.68630  0.53380  Biso   1.000  C
  C29      1.0000 0.76080  0.25080  0.43600  Biso   1.000  C
  C30      1.0000 0.23920  0.74920  0.56400  Biso   1.000  C
  C31      1.0000 0.65570  0.22600  0.43080  Biso   1.000  C
  C32      1.0000 0.34430  0.77400  0.56920  Biso   1.000  C
  H27      1.0000 0.63460  0.17900  0.41010  Biso   1.000  H
  H28      1.0000 0.36540  0.82100  0.58990  Biso   1.000  H
  H29      1.0000 0.62580  0.26080  0.41770  Biso   1.000  H
  H30      1.0000 0.37420  0.73920  0.58230  Biso   1.000  H
  H31      1.0000 0.63860  0.22210  0.46130  Biso   1.000  H
  H32      1.0000 0.36140  0.77790  0.53870  Biso   1.000  H
  C33      1.0000 0.86820  0.08500  0.27140  Biso   1.000  C
  C34      1.0000 0.13180  0.91500  0.72860  Biso   1.000  C
  H33      1.0000 0.89340  0.04220  0.27220  Biso   1.000  H
  H34      1.0000 0.10660  0.95780  0.72780  Biso   1.000  H
  H35      1.0000 0.87420  0.10060  0.24180  Biso   1.000  H
  H36      1.0000 0.12580  0.89940  0.75820  Biso   1.000  H
  H37      1.0000 0.80210  0.07370  0.27450  Biso   1.000  H
  H38      1.0000 0.19790  0.92630  0.72550  Biso   1.000  H
  C35      1.0000 0.92190  0.14400  0.31070  Biso   1.000  C
  C36      1.0000 0.07810  0.85600  0.68930  Biso   1.000  C
  C37      1.0000 0.00860  0.18570  0.30580  Biso   1.000  C
  C38      1.0000 0.99140  0.81430  0.69420  Biso   1.000  C
  C39      1.0000 0.06560  0.23800  0.34310  Biso   1.000  C
  C40      1.0000 0.93440  0.76200  0.65690  Biso   1.000  C
  C41      1.0000 0.15990  0.27910  0.33580  Biso   1.000  C
  C42      1.0000 0.84010  0.72090  0.66420  Biso   1.000  C
  H39      1.0000 0.19340  0.31020  0.36510  Biso   1.000  H
  H40      1.0000 0.80660  0.68980  0.63490  Biso   1.000  H
  H41      1.0000 0.15030  0.30850  0.31230  Biso   1.000  H
  H42      1.0000 0.84970  0.69150  0.68770  Biso   1.000  H
  H43      1.0000 0.19690  0.24510  0.32530  Biso   1.000  H
  H44      1.0000 0.80310  0.75490  0.67470  Biso   1.000  H
  C43      1.0000 0.03680  0.18080  0.25960  Biso   1.000  C
  C44      1.0000 0.96320  0.81920  0.74040  Biso   1.000  C
  C45      1.0000 0.09200  0.13500  0.24320  Biso   1.000  C
  C46      1.0000 0.90800  0.86500  0.75680  Biso   1.000  C
  H45      1.0000 0.11120  0.10310  0.26180  Biso   1.000  H
  H46      1.0000 0.88880  0.89690  0.73820  Biso   1.000  H
  C47      1.0000 0.11850  0.13540  0.20100  Biso   1.000  C
  C48      1.0000 0.88150  0.86460  0.79900  Biso   1.000  C
  H47      1.0000 0.15740  0.10480  0.19100  Biso   1.000  H
  H48      1.0000 0.84260  0.89520  0.80900  Biso   1.000  H
  C49      1.0000 0.08930  0.18050  0.17190  Biso   1.000  C
  C50      1.0000 0.91070  0.81950  0.82810  Biso   1.000  C
  H49      1.0000 0.10700  0.17900  0.14210  Biso   1.000  H
  H50      1.0000 0.89300  0.82100  0.85790  Biso   1.000  H
  C51      1.0000 0.03540  0.22640  0.18640  Biso   1.000  C
  C52      1.0000 0.96460  0.77360  0.81360  Biso   1.000  C
  C53      1.0000 0.01050  0.22600  0.23020  Biso   1.000  C
  C54      1.0000 0.98950  0.77400  0.76980  Biso   1.000  C
  H51      1.0000 0.97370  0.25810  0.24060  Biso   1.000  H
  H52      1.0000 0.02630  0.74190  0.75940  Biso   1.000  H
  C55      1.0000 0.85370  0.18420  0.12830  Biso   1.000  C
  C56      1.0000 0.14630  0.81580  0.87170  Biso   1.000  C
  H53      1.0000 0.83670  0.18000  0.15880  Biso   1.000  H
  H54      1.0000 0.16330  0.82000  0.84120  Biso   1.000  H
  H55      1.0000 0.88780  0.14750  0.11900  Biso   1.000  H
  H56      1.0000 0.11220  0.85250  0.88100  Biso   1.000  H
  H57      1.0000 0.79680  0.17730  0.10540  Biso   1.000  H
  H58      1.0000 0.20320  0.82270  0.89460  Biso   1.000  H
  C57      1.0000 0.91470  0.25750  0.13100  Biso   1.000  C
  C58      1.0000 0.08530  0.74250  0.86900  Biso   1.000  C
  C59      1.0000 0.00400  0.27720  0.15740  Biso   1.000  C
  C60      1.0000 0.99600  0.72280  0.84260  Biso   1.000  C
  C61      1.0000 0.06610  0.34460  0.15990  Biso   1.000  C
  C62      1.0000 0.93390  0.65540  0.84010  Biso   1.000  C
  C63      1.0000 0.16140  0.36160  0.18950  Biso   1.000  C
  C64      1.0000 0.83860  0.63840  0.81050  Biso   1.000  C
  H59      1.0000 0.19570  0.40940  0.18710  Biso   1.000  H
  H60      1.0000 0.80430  0.59060  0.81290  Biso   1.000  H
  H61      1.0000 0.19580  0.32590  0.17870  Biso   1.000  H
  H62      1.0000 0.80420  0.67410  0.82130  Biso   1.000  H
  H63      1.0000 0.15480  0.36070  0.22190  Biso   1.000  H
  H64      1.0000 0.84520  0.63930  0.77810  Biso   1.000  H
  C65      1.0000 0.01730  0.59380  0.06010  Biso   1.000  C
  C66      1.0000 0.98270  0.40620  0.93990  Biso   1.000  C
  H65      1.0000 0.07710  0.60030  0.08080  Biso   1.000  H
  H66      1.0000 0.92290  0.39970  0.91920  Biso   1.000  H
  H67      1.0000 0.98660  0.63220  0.07050  Biso   1.000  H
  H68      1.0000 0.01340  0.36780  0.92950  Biso   1.000  H
  H69      1.0000 0.02850  0.59540  0.02840  Biso   1.000  H
  H70      1.0000 0.97150  0.40460  0.97160  Biso   1.000  H
  C67      1.0000 0.95560  0.52240  0.06110  Biso   1.000  C
  C68      1.0000 0.04440  0.47760  0.93890  Biso   1.000  C
  C69      1.0000 0.86670  0.50240  0.03430  Biso   1.000  C
  C70      1.0000 0.13330  0.49760  0.96570  Biso   1.000  C
  C71      1.0000 0.80840  0.43330  0.02930  Biso   1.000  C
  C72      1.0000 0.19160  0.56670  0.97070  Biso   1.000  C
  C73      1.0000 0.71650  0.41210  0.99580  Biso   1.000  C
  C74      1.0000 0.28350  0.58790  0.00420  Biso   1.000  C
  H71      1.0000 0.67870  0.36770  0.00170  Biso   1.000  H
  H72      1.0000 0.32130  0.63230  0.99830  Biso   1.000  H
  H73      1.0000 0.72860  0.40420  0.96390  Biso   1.000  H
  H74      1.0000 0.27140  0.59580  0.03610  Biso   1.000  H
  H75      1.0000 0.68270  0.45040  0.00020  Biso   1.000  H
  H76      1.0000 0.31730  0.54960  0.99980  Biso   1.000  H
  C75      1.0000 0.83000  0.55650  0.00920  Biso   1.000  C
  C76      1.0000 0.17000  0.44350  0.99080  Biso   1.000  C
  C77      1.0000 0.84330  0.56390  0.96520  Biso   1.000  C
  C78      1.0000 0.15670  0.43610  0.03480  Biso   1.000  C
  H77      1.0000 0.87630  0.53370  0.94900  Biso   1.000  H
  H78      1.0000 0.12370  0.46630  0.05100  Biso   1.000  H
  C79      1.0000 0.80960  0.61430  0.94380  Biso   1.000  C
  C80      1.0000 0.19040  0.38570  0.05620  Biso   1.000  C
  H79      1.0000 0.81860  0.61810  0.91310  Biso   1.000  H
  H80      1.0000 0.18140  0.38190  0.08690  Biso   1.000  H
  C81      1.0000 0.76250  0.65950  0.96760  Biso   1.000  C
  C82      1.0000 0.23750  0.34050  0.03240  Biso   1.000  C
  H81      1.0000 0.74100  0.69520  0.95340  Biso   1.000  H
  H82      1.0000 0.25900  0.30480  0.04660  Biso   1.000  H
  C83      1.0000 0.74680  0.65260  0.01230  Biso   1.000  C
  C84      1.0000 0.25320  0.34740  0.98770  Biso   1.000  C
  C85      1.0000 0.78120  0.60130  0.03190  Biso   1.000  C
  C86      1.0000 0.21880  0.39870  0.96810  Biso   1.000  C
  H83      1.0000 0.77110  0.59630  0.06230  Biso   1.000  H
  H84      1.0000 0.22890  0.40370  0.93770  Biso   1.000  H
  C87      1.0000 0.84120  0.79150  0.06570  Biso   1.000  C
  C88      1.0000 0.15880  0.20850  0.93430  Biso   1.000  C
  H85      1.0000 0.86540  0.83510  0.08950  Biso   1.000  H
  H86      1.0000 0.13460  0.16490  0.91050  Biso   1.000  H
  H87      1.0000 0.84710  0.80310  0.03500  Biso   1.000  H
  H88      1.0000 0.15290  0.19690  0.96500  Biso   1.000  H
  H89      1.0000 0.87720  0.75570  0.07150  Biso   1.000  H
  H90      1.0000 0.12280  0.24430  0.92850  Biso   1.000  H
  C89      1.0000 0.73990  0.76180  0.06730  Biso   1.000  C
  C90      1.0000 0.26010  0.23820  0.93270  Biso   1.000  C
  C91      1.0000 0.69320  0.69720  0.03890  Biso   1.000  C
  C92      1.0000 0.30680  0.30280  0.96110  Biso   1.000  C
  C93      1.0000 0.59730  0.66810  0.03540  Biso   1.000  C
  C94      1.0000 0.40270  0.33190  0.96460  Biso   1.000  C
  C95      1.0000 0.54980  0.59880  0.00250  Biso   1.000  C
  C96      1.0000 0.45020  0.40120  0.99750  Biso   1.000  C
  H91      1.0000 0.48880  0.57990  0.01060  Biso   1.000  H
  H92      1.0000 0.51120  0.42010  0.98940  Biso   1.000  H
  H93      1.0000 0.58870  0.56380  0.00470  Biso   1.000  H
  H94      1.0000 0.41130  0.43620  0.99530  Biso   1.000  H
  H95      1.0000 0.54100  0.60760  0.97060  Biso   1.000  H
  H96      1.0000 0.45900  0.39240  0.02940  Biso   1.000  H
  C97      1.0000 0.32810  0.74040  0.16240  Biso   1.000  C
  C98      1.0000 0.67190  0.25960  0.83760  Biso   1.000  C
  H97      1.0000 0.28950  0.77560  0.16020  Biso   1.000  H
  H98      1.0000 0.71050  0.22440  0.83980  Biso   1.000  H
  H99      1.0000 0.32730  0.72480  0.19230  Biso   1.000  H
  H100     1.0000 0.67270  0.27520  0.80770  Biso   1.000  H
  H101     1.0000 0.30320  0.69880  0.13710  Biso   1.000  H
  H102     1.0000 0.69680  0.30120  0.86290  Biso   1.000  H
  C99      1.0000 0.42710  0.77410  0.15870  Biso   1.000  C
  C100     1.0000 0.57290  0.22590  0.84130  Biso   1.000  C
  C101     1.0000 0.48550  0.82130  0.19730  Biso   1.000  C
  C102     1.0000 0.51450  0.17870  0.80270  Biso   1.000  C
  C103     1.0000 0.57760  0.85730  0.19640  Biso   1.000  C
  C104     1.0000 0.42240  0.14270  0.80360  Biso   1.000  C
  C105     1.0000 0.63440  0.90840  0.23920  Biso   1.000  C
  C106     1.0000 0.36560  0.09160  0.76080  Biso   1.000  C
  H103     1.0000 0.67090  0.88260  0.25770  Biso   1.000  H
  H104     1.0000 0.32910  0.11740  0.74230  Biso   1.000  H
  H105     1.0000 0.59230  0.92830  0.25770  Biso   1.000  H
  H106     1.0000 0.40770  0.07170  0.74230  Biso   1.000  H
  H107     1.0000 0.67690  0.94750  0.23000  Biso   1.000  H
  H108     1.0000 0.32310  0.05250  0.77000  Biso   1.000  H
  C107     1.0000 0.45260  0.82540  0.24290  Biso   1.000  C
  C108     1.0000 0.54740  0.17460  0.75710  Biso   1.000  C
  C109     1.0000 0.39560  0.87090  0.25780  Biso   1.000  C
  C110     1.0000 0.60440  0.12910  0.74220  Biso   1.000  C
  H109     1.0000 0.37780  0.90240  0.23850  Biso   1.000  H
  H110     1.0000 0.62220  0.09760  0.76150  Biso   1.000  H
  C111     1.0000 0.36490  0.87070  0.29990  Biso   1.000  C
  C112     1.0000 0.63510  0.12930  0.70010  Biso   1.000  C
  H111     1.0000 0.32630  0.90210  0.30910  Biso   1.000  H
  H112     1.0000 0.67370  0.09790  0.69090  Biso   1.000  H
  C113     1.0000 0.38940  0.82570  0.32860  Biso   1.000  C
  C114     1.0000 0.61060  0.17430  0.67140  Biso   1.000  C
  H113     1.0000 0.36790  0.82610  0.35740  Biso   1.000  H
  H114     1.0000 0.63210  0.17390  0.64260  Biso   1.000  H
  C115     1.0000 0.44610  0.77950  0.31520  Biso   1.000  C
  C116     1.0000 0.55390  0.22050  0.68480  Biso   1.000  C
  C117     1.0000 0.47700  0.78130  0.27270  Biso   1.000  C
  C118     1.0000 0.52300  0.21870  0.72730  Biso   1.000  C
  H115     1.0000 0.51670  0.75070  0.26390  Biso   1.000  H
  H116     1.0000 0.48330  0.24930  0.73610  Biso   1.000  H
  C119     1.0000 0.33360  0.63540  0.30680  Biso   1.000  C
  C120     1.0000 0.66640  0.36460  0.69320  Biso   1.000  C
  H117     1.0000 0.29630  0.59260  0.31490  Biso   1.000  H
  H118     1.0000 0.70370  0.40740  0.68510  Biso   1.000  H
  H119     1.0000 0.34400  0.62420  0.27480  Biso   1.000  H
  H120     1.0000 0.65600  0.37580  0.72520  Biso   1.000  H
  H121     1.0000 0.30000  0.67410  0.30980  Biso   1.000  H
  H122     1.0000 0.70000  0.32590  0.69020  Biso   1.000  H
  C121     1.0000 0.42600  0.65900  0.33900  Biso   1.000  C
  C122     1.0000 0.57400  0.34100  0.66100  Biso   1.000  C
  C123     1.0000 0.47860  0.73040  0.34520  Biso   1.000  C
  C124     1.0000 0.52140  0.26960  0.65480  Biso   1.000  C
  C125     1.0000 0.56390  0.75690  0.37690  Biso   1.000  C
  C126     1.0000 0.43610  0.24310  0.62310  Biso   1.000  C
  C127     1.0000 0.61320  0.83320  0.38230  Biso   1.000  C
  C128     1.0000 0.38680  0.16680  0.61770  Biso   1.000  C
  H123     1.0000 0.66010  0.84700  0.41080  Biso   1.000  H
  H124     1.0000 0.33990  0.15300  0.58920  Biso   1.000  H
  H125     1.0000 0.56790  0.86360  0.38410  Biso   1.000  H
  H126     1.0000 0.43210  0.13640  0.61590  Biso   1.000  H
  H127     1.0000 0.64420  0.83960  0.35550  Biso   1.000  H
  H128     1.0000 0.35580  0.16040  0.64450  Biso   1.000  H
  C129     1.0000 0.62630  0.59140  0.30010  Biso   1.000  C
  C130     1.0000 0.37370  0.40860  0.69990  Biso   1.000  C
  H129     1.0000 0.57850  0.61640  0.29380  Biso   1.000  H
  H130     1.0000 0.42150  0.38360  0.70620  Biso   1.000  H
  C131     1.0000 0.66790  0.56660  0.26330  Biso   1.000  C
  C132     1.0000 0.33210  0.43340  0.73670  Biso   1.000  C
  H131     1.0000 0.64890  0.57450  0.23290  Biso   1.000  H
  H132     1.0000 0.35110  0.42550  0.76710  Biso   1.000  H
  C133     1.0000 0.73770  0.53000  0.27190  Biso   1.000  C
  C134     1.0000 0.26230  0.47000  0.72810  Biso   1.000  C
  C135     1.0000 0.76150  0.52190  0.31680  Biso   1.000  C
  C136     1.0000 0.23850  0.47810  0.68320  Biso   1.000  C
  H133     1.0000 0.81020  0.49840  0.32440  Biso   1.000  H
  H134     1.0000 0.18980  0.50160  0.67560  Biso   1.000  H
  C137     1.0000 0.71610  0.54720  0.35070  Biso   1.000  C
  C138     1.0000 0.28390  0.45280  0.64930  Biso   1.000  C
  H135     1.0000 0.73330  0.53920  0.38120  Biso   1.000  H
  H136     1.0000 0.26670  0.46080  0.61880  Biso   1.000  H
  C139     1.0000 0.84180  0.50800  0.16270  Biso   1.000  C
  C140     1.0000 0.15820  0.49200  0.83730  Biso   1.000  C
  H137     1.0000 0.85080  0.53280  0.13790  Biso   1.000  H
  H138     1.0000 0.14920  0.46720  0.86210  Biso   1.000  H
  C141     1.0000 0.80070  0.53710  0.19750  Biso   1.000  C
  C142     1.0000 0.19930  0.46290  0.80250  Biso   1.000  C
  H139     1.0000 0.78380  0.58170  0.19670  Biso   1.000  H
  H140     1.0000 0.21620  0.41830  0.80330  Biso   1.000  H
  C143     1.0000 0.78360  0.50160  0.23390  Biso   1.000  C
  C144     1.0000 0.21640  0.49840  0.76610  Biso   1.000  C
  C145     1.0000 0.81490  0.43800  0.23350  Biso   1.000  C
  C146     1.0000 0.18510  0.56200  0.76650  Biso   1.000  C
  H141     1.0000 0.80760  0.41240  0.25810  Biso   1.000  H
  H142     1.0000 0.19240  0.58760  0.74190  Biso   1.000  H
  C147     1.0000 0.85620  0.41260  0.19750  Biso   1.000  C
  C148     1.0000 0.14380  0.58740  0.80250  Biso   1.000  C
  H143     1.0000 0.87600  0.36910  0.19780  Biso   1.000  H
  H144     1.0000 0.12400  0.63090  0.80220  Biso   1.000  H
  C149     1.0000 0.91540  0.12540  0.47860  Biso   1.000  C
  C150     1.0000 0.08460  0.87460  0.52140  Biso   1.000  C
  H145     1.0000 0.86920  0.15030  0.48690  Biso   1.000  H
  H146     1.0000 0.13080  0.84970  0.51310  Biso   1.000  H
  C151     1.0000 0.92670  0.06880  0.49960  Biso   1.000  C
  C152     1.0000 0.07330  0.93120  0.50040  Biso   1.000  C
  H147     1.0000 0.88830  0.05550  0.52150  Biso   1.000  H
  H148     1.0000 0.11170  0.94450  0.47850  Biso   1.000  H
  C153     1.0000 0.99290  0.03100  0.48960  Biso   1.000  C
  C154     1.0000 0.00710  0.96900  0.51040  Biso   1.000  C
  C155     1.0000 0.04760  0.05610  0.45790  Biso   1.000  C
  C156     1.0000 0.95240  0.94390  0.54210  Biso   1.000  C
  H149     1.0000 0.09660  0.03400  0.45030  Biso   1.000  H
  H150     1.0000 0.90340  0.96600  0.54970  Biso   1.000  H
  C157     1.0000 0.03090  0.11220  0.43790  Biso   1.000  C
  C158     1.0000 0.96910  0.88780  0.56210  Biso   1.000  C
  H151     1.0000 0.06850  0.12680  0.41600  Biso   1.000  H
  H152     1.0000 0.93150  0.87320  0.58400  Biso   1.000  H
  C159     1.0000 0.57300  0.87090  0.02230  Biso   1.000  C
  C160     1.0000 0.42700  0.12910  0.97770  Biso   1.000  C
  H153     1.0000 0.61140  0.84040  0.01160  Biso   1.000  H
  H154     1.0000 0.38860  0.15960  0.98840  Biso   1.000  H
  C161     1.0000 0.55850  0.92420  0.99790  Biso   1.000  C
  C162     1.0000 0.44150  0.07580  0.00210  Biso   1.000  C
  H155     1.0000 0.58570  0.92850  0.97090  Biso   1.000  H
  H156     1.0000 0.41430  0.07150  0.02910  Biso   1.000  H
  C163     1.0000 0.50630  0.96980  0.01190  Biso   1.000  C
  C164     1.0000 0.49370  0.03020  0.98810  Biso   1.000  C
  C165     1.0000 0.46500  0.95670  0.04850  Biso   1.000  C
  C166     1.0000 0.53500  0.04330  0.95150  Biso   1.000  C
  H157     1.0000 0.42320  0.98460  0.05860  Biso   1.000  H
  H158     1.0000 0.57680  0.01540  0.94140  Biso   1.000  H
  C167     1.0000 0.48340  0.90210  0.07170  Biso   1.000  C
  C168     1.0000 0.51660  0.09790  0.92830  Biso   1.000  C
  H159     1.0000 0.45490  0.89550  0.09800  Biso   1.000  H
  H160     1.0000 0.54510  0.10450  0.90200  Biso   1.000  H
  Cl1      1.0000 0.85970  0.72945  0.17244  Biso   1.000  Cl
  Cl2      1.0000 0.14030  0.27055  0.82756  Biso   1.000  Cl
  Cl3      1.0000 0.86960  0.84950  0.24572  Biso   1.000  Cl
  Cl4      1.0000 0.13040  0.15050  0.75428  Biso   1.000  Cl
  Cl5      1.0000 0.70730  0.73258  0.22230  Biso   1.000  Cl
  Cl6      1.0000 0.29270  0.26742  0.77770  Biso   1.000  Cl
  C169     1.0000 0.79580  0.78430  0.20100  Biso   1.000  C
  C170     1.0000 0.20420  0.21570  0.79900  Biso   1.000  C
  H161     1.0000 0.76640  0.80930  0.17800  Biso   1.000  H
  H162     1.0000 0.23360  0.19070  0.82200  Biso   1.000  H
  Cl7      1.0000 0.38950  0.51242  0.10230  Biso   1.000  Cl
  Cl8      1.0000 0.61050  0.48758  0.89770  Biso   1.000  Cl
  Cl9      1.0000 0.47369  0.61740  0.18508  Biso   1.000  Cl
  Cl10     1.0000 0.52631  0.38260  0.81492  Biso   1.000  Cl
  Cl11     1.0000 0.59030  0.56602  0.12340  Biso   1.000  Cl
  Cl12     1.0000 0.40970  0.43398  0.87660  Biso   1.000  Cl
  C171     1.0000 0.48080  0.58690  0.12700  Biso   1.000  C
  C172     1.0000 0.51920  0.41310  0.87300  Biso   1.000  C
  H163     1.0000 0.47510  0.62630  0.10950  Biso   1.000  H
  H164     1.0000 0.52490  0.37370  0.89050  Biso   1.000  H
  Cl13     1.0000 0.51150  0.39607  0.30240  Biso   1.000  Cl
  Cl14     1.0000 0.48850  0.60393  0.69760  Biso   1.000  Cl
  Cl15     1.0000 0.32350  0.40390  0.31412  Biso   1.000  Cl
  Cl16     1.0000 0.67650  0.59610  0.68588  Biso   1.000  Cl
  Cl17     1.0000 0.40810  0.47350  0.24695  Biso   1.000  Cl
  Cl18     1.0000 0.59190  0.52650  0.75305  Biso   1.000  Cl
  C173     1.0000 0.42690  0.44890  0.30140  Biso   1.000  C
  C174     1.0000 0.57310  0.55110  0.69860  Biso   1.000  C
  H165     1.0000 0.45180  0.49370  0.32550  Biso   1.000  H
  H166     1.0000 0.54820  0.50630  0.67450  Biso   1.000  H
  Cl19     1.0000 0.65830  0.27010  0.15160  Biso   1.000  Cl
  Cl20     1.0000 0.34170  0.72990  0.84840  Biso   1.000  Cl
  Cl21     1.0000 0.60150  0.24960  0.05270  Biso   1.000  Cl
  Cl22     1.0000 0.39850  0.75040  0.94730  Biso   1.000  Cl
  Cl23     1.0000 0.62120  0.38810  0.10994  Biso   1.000  Cl
  Cl24     1.0000 0.37880  0.61190  0.89006  Biso   1.000  Cl
  C175     1.0000 0.66490  0.30980  0.10160  Biso   1.000  C
  C176     1.0000 0.33510  0.69020  0.89840  Biso   1.000  C
  H167     1.0000 0.73180  0.32320  0.09760  Biso   1.000  H
  H168     1.0000 0.26820  0.67680  0.90240  Biso   1.000  H
  Cl25     1.0000 0.64390  0.03640  0.34016  Biso   1.000  Cl
  Cl26     1.0000 0.35610  0.96360  0.65984  Biso   1.000  Cl
  Cl27     1.0000 0.80150  0.97893  0.36991  Biso   1.000  Cl
  Cl28     1.0000 0.19850  0.02107  0.63009  Biso   1.000  Cl
  Cl29     1.0000 0.68660  0.02243  0.43571  Biso   1.000  Cl
  Cl30     1.0000 0.31340  0.97757  0.56429  Biso   1.000  Cl
  C177     1.0000 0.73390  0.03970  0.38620  Biso   1.000  C
  C178     1.0000 0.26610  0.96030  0.61380  Biso   1.000  C
  H169     1.0000 0.77510  0.08920  0.39370  Biso   1.000  H
  H170     1.0000 0.22490  0.91080  0.60630  Biso   1.000  H
  Cl31     1.0000 0.22339  0.55680  0.17471  Biso   1.000  Cl
  Cl32     1.0000 0.77661  0.44320  0.82529  Biso   1.000  Cl
  Cl33     1.0000 0.09820  0.52841  0.24029  Biso   1.000  Cl
  Cl34     1.0000 0.90180  0.47159  0.75971  Biso   1.000  Cl
  Cl35     1.0000 0.08780  0.64179  0.18814  Biso   1.000  Cl
  Cl36     1.0000 0.91220  0.35821  0.81186  Biso   1.000  Cl
  C179     1.0000 0.10990  0.55470  0.18690  Biso   1.000  C
  C180     1.0000 0.89010  0.44530  0.81310  Biso   1.000  C
  H171     1.0000 0.06360  0.51970  0.16170  Biso   1.000  H
  H172     1.0000 0.93640  0.48030  0.83830  Biso   1.000  H
  Cl37     1.0000 0.37650  0.20170  0.32320  Biso   1.000  Cl
  Cl38     1.0000 0.62350  0.79830  0.67680  Biso   1.000  Cl
  Cl39     1.0000 0.29670  0.05190  0.28078  Biso   1.000  Cl
  Cl40     1.0000 0.70330  0.94810  0.71922  Biso   1.000  Cl
  Cl41     1.0000 0.43520  0.08820  0.36238  Biso   1.000  Cl
  Cl42     1.0000 0.56480  0.91180  0.63762  Biso   1.000  Cl
  C181     1.0000 0.34180  0.11490  0.33390  Biso   1.000  C
  C182     1.0000 0.65820  0.88510  0.66610  Biso   1.000  C
  H173     1.0000 0.29190  0.11390  0.35360  Biso   1.000  H
  H174     1.0000 0.70810  0.88610  0.64640  Biso   1.000  H
  Cl43     1.0000 0.23600  0.76110  0.05063  Biso   1.000  Cl
  Cl44     1.0000 0.76400  0.23890  0.94937  Biso   1.000  Cl
  Cl45     1.0000 0.05200  0.75160  0.00019  Biso   1.000  Cl
  Cl46     1.0000 0.94800  0.24840  0.99981  Biso   1.000  Cl
  Cl47     1.0000 0.20590  0.87100  0.99938  Biso   1.000  Cl
  Cl48     1.0000 0.79410  0.12900  0.00062  Biso   1.000  Cl
  C183     1.0000 0.17050  0.77740  0.00130  Biso   1.000  C
  C184     1.0000 0.82950  0.22260  0.99870  Biso   1.000  C
  H175     1.0000 0.18590  0.74910  0.97330  Biso   1.000  H
  H176     1.0000 0.81410  0.25090  0.02670  Biso   1.000  H
  Cl49     1.0000 0.10000  0.82860  0.13373  Biso   1.000  Cl
  Cl50     1.0000 0.90000  0.17140  0.86627  Biso   1.000  Cl
  Cl51     1.0000 0.14070  0.83660  0.22610  Biso   1.000  Cl
  Cl52     1.0000 0.85930  0.16340  0.77390  Biso   1.000  Cl
  Cl53     1.0000 0.08910  0.95600  0.19710  Biso   1.000  Cl
  Cl54     1.0000 0.91090  0.04400  0.80290  Biso   1.000  Cl
  C185     1.0000 0.07950  0.86630  0.18310  Biso   1.000  C
  C186     1.0000 0.92050  0.13370  0.81690  Biso   1.000  C
  H177     1.0000 0.01230  0.84460  0.18330  Biso   1.000  H
  H178     1.0000 0.98770  0.15540  0.81670  Biso   1.000  H
  Cl55     1.0000 0.20118  0.95977  0.37983  Biso   1.000  Cl
  Cl56     1.0000 0.79882  0.04023  0.62017  Biso   1.000  Cl
  Cl57     1.0000 0.00750  0.88874  0.36695  Biso   1.000  Cl
  Cl58     1.0000 0.99250  0.11126  0.63305  Biso   1.000  Cl
  Cl59     1.0000 0.05940  0.01350  0.32822  Biso   1.000  Cl
  Cl60     1.0000 0.94060  0.98650  0.67178  Biso   1.000  Cl
  C187     1.0000 0.09310  0.93720  0.34220  Biso   1.000  C
  C188     1.0000 0.90690  0.06280  0.65780  Biso   1.000  C
  H179     1.0000 0.09940  0.90640  0.31290  Biso   1.000  H
  H180     1.0000 0.90060  0.09360  0.68710  Biso   1.000  H
  Cl61     1.0000 0.07030  0.62380  0.35255  Biso   1.000  Cl
  Cl62     1.0000 0.92970  0.37620  0.64745  Biso   1.000  Cl
  Cl63     1.0000 0.14810  0.75570  0.32620  Biso   1.000  Cl
  Cl64     1.0000 0.85190  0.24430  0.67380  Biso   1.000  Cl
  Cl65     1.0000 0.96610  0.68110  0.28423  Biso   1.000  Cl
  Cl66     1.0000 0.03390  0.31890  0.71577  Biso   1.000  Cl
  C189     1.0000 0.04790  0.69480  0.32630  Biso   1.000  C
  C190     1.0000 0.95210  0.30520  0.67370  Biso   1.000  C
  H181     1.0000 0.02160  0.72170  0.35100  Biso   1.000  H
  H182     1.0000 0.97840  0.27830  0.64900  Biso   1.000  H
  Cl67     1.0000 0.13000  0.47631  0.39673  Biso   1.000  Cl
  Cl68     1.0000 0.87000  0.52369  0.60327  Biso   1.000  Cl
  Cl69     1.0000 0.93290  0.45670  0.39569  Biso   1.000  Cl
  Cl70     1.0000 0.06710  0.54330  0.60431  Biso   1.000  Cl
  Cl71     1.0000 0.00310  0.40160  0.31388  Biso   1.000  Cl
  Cl72     1.0000 0.99690  0.59840  0.68612  Biso   1.000  Cl
  C191     1.0000 0.02220  0.41960  0.37530  Biso   1.000  C
  C192     1.0000 0.97780  0.58040  0.62470  Biso   1.000  C
  H183     1.0000 0.02110  0.37330  0.38640  Biso   1.000  H
  H184     1.0000 0.97890  0.62670  0.61360  Biso   1.000  H
  Cl73     1.0000 0.47300  0.25724  0.49683  Biso   1.000  Cl
  Cl74     1.0000 0.52700  0.74276  0.50317  Biso   1.000  Cl
  Cl75     1.0000 0.33840  0.12200  0.48576  Biso   1.000  Cl
  Cl76     1.0000 0.66160  0.87800  0.51424  Biso   1.000  Cl
  Cl77     1.0000 0.29140  0.23340  0.43951  Biso   1.000  Cl
  Cl78     1.0000 0.70860  0.76660  0.56049  Biso   1.000  Cl
  C193     1.0000 0.35380  0.21530  0.48960  Biso   1.000  C
  C194     1.0000 0.64620  0.78470  0.51040  Biso   1.000  C
  H185     1.0000 0.32840  0.23500  0.51720  Biso   1.000  H
  H186     1.0000 0.67160  0.76500  0.48280  Biso   1.000  H
  Cl79     1.0000 0.15360  0.18426  0.55225  Biso   1.000  Cl
  Cl80     1.0000 0.84640  0.81574  0.44775  Biso   1.000  Cl
  Cl81     1.0000 0.19160  0.25109  0.64941  Biso   1.000  Cl
  Cl82     1.0000 0.80840  0.74891  0.35059  Biso   1.000  Cl
  Cl83     1.0000 0.09040  0.31200  0.58198  Biso   1.000  Cl
  Cl84     1.0000 0.90960  0.68800  0.41802  Biso   1.000  Cl
  C195     1.0000 0.17820  0.26500  0.59210  Biso   1.000  C
  C196     1.0000 0.82180  0.73500  0.40790  Biso   1.000  C
  H187     1.0000 0.23840  0.29510  0.58760  Biso   1.000  H
  H188     1.0000 0.76160  0.70490  0.41240  Biso   1.000  H
  Cl85     1.0000 0.79510  0.98740  0.06845  Biso   1.000  Cl
  Cl86     1.0000 0.20490  0.01260  0.93155  Biso   1.000  Cl
  Cl87     1.0000 0.86600  0.97780  0.16013  Biso   1.000  Cl
  Cl88     1.0000 0.13400  0.02220  0.83987  Biso   1.000  Cl
  Cl89     1.0000 0.70090  0.02850  0.14310  Biso   1.000  Cl
  Cl90     1.0000 0.29910  0.97150  0.85690  Biso   1.000  Cl
  C197     1.0000 0.76640  0.97060  0.12220  Biso   1.000  C
  C198     1.0000 0.23360  0.02940  0.87780  Biso   1.000  C
  H189     1.0000 0.72820  0.92030  0.11740  Biso   1.000  H
  H190     1.0000 0.27180  0.07970  0.88260  Biso   1.000  H
  Cl91     1.0000 0.51420  0.03590  0.22080  Biso   1.000  Cl
  Cl92     1.0000 0.48580  0.96410  0.77920  Biso   1.000  Cl
  Cl93     1.0000 0.49410  0.11190  0.14870  Biso   1.000  Cl
  Cl94     1.0000 0.50590  0.88810  0.85130  Biso   1.000  Cl
  Cl95     1.0000 0.33840  0.98810  0.15530  Biso   1.000  Cl
  Cl96     1.0000 0.66160  0.01190  0.84470  Biso   1.000  Cl
  C199     1.0000 0.44060  0.06740  0.18800  Biso   1.000  C
  C200     1.0000 0.55940  0.93260  0.81200  Biso   1.000  C
  H191     1.0000 0.41460  0.10180  0.20840  Biso   1.000  H
  H192     1.0000 0.58540  0.89820  0.79160  Biso   1.000  H
  Cl97     1.0000 0.70520  0.16150  0.54608  Biso   1.000  Cl
  Cl98     1.0000 0.29480  0.83850  0.45392  Biso   1.000  Cl
  Cl99     1.0000 0.57520  0.03524  0.55804  Biso   1.000  Cl
  Cl100    1.0000 0.42480  0.96476  0.44196  Biso   1.000  Cl
  C201     1.0000 0.58940  0.11130  0.53280  Biso   1.000  C
  C202     1.0000 0.41060  0.88870  0.46720  Biso   1.000  C
  H193     1.0000 0.54770  0.14170  0.54410  Biso   1.000  H
  H194     1.0000 0.45230  0.85830  0.45590  Biso   1.000  H
  H195     1.0000 0.57080  0.09650  0.49870  Biso   1.000  H
  H196     1.0000 0.42920  0.90350  0.50130  Biso   1.000  H
  C203     1.0000 0.71350  0.23200  0.30440  Biso   1.000  C
  C204     1.0000 0.28650  0.76800  0.69560  Biso   1.000  C
  H197     1.0000 0.73440  0.19620  0.32180  Biso   1.000  H
  H198     1.0000 0.26560  0.80380  0.67820  Biso   1.000  H
  Cl101    1.0000 0.75000  0.22520  0.25095  Biso   1.000  Cl
  Cl102    1.0000 0.25000  0.77480  0.74905  Biso   1.000  Cl
  Cl103    1.0000 0.59310  0.22020  0.29760  Biso   1.000  Cl
  Cl104    1.0000 0.40690  0.77980  0.70240  Biso   1.000  Cl
  Cl105    1.0000 0.76170  0.31990  0.33560  Biso   1.000  Cl
  Cl106    1.0000 0.23830  0.68010  0.66440  Biso   1.000  Cl
  C205     1.0000 0.11920  0.04520  0.03970  Biso   1.000  C
  C206     1.0000 0.88080  0.95480  0.96030  Biso   1.000  C
  H199     1.0000 0.11670  0.01180  0.01000  Biso   1.000  H
  H200     1.0000 0.88330  0.98820  0.99000  Biso   1.000  H
  Cl107    1.0000 0.04310  0.10310  0.03580  Biso   1.000  Cl
  Cl108    1.0000 0.95690  0.89690  0.96420  Biso   1.000  Cl
  Cl109    1.0000 0.08900  0.00240  0.08470  Biso   1.000  Cl
  Cl110    1.0000 0.91100  0.99760  0.91530  Biso   1.000  Cl
  Cl111    1.0000 0.23000  0.09810  0.06350  Biso   1.000  Cl
  Cl112    1.0000 0.77000  0.90190  0.93650  Biso   1.000  Cl
  O33      1.0000 0.34850  0.21340  0.10200  Biso   1.000  O
  O34      1.0000 0.65150  0.78660  0.89800  Biso   1.000  O
  Cl113    1.0000 0.13200  0.92510  0.22560  Biso   1.000  Cl
  Cl114    1.0000 0.86800  0.07490  0.77440  Biso   1.000  Cl
  Cl115    1.0000 0.81150  0.27220  0.29020  Biso   1.000  Cl
  Cl116    1.0000 0.18850  0.72780  0.70980  Biso   1.000  Cl
  Cl117    1.0000 0.63660  0.17130  0.25980  Biso   1.000  Cl
  Cl118    1.0000 0.36340  0.82870  0.74020  Biso   1.000  Cl
  Cl119    1.0000 0.66880  0.30680  0.32830  Biso   1.000  Cl
  Cl120    1.0000 0.33120  0.69320  0.67170  Biso   1.000  Cl
  C207     1.0000 0.42390  0.28760  0.17600  Biso   1.000  C
  C208     1.0000 0.57610  0.71240  0.82400  Biso   1.000  C
  Cl121    1.0000 0.35440  0.24070  0.20500  Biso   1.000  Cl
  Cl122    1.0000 0.64560  0.75930  0.79500  Biso   1.000  Cl
  Cl123    1.0000 0.38820  0.34370  0.14050  Biso   1.000  Cl
  Cl124    1.0000 0.61180  0.65630  0.85950  Biso   1.000  Cl
  Cl125    1.0000 0.37900  0.29240  0.12870  Biso   1.000  Cl
  Cl126    1.0000 0.62100  0.70760  0.87130  Biso   1.000  Cl
