data_image0
_cell_length_a       6.896
_cell_length_b       9.014
_cell_length_c       21.774
_cell_angle_alpha    90
_cell_angle_beta     98.01
_cell_angle_gamma    90

_symmetry_space_group_name_H-M    "P 1"
_symmetry_int_tables_number       1

loop_
  _symmetry_equiv_pos_as_xyz
  'x, y, z'

loop_
  _atom_site_label
  _atom_site_occupancy
  _atom_site_fract_x
  _atom_site_fract_y
  _atom_site_fract_z
  _atom_site_thermal_displace_type
  _atom_site_B_iso_or_equiv
  _atom_site_type_symbol
  Cu1      1.0000 0.82400  0.36211  0.62078  Biso   1.000  Cu
  Cu2      1.0000 0.67600  0.86211  0.87922  Biso   1.000  Cu
  Cu3      1.0000 0.17600  0.63789  0.37922  Biso   1.000  Cu
  Cu4      1.0000 0.32400  0.13789  0.12078  Biso   1.000  Cu
  O1       1.0000 0.91750  0.15226  0.63316  Biso   1.000  O
  O2       1.0000 0.58250  0.65226  0.86684  Biso   1.000  O
  O3       1.0000 0.08250  0.84774  0.36684  Biso   1.000  O
  O4       1.0000 0.41750  0.34774  0.13316  Biso   1.000  O
  H1       1.0000 0.03200  0.13900  0.62320  Biso   1.000  H
  H2       1.0000 0.46800  0.63900  0.87680  Biso   1.000  H
  H3       1.0000 0.96800  0.86100  0.37680  Biso   1.000  H
  H4       1.0000 0.53200  0.36100  0.12320  Biso   1.000  H
  H5       1.0000 0.92700  0.12900  0.67040  Biso   1.000  H
  H6       1.0000 0.57300  0.62900  0.82960  Biso   1.000  H
  H7       1.0000 0.07300  0.87100  0.32960  Biso   1.000  H
  H8       1.0000 0.42700  0.37100  0.17040  Biso   1.000  H
  N1       1.0000 0.80530  0.34353  0.52784  Biso   1.000  N
  N2       1.0000 0.69470  0.84353  0.97216  Biso   1.000  N
  N3       1.0000 0.19470  0.65647  0.47216  Biso   1.000  N
  N4       1.0000 0.30530  0.15647  0.02784  Biso   1.000  N
  N5       1.0000 0.78100  0.57857  0.59925  Biso   1.000  N
  N6       1.0000 0.71900  0.07857  0.90075  Biso   1.000  N
  N7       1.0000 0.21900  0.42143  0.40075  Biso   1.000  N
  N8       1.0000 0.28100  0.92143  0.09925  Biso   1.000  N
  N9       1.0000 0.72120  0.45480  0.43820  Biso   1.000  N
  N10      1.0000 0.77880  0.95480  0.06180  Biso   1.000  N
  N11      1.0000 0.27880  0.54520  0.56180  Biso   1.000  N
  N12      1.0000 0.22120  0.04520  0.93820  Biso   1.000  N
  H9       1.0000 0.68820  0.52340  0.41130  Biso   1.000  H
  H10      1.0000 0.81180  0.02340  0.08870  Biso   1.000  H
  H11      1.0000 0.31180  0.47660  0.58870  Biso   1.000  H
  H12      1.0000 0.18820  0.97660  0.91130  Biso   1.000  H
  N13      1.0000 0.72940  0.74552  0.52476  Biso   1.000  N
  N14      1.0000 0.77060  0.24552  0.97524  Biso   1.000  N
  N15      1.0000 0.27060  0.25448  0.47524  Biso   1.000  N
  N16      1.0000 0.22940  0.75448  0.02476  Biso   1.000  N
  H13      1.0000 0.70820  0.78400  0.48830  Biso   1.000  H
  H14      1.0000 0.79180  0.28400  0.01170  Biso   1.000  H
  H15      1.0000 0.29180  0.21600  0.51170  Biso   1.000  H
  H16      1.0000 0.20820  0.71600  0.98830  Biso   1.000  H
  C1       1.0000 0.75790  0.47181  0.49974  Biso   1.000  C
  C2       1.0000 0.74210  0.97181  0.00026  Biso   1.000  C
  C3       1.0000 0.24210  0.52819  0.50026  Biso   1.000  C
  C4       1.0000 0.25790  0.02819  0.99974  Biso   1.000  C
  C5       1.0000 0.74620  0.30730  0.42610  Biso   1.000  C
  C6       1.0000 0.75380  0.80730  0.07390  Biso   1.000  C
  C7       1.0000 0.25380  0.69270  0.57390  Biso   1.000  C
  C8       1.0000 0.24620  0.19270  0.92610  Biso   1.000  C
  H17      1.0000 0.73130  0.26250  0.38720  Biso   1.000  H
  H18      1.0000 0.76870  0.76250  0.11280  Biso   1.000  H
  H19      1.0000 0.26870  0.73750  0.61280  Biso   1.000  H
  H20      1.0000 0.23130  0.23750  0.88720  Biso   1.000  H
  C9       1.0000 0.79650  0.23900  0.48142  Biso   1.000  C
  C10      1.0000 0.70350  0.73900  0.01858  Biso   1.000  C
  C11      1.0000 0.20350  0.76100  0.51858  Biso   1.000  C
  C12      1.0000 0.29650  0.26100  0.98142  Biso   1.000  C
  H21      1.0000 0.82100  0.13810  0.48710  Biso   1.000  H
  H22      1.0000 0.67900  0.63810  0.01290  Biso   1.000  H
  H23      1.0000 0.17900  0.86190  0.51290  Biso   1.000  H
  H24      1.0000 0.32100  0.36190  0.98710  Biso   1.000  H
  C13      1.0000 0.75210  0.60162  0.53830  Biso   1.000  C
  C14      1.0000 0.74790  0.10162  0.96170  Biso   1.000  C
  C15      1.0000 0.24790  0.39838  0.46170  Biso   1.000  C
  C16      1.0000 0.25210  0.89838  0.03830  Biso   1.000  C
  C17      1.0000 0.74620  0.82080  0.58033  Biso   1.000  C
  C18      1.0000 0.75380  0.32080  0.91967  Biso   1.000  C
  C19      1.0000 0.25380  0.17920  0.41967  Biso   1.000  C
  C20      1.0000 0.24620  0.67920  0.08033  Biso   1.000  C
  H25      1.0000 0.73820  0.92280  0.58570  Biso   1.000  H
  H26      1.0000 0.76180  0.42280  0.91430  Biso   1.000  H
  H27      1.0000 0.26180  0.07720  0.41430  Biso   1.000  H
  H28      1.0000 0.23820  0.57720  0.08570  Biso   1.000  H
  C21      1.0000 0.77700  0.71600  0.62582  Biso   1.000  C
  C22      1.0000 0.72300  0.21600  0.87418  Biso   1.000  C
  C23      1.0000 0.22300  0.28400  0.37418  Biso   1.000  C
  C24      1.0000 0.27700  0.78400  0.12582  Biso   1.000  C
  H29      1.0000 0.79280  0.73500  0.66820  Biso   1.000  H
  H30      1.0000 0.70720  0.23500  0.83180  Biso   1.000  H
  H31      1.0000 0.20720  0.26500  0.33180  Biso   1.000  H
  H32      1.0000 0.29280  0.76500  0.16820  Biso   1.000  H
  O5       1.0000 0.86144  0.39997  0.70954  Biso   1.000  O
  O6       1.0000 0.63856  0.89997  0.79046  Biso   1.000  O
  O7       1.0000 0.13856  0.60003  0.29046  Biso   1.000  O
  O8       1.0000 0.36144  0.10003  0.20954  Biso   1.000  O
  O9       1.0000 0.16871  0.44180  0.69536  Biso   1.000  O
  O10      1.0000 0.33129  0.94180  0.80464  Biso   1.000  O
  O11      1.0000 0.83129  0.55820  0.30464  Biso   1.000  O
  O12      1.0000 0.66871  0.05820  0.19536  Biso   1.000  O
  O13      1.0000 0.99987  0.81184  0.88458  Biso   1.000  O
  O14      1.0000 0.50013  0.31184  0.61542  Biso   1.000  O
  O15      1.0000 0.00013  0.18816  0.11542  Biso   1.000  O
  O16      1.0000 0.49987  0.68816  0.38458  Biso   1.000  O
  O17      1.0000 0.22700  0.63885  0.90696  Biso   1.000  O
  O18      1.0000 0.27300  0.13885  0.59304  Biso   1.000  O
  O19      1.0000 0.77300  0.36115  0.09304  Biso   1.000  O
  O20      1.0000 0.72700  0.86115  0.40696  Biso   1.000  O
  C25      1.0000 0.03930  0.43504  0.72947  Biso   1.000  C
  C26      1.0000 0.46070  0.93504  0.77053  Biso   1.000  C
  C27      1.0000 0.96070  0.56496  0.27053  Biso   1.000  C
  C28      1.0000 0.53930  0.06496  0.22947  Biso   1.000  C
  C29      1.0000 0.08250  0.47570  0.79717  Biso   1.000  C
  C30      1.0000 0.41750  0.97570  0.70283  Biso   1.000  C
  C31      1.0000 0.91750  0.52430  0.20283  Biso   1.000  C
  C32      1.0000 0.58250  0.02430  0.29717  Biso   1.000  C
  H33      1.0000 0.21830  0.45410  0.81260  Biso   1.000  H
  H34      1.0000 0.28170  0.95410  0.68740  Biso   1.000  H
  H35      1.0000 0.78170  0.54590  0.18740  Biso   1.000  H
  H36      1.0000 0.71830  0.04590  0.31260  Biso   1.000  H
  H37      1.0000 0.00060  0.41770  0.82090  Biso   1.000  H
  H38      1.0000 0.49940  0.91770  0.67910  Biso   1.000  H
  H39      1.0000 0.99940  0.58230  0.17910  Biso   1.000  H
  H40      1.0000 0.50060  0.08230  0.32090  Biso   1.000  H
  C33      1.0000 0.04250  0.64000  0.80483  Biso   1.000  C
  C34      1.0000 0.45750  0.14000  0.69517  Biso   1.000  C
  C35      1.0000 0.95750  0.36000  0.19517  Biso   1.000  C
  C36      1.0000 0.54250  0.86000  0.30483  Biso   1.000  C
  H41      1.0000 0.90490  0.65840  0.79080  Biso   1.000  H
  H42      1.0000 0.59510  0.15840  0.70920  Biso   1.000  H
  H43      1.0000 0.09510  0.34160  0.20920  Biso   1.000  H
  H44      1.0000 0.40490  0.84160  0.29080  Biso   1.000  H
  H45      1.0000 0.11720  0.69540  0.77800  Biso   1.000  H
  H46      1.0000 0.38280  0.19540  0.72200  Biso   1.000  H
  H47      1.0000 0.88280  0.30460  0.22200  Biso   1.000  H
  H48      1.0000 0.61720  0.80460  0.27800  Biso   1.000  H
  C37      1.0000 0.09170  0.70000  0.87048  Biso   1.000  C
  C38      1.0000 0.40830  0.20000  0.62952  Biso   1.000  C
  C39      1.0000 0.90830  0.30000  0.12952  Biso   1.000  C
  C40      1.0000 0.59170  0.80000  0.37048  Biso   1.000  C
  O21      1.0000 0.96480  0.03790  0.74853  Biso   1.000  O
  O22      1.0000 0.53520  0.53790  0.75147  Biso   1.000  O
  O23      1.0000 0.03520  0.96210  0.25147  Biso   1.000  O
  O24      1.0000 0.46480  0.46210  0.24853  Biso   1.000  O
  H49      1.0000 0.87900  0.99400  0.75600  Biso   1.000  H
  H50      1.0000 0.62100  0.49400  0.74400  Biso   1.000  H
  H51      1.0000 0.12100  0.00600  0.24400  Biso   1.000  H
  H52      1.0000 0.37900  0.50600  0.25600  Biso   1.000  H
  H53      1.0000 0.07900  0.02500  0.77300  Biso   1.000  H
  H54      1.0000 0.42100  0.52500  0.72700  Biso   1.000  H
  H55      1.0000 0.92100  0.97500  0.22700  Biso   1.000  H
  H56      1.0000 0.57900  0.47500  0.27300  Biso   1.000  H
