data_image0
_cell_length_a       15.8042
_cell_length_b       9.583
_cell_length_c       19.5633
_cell_angle_alpha    90
_cell_angle_beta     91.18
_cell_angle_gamma    90

_symmetry_space_group_name_H-M    "P 1"
_symmetry_int_tables_number       1

loop_
  _symmetry_equiv_pos_as_xyz
  'x, y, z'

loop_
  _atom_site_label
  _atom_site_occupancy
  _atom_site_fract_x
  _atom_site_fract_y
  _atom_site_fract_z
  _atom_site_thermal_displace_type
  _atom_site_B_iso_or_equiv
  _atom_site_type_symbol
  Cu1      1.0000 0.04970  0.38915  0.27162  Biso   1.000  Cu
  Cu2      1.0000 0.95030  0.88915  0.22838  Biso   1.000  Cu
  Cu3      1.0000 0.95030  0.61085  0.72838  Biso   1.000  Cu
  Cu4      1.0000 0.04970  0.11085  0.77162  Biso   1.000  Cu
  Cu5      1.0000 0.45368  0.36790  0.72565  Biso   1.000  Cu
  Cu6      1.0000 0.54632  0.86790  0.77435  Biso   1.000  Cu
  Cu7      1.0000 0.54632  0.63210  0.27435  Biso   1.000  Cu
  Cu8      1.0000 0.45368  0.13210  0.22565  Biso   1.000  Cu
  S1       1.0000 0.97455  0.20877  0.16175  Biso   1.000  S
  S2       1.0000 0.02545  0.70877  0.33825  Biso   1.000  S
  S3       1.0000 0.02545  0.79123  0.83825  Biso   1.000  S
  S4       1.0000 0.97455  0.29123  0.66175  Biso   1.000  S
  S5       1.0000 0.47091  0.68846  0.66470  Biso   1.000  S
  S6       1.0000 0.52909  0.18846  0.83530  Biso   1.000  S
  S7       1.0000 0.52909  0.31154  0.33530  Biso   1.000  S
  S8       1.0000 0.47091  0.81154  0.16470  Biso   1.000  S
  O1       1.0000 0.98597  0.35670  0.18903  Biso   1.000  O
  O2       1.0000 0.01403  0.85670  0.31097  Biso   1.000  O
  O3       1.0000 0.01403  0.64330  0.81097  Biso   1.000  O
  O4       1.0000 0.98597  0.14330  0.68903  Biso   1.000  O
  O5       1.0000 0.97707  0.11532  0.22174  Biso   1.000  O
  O6       1.0000 0.02293  0.61532  0.27826  Biso   1.000  O
  O7       1.0000 0.02293  0.88468  0.77826  Biso   1.000  O
  O8       1.0000 0.97707  0.38468  0.72174  Biso   1.000  O
  O9       1.0000 0.89338  0.20514  0.12493  Biso   1.000  O
  O10      1.0000 0.10662  0.70514  0.37507  Biso   1.000  O
  O11      1.0000 0.10662  0.79486  0.87507  Biso   1.000  O
  O12      1.0000 0.89338  0.29486  0.62493  Biso   1.000  O
  O13      1.0000 0.04512  0.17705  0.11672  Biso   1.000  O
  O14      1.0000 0.95488  0.67705  0.38328  Biso   1.000  O
  O15      1.0000 0.95488  0.82295  0.88328  Biso   1.000  O
  O16      1.0000 0.04512  0.32295  0.61672  Biso   1.000  O
  O17      1.0000 0.47789  0.59362  0.72446  Biso   1.000  O
  O18      1.0000 0.52211  0.09362  0.77554  Biso   1.000  O
  O19      1.0000 0.52211  0.40638  0.27554  Biso   1.000  O
  O20      1.0000 0.47789  0.90638  0.22446  Biso   1.000  O
  O21      1.0000 0.48209  0.83586  0.69205  Biso   1.000  O
  O22      1.0000 0.51791  0.33586  0.80795  Biso   1.000  O
  O23      1.0000 0.51791  0.16414  0.30795  Biso   1.000  O
  O24      1.0000 0.48209  0.66414  0.19205  Biso   1.000  O
  O25      1.0000 0.38813  0.68164  0.63067  Biso   1.000  O
  O26      1.0000 0.61187  0.18164  0.86933  Biso   1.000  O
  O27      1.0000 0.61187  0.31836  0.36933  Biso   1.000  O
  O28      1.0000 0.38813  0.81836  0.13067  Biso   1.000  O
  O29      1.0000 0.53952  0.65933  0.61738  Biso   1.000  O
  O30      1.0000 0.46048  0.15933  0.88262  Biso   1.000  O
  O31      1.0000 0.46048  0.34067  0.38262  Biso   1.000  O
  O32      1.0000 0.53952  0.84067  0.11738  Biso   1.000  O
  O33      1.0000 0.89520  0.48290  0.03640  Biso   1.000  O
  O34      1.0000 0.10480  0.98290  0.46360  Biso   1.000  O
  O35      1.0000 0.10480  0.51710  0.96360  Biso   1.000  O
  O36      1.0000 0.89520  0.01710  0.53640  Biso   1.000  O
  O37      1.0000 0.53750  0.48910  0.93950  Biso   1.000  O
  O38      1.0000 0.46250  0.98910  0.56050  Biso   1.000  O
  O39      1.0000 0.46250  0.51090  0.06050  Biso   1.000  O
  O40      1.0000 0.53750  0.01090  0.43950  Biso   1.000  O
  N1       1.0000 0.16409  0.42011  0.22831  Biso   1.000  N
  N2       1.0000 0.83591  0.92011  0.27169  Biso   1.000  N
  N3       1.0000 0.83591  0.57989  0.77169  Biso   1.000  N
  N4       1.0000 0.16409  0.07989  0.72831  Biso   1.000  N
  N5       1.0000 0.12251  0.38389  0.35215  Biso   1.000  N
  N6       1.0000 0.87749  0.88389  0.14785  Biso   1.000  N
  N7       1.0000 0.87749  0.61611  0.64785  Biso   1.000  N
  N8       1.0000 0.12251  0.11611  0.85215  Biso   1.000  N
  N9       1.0000 0.96449  0.32832  0.34292  Biso   1.000  N
  N10      1.0000 0.03551  0.82832  0.15708  Biso   1.000  N
  N11      1.0000 0.03551  0.67168  0.65708  Biso   1.000  N
  N12      1.0000 0.96449  0.17168  0.84292  Biso   1.000  N
  N13      1.0000 0.53939  0.30997  0.65359  Biso   1.000  N
  N14      1.0000 0.46061  0.80997  0.84641  Biso   1.000  N
  N15      1.0000 0.46061  0.69003  0.34641  Biso   1.000  N
  N16      1.0000 0.53939  0.19003  0.15359  Biso   1.000  N
  N17      1.0000 0.38133  0.36438  0.64477  Biso   1.000  N
  N18      1.0000 0.61867  0.86438  0.85523  Biso   1.000  N
  N19      1.0000 0.61867  0.63562  0.35523  Biso   1.000  N
  N20      1.0000 0.38133  0.13562  0.14477  Biso   1.000  N
  N21      1.0000 0.33882  0.39671  0.76880  Biso   1.000  N
  N22      1.0000 0.66118  0.89671  0.73120  Biso   1.000  N
  N23      1.0000 0.66118  0.60329  0.23120  Biso   1.000  N
  N24      1.0000 0.33882  0.10329  0.26880  Biso   1.000  N
  C1       1.0000 0.17869  0.43567  0.16168  Biso   1.000  C
  C2       1.0000 0.82131  0.93567  0.33832  Biso   1.000  C
  C3       1.0000 0.82131  0.56433  0.83832  Biso   1.000  C
  C4       1.0000 0.17869  0.06433  0.66168  Biso   1.000  C
  H1       1.0000 0.13250  0.43130  0.12990  Biso   1.000  H
  H2       1.0000 0.86750  0.93130  0.37010  Biso   1.000  H
  H3       1.0000 0.86750  0.56870  0.87010  Biso   1.000  H
  H4       1.0000 0.13250  0.06870  0.62990  Biso   1.000  H
  C5       1.0000 0.25970  0.45805  0.13757  Biso   1.000  C
  C6       1.0000 0.74030  0.95805  0.36243  Biso   1.000  C
  C7       1.0000 0.74030  0.54195  0.86243  Biso   1.000  C
  C8       1.0000 0.25970  0.04195  0.63757  Biso   1.000  C
  H5       1.0000 0.26860  0.47070  0.09010  Biso   1.000  H
  H6       1.0000 0.73140  0.97070  0.40990  Biso   1.000  H
  H7       1.0000 0.73140  0.52930  0.90990  Biso   1.000  H
  H8       1.0000 0.26860  0.02930  0.59010  Biso   1.000  H
  C9       1.0000 0.32742  0.46168  0.18377  Biso   1.000  C
  C10      1.0000 0.67258  0.96168  0.31623  Biso   1.000  C
  C11      1.0000 0.67258  0.53832  0.81623  Biso   1.000  C
  C12      1.0000 0.32742  0.03832  0.68377  Biso   1.000  C
  H9       1.0000 0.38330  0.47580  0.16820  Biso   1.000  H
  H10      1.0000 0.61670  0.97580  0.33180  Biso   1.000  H
  H11      1.0000 0.61670  0.52420  0.83180  Biso   1.000  H
  H12      1.0000 0.38330  0.02420  0.66820  Biso   1.000  H
  C13      1.0000 0.31264  0.44445  0.25312  Biso   1.000  C
  C14      1.0000 0.68736  0.94445  0.24688  Biso   1.000  C
  C15      1.0000 0.68736  0.55555  0.74688  Biso   1.000  C
  C16      1.0000 0.31264  0.05555  0.75312  Biso   1.000  C
  H13      1.0000 0.35820  0.44530  0.28550  Biso   1.000  H
  H14      1.0000 0.64180  0.94530  0.21450  Biso   1.000  H
  H15      1.0000 0.64180  0.55470  0.71450  Biso   1.000  H
  H16      1.0000 0.35820  0.05470  0.78550  Biso   1.000  H
  C17      1.0000 0.23004  0.42606  0.27398  Biso   1.000  C
  C18      1.0000 0.76996  0.92606  0.22602  Biso   1.000  C
  C19      1.0000 0.76996  0.57394  0.72602  Biso   1.000  C
  C20      1.0000 0.23004  0.07394  0.77398  Biso   1.000  C
  C21      1.0000 0.20543  0.40587  0.34569  Biso   1.000  C
  C22      1.0000 0.79457  0.90587  0.15431  Biso   1.000  C
  C23      1.0000 0.79457  0.59413  0.65431  Biso   1.000  C
  C24      1.0000 0.20543  0.09413  0.84569  Biso   1.000  C
  C25      1.0000 0.25933  0.40470  0.40282  Biso   1.000  C
  C26      1.0000 0.74067  0.90470  0.09718  Biso   1.000  C
  C27      1.0000 0.74067  0.59530  0.59718  Biso   1.000  C
  C28      1.0000 0.25933  0.09530  0.90282  Biso   1.000  C
  H17      1.0000 0.31820  0.42140  0.39840  Biso   1.000  H
  H18      1.0000 0.68180  0.92140  0.10160  Biso   1.000  H
  H19      1.0000 0.68180  0.57860  0.60160  Biso   1.000  H
  H20      1.0000 0.31820  0.07860  0.89840  Biso   1.000  H
  C29      1.0000 0.22500  0.37838  0.46710  Biso   1.000  C
  C30      1.0000 0.77500  0.87838  0.03290  Biso   1.000  C
  C31      1.0000 0.77500  0.62162  0.53290  Biso   1.000  C
  C32      1.0000 0.22500  0.12162  0.96710  Biso   1.000  C
  C33      1.0000 0.13769  0.35507  0.47197  Biso   1.000  C
  C34      1.0000 0.86231  0.85507  0.02803  Biso   1.000  C
  C35      1.0000 0.86231  0.64493  0.52803  Biso   1.000  C
  C36      1.0000 0.13769  0.14493  0.97197  Biso   1.000  C
  H21      1.0000 0.11310  0.33680  0.51500  Biso   1.000  H
  H22      1.0000 0.88690  0.83680  0.98500  Biso   1.000  H
  H23      1.0000 0.88690  0.66320  0.48500  Biso   1.000  H
  H24      1.0000 0.11310  0.16320  0.01500  Biso   1.000  H
  C37      1.0000 0.08792  0.35933  0.41266  Biso   1.000  C
  C38      1.0000 0.91208  0.85933  0.08734  Biso   1.000  C
  C39      1.0000 0.91208  0.64067  0.58734  Biso   1.000  C
  C40      1.0000 0.08792  0.14067  0.91266  Biso   1.000  C
  C41      1.0000 0.99570  0.33511  0.40786  Biso   1.000  C
  C42      1.0000 0.00430  0.83511  0.09214  Biso   1.000  C
  C43      1.0000 0.00430  0.66489  0.59214  Biso   1.000  C
  C44      1.0000 0.99570  0.16489  0.90786  Biso   1.000  C
  C45      1.0000 0.94497  0.32048  0.46428  Biso   1.000  C
  C46      1.0000 0.05503  0.82048  0.03572  Biso   1.000  C
  C47      1.0000 0.05503  0.67952  0.53572  Biso   1.000  C
  C48      1.0000 0.94497  0.17952  0.96428  Biso   1.000  C
  H25      1.0000 0.96830  0.32640  0.50930  Biso   1.000  H
  H26      1.0000 0.03170  0.82640  0.99070  Biso   1.000  H
  H27      1.0000 0.03170  0.67360  0.49070  Biso   1.000  H
  H28      1.0000 0.96830  0.17360  0.00930  Biso   1.000  H
  C49      1.0000 0.85902  0.29682  0.45325  Biso   1.000  C
  C50      1.0000 0.14098  0.79682  0.04675  Biso   1.000  C
  C51      1.0000 0.14098  0.70318  0.54675  Biso   1.000  C
  C52      1.0000 0.85902  0.20318  0.95325  Biso   1.000  C
  H29      1.0000 0.82250  0.28740  0.49090  Biso   1.000  H
  H30      1.0000 0.17750  0.78740  0.00910  Biso   1.000  H
  H31      1.0000 0.17750  0.71260  0.50910  Biso   1.000  H
  H32      1.0000 0.82250  0.21260  0.99090  Biso   1.000  H
  C53      1.0000 0.82669  0.28697  0.38670  Biso   1.000  C
  C54      1.0000 0.17331  0.78697  0.11330  Biso   1.000  C
  C55      1.0000 0.17331  0.71303  0.61330  Biso   1.000  C
  C56      1.0000 0.82669  0.21303  0.88670  Biso   1.000  C
  H33      1.0000 0.76820  0.27010  0.37820  Biso   1.000  H
  H34      1.0000 0.23180  0.77010  0.12180  Biso   1.000  H
  H35      1.0000 0.23180  0.72990  0.62180  Biso   1.000  H
  H36      1.0000 0.76820  0.22990  0.87820  Biso   1.000  H
  C57      1.0000 0.88197  0.30245  0.33293  Biso   1.000  C
  C58      1.0000 0.11803  0.80245  0.16707  Biso   1.000  C
  C59      1.0000 0.11803  0.69755  0.66707  Biso   1.000  C
  C60      1.0000 0.88197  0.19755  0.83293  Biso   1.000  C
  H37      1.0000 0.86040  0.29440  0.28740  Biso   1.000  H
  H38      1.0000 0.13960  0.79440  0.21260  Biso   1.000  H
  H39      1.0000 0.13960  0.70560  0.71260  Biso   1.000  H
  H40      1.0000 0.86040  0.20560  0.78740  Biso   1.000  H
  C61      1.0000 0.62143  0.28106  0.66347  Biso   1.000  C
  C62      1.0000 0.37857  0.78106  0.83653  Biso   1.000  C
  C63      1.0000 0.37857  0.71894  0.33653  Biso   1.000  C
  C64      1.0000 0.62143  0.21894  0.16347  Biso   1.000  C
  H41      1.0000 0.64280  0.27100  0.70890  Biso   1.000  H
  H42      1.0000 0.35720  0.77100  0.79110  Biso   1.000  H
  H43      1.0000 0.35720  0.72900  0.29110  Biso   1.000  H
  H44      1.0000 0.64280  0.22900  0.20890  Biso   1.000  H
  C65      1.0000 0.67673  0.26513  0.60962  Biso   1.000  C
  C66      1.0000 0.32327  0.76513  0.89038  Biso   1.000  C
  C67      1.0000 0.32327  0.73487  0.39038  Biso   1.000  C
  C68      1.0000 0.67673  0.23487  0.10962  Biso   1.000  C
  H45      1.0000 0.73500  0.24580  0.61800  Biso   1.000  H
  H46      1.0000 0.26500  0.74580  0.88200  Biso   1.000  H
  H47      1.0000 0.26500  0.75420  0.38200  Biso   1.000  H
  H48      1.0000 0.73500  0.25420  0.11800  Biso   1.000  H
  C69      1.0000 0.64452  0.27820  0.54322  Biso   1.000  C
  C70      1.0000 0.35548  0.77820  0.95678  Biso   1.000  C
  C71      1.0000 0.35548  0.72180  0.45678  Biso   1.000  C
  C72      1.0000 0.64452  0.22180  0.04322  Biso   1.000  C
  H49      1.0000 0.68100  0.26880  0.50550  Biso   1.000  H
  H50      1.0000 0.31900  0.76880  0.99450  Biso   1.000  H
  H51      1.0000 0.31900  0.73120  0.49450  Biso   1.000  H
  H52      1.0000 0.68100  0.23120  0.00550  Biso   1.000  H
  C73      1.0000 0.55902  0.30480  0.53209  Biso   1.000  C
  C74      1.0000 0.44098  0.80480  0.96791  Biso   1.000  C
  C75      1.0000 0.44098  0.69520  0.46791  Biso   1.000  C
  C76      1.0000 0.55902  0.19520  0.03209  Biso   1.000  C
  H53      1.0000 0.53590  0.31260  0.48700  Biso   1.000  H
  H54      1.0000 0.46410  0.81260  0.01300  Biso   1.000  H
  H55      1.0000 0.46410  0.68740  0.51300  Biso   1.000  H
  H56      1.0000 0.53590  0.18740  0.98700  Biso   1.000  H
  C77      1.0000 0.50844  0.31970  0.58861  Biso   1.000  C
  C78      1.0000 0.49156  0.81970  0.91139  Biso   1.000  C
  C79      1.0000 0.49156  0.68030  0.41139  Biso   1.000  C
  C80      1.0000 0.50844  0.18030  0.08861  Biso   1.000  C
  C81      1.0000 0.41620  0.34617  0.58383  Biso   1.000  C
  C82      1.0000 0.58380  0.84617  0.91617  Biso   1.000  C
  C83      1.0000 0.58380  0.65383  0.41617  Biso   1.000  C
  C84      1.0000 0.41620  0.15383  0.08383  Biso   1.000  C
  C85      1.0000 0.36728  0.35071  0.52402  Biso   1.000  C
  C86      1.0000 0.63272  0.85071  0.97598  Biso   1.000  C
  C87      1.0000 0.63272  0.64929  0.47598  Biso   1.000  C
  C88      1.0000 0.36728  0.14929  0.02402  Biso   1.000  C
  H57      1.0000 0.39230  0.33870  0.48070  Biso   1.000  H
  H58      1.0000 0.60770  0.83870  0.01930  Biso   1.000  H
  H59      1.0000 0.60770  0.66130  0.51930  Biso   1.000  H
  H60      1.0000 0.39230  0.16130  0.98070  Biso   1.000  H
  C89      1.0000 0.27973  0.37358  0.52937  Biso   1.000  C
  C90      1.0000 0.72027  0.87358  0.97063  Biso   1.000  C
  C91      1.0000 0.72027  0.62642  0.47063  Biso   1.000  C
  C92      1.0000 0.27973  0.12642  0.02937  Biso   1.000  C
  C93      1.0000 0.24517  0.39152  0.59400  Biso   1.000  C
  C94      1.0000 0.75483  0.89152  0.90600  Biso   1.000  C
  C95      1.0000 0.75483  0.60848  0.40600  Biso   1.000  C
  C96      1.0000 0.24517  0.10848  0.09400  Biso   1.000  C
  H61      1.0000 0.18620  0.40670  0.59860  Biso   1.000  H
  H62      1.0000 0.81380  0.90670  0.90140  Biso   1.000  H
  H63      1.0000 0.81380  0.59330  0.40140  Biso   1.000  H
  H64      1.0000 0.18620  0.09330  0.09860  Biso   1.000  H
  C97      1.0000 0.29840  0.38675  0.65125  Biso   1.000  C
  C98      1.0000 0.70160  0.88675  0.84875  Biso   1.000  C
  C99      1.0000 0.70160  0.61325  0.34875  Biso   1.000  C
  C100     1.0000 0.29840  0.11325  0.15125  Biso   1.000  C
  C101     1.0000 0.27324  0.40337  0.72313  Biso   1.000  C
  C102     1.0000 0.72676  0.90337  0.77687  Biso   1.000  C
  C103     1.0000 0.72676  0.59663  0.27687  Biso   1.000  C
  C104     1.0000 0.27324  0.09663  0.22313  Biso   1.000  C
  C105     1.0000 0.19042  0.42188  0.74345  Biso   1.000  C
  C106     1.0000 0.80958  0.92188  0.75655  Biso   1.000  C
  C107     1.0000 0.80958  0.57812  0.25655  Biso   1.000  C
  C108     1.0000 0.19042  0.07812  0.24345  Biso   1.000  C
  H65      1.0000 0.14510  0.42280  0.71080  Biso   1.000  H
  H66      1.0000 0.85490  0.92280  0.78920  Biso   1.000  H
  H67      1.0000 0.85490  0.57720  0.28920  Biso   1.000  H
  H68      1.0000 0.14510  0.07720  0.21080  Biso   1.000  H
  C109     1.0000 0.17529  0.43905  0.81281  Biso   1.000  C
  C110     1.0000 0.82471  0.93905  0.68719  Biso   1.000  C
  C111     1.0000 0.82471  0.56095  0.18719  Biso   1.000  C
  C112     1.0000 0.17529  0.06095  0.31281  Biso   1.000  C
  H69      1.0000 0.11930  0.45320  0.82820  Biso   1.000  H
  H70      1.0000 0.88070  0.95320  0.67180  Biso   1.000  H
  H71      1.0000 0.88070  0.54680  0.17180  Biso   1.000  H
  H72      1.0000 0.11930  0.04680  0.32820  Biso   1.000  H
  C113     1.0000 0.24259  0.43530  0.85917  Biso   1.000  C
  C114     1.0000 0.75741  0.93530  0.64083  Biso   1.000  C
  C115     1.0000 0.75741  0.56470  0.14083  Biso   1.000  C
  C116     1.0000 0.24259  0.06470  0.35917  Biso   1.000  C
  H73      1.0000 0.23350  0.44820  0.90660  Biso   1.000  H
  H74      1.0000 0.76650  0.94820  0.59340  Biso   1.000  H
  H75      1.0000 0.76650  0.55180  0.09340  Biso   1.000  H
  H76      1.0000 0.23350  0.05180  0.40660  Biso   1.000  H
  C117     1.0000 0.32378  0.41240  0.83539  Biso   1.000  C
  C118     1.0000 0.67622  0.91240  0.66461  Biso   1.000  C
  C119     1.0000 0.67622  0.58760  0.16461  Biso   1.000  C
  C120     1.0000 0.32378  0.08760  0.33539  Biso   1.000  C
  H77      1.0000 0.36980  0.40780  0.86730  Biso   1.000  H
  H78      1.0000 0.63020  0.90780  0.63270  Biso   1.000  H
  H79      1.0000 0.63020  0.59220  0.13270  Biso   1.000  H
  H80      1.0000 0.36980  0.09220  0.36730  Biso   1.000  H
