data_image0
_cell_length_a       8.7503
_cell_length_b       25.6708
_cell_length_c       6.9821
_cell_angle_alpha    90
_cell_angle_beta     103.689
_cell_angle_gamma    90

_symmetry_space_group_name_H-M    "P 1"
_symmetry_int_tables_number       1

loop_
  _symmetry_equiv_pos_as_xyz
  'x, y, z'

loop_
  _atom_site_label
  _atom_site_occupancy
  _atom_site_fract_x
  _atom_site_fract_y
  _atom_site_fract_z
  _atom_site_thermal_displace_type
  _atom_site_B_iso_or_equiv
  _atom_site_type_symbol
  Cu1      1.0000 0.91094  0.15144  0.82447  Biso   1.000  Cu
  Cu2      1.0000 0.08906  0.65144  0.67553  Biso   1.000  Cu
  Cu3      1.0000 0.08906  0.84856  0.17553  Biso   1.000  Cu
  Cu4      1.0000 0.91094  0.34856  0.32447  Biso   1.000  Cu
  S1       1.0000 0.01316  0.15157  0.36279  Biso   1.000  S
  S2       1.0000 0.98684  0.65157  0.13721  Biso   1.000  S
  S3       1.0000 0.98684  0.84843  0.63721  Biso   1.000  S
  S4       1.0000 0.01316  0.34843  0.86279  Biso   1.000  S
  O1       1.0000 0.89630  0.13588  0.17890  Biso   1.000  O
  O2       1.0000 0.10370  0.63588  0.32110  Biso   1.000  O
  O3       1.0000 0.10370  0.86412  0.82110  Biso   1.000  O
  O4       1.0000 0.89630  0.36412  0.67890  Biso   1.000  O
  O5       1.0000 0.12277  0.10885  0.43070  Biso   1.000  O
  O6       1.0000 0.87723  0.60885  0.06930  Biso   1.000  O
  O7       1.0000 0.87723  0.89115  0.56930  Biso   1.000  O
  O8       1.0000 0.12277  0.39115  0.93070  Biso   1.000  O
  O9       1.0000 0.09997  0.19795  0.31300  Biso   1.000  O
  O10      1.0000 0.90003  0.69795  0.18700  Biso   1.000  O
  O11      1.0000 0.90003  0.80205  0.68700  Biso   1.000  O
  O12      1.0000 0.09997  0.30205  0.81300  Biso   1.000  O
  O13      1.0000 0.92950  0.16738  0.51210  Biso   1.000  O
  O14      1.0000 0.07050  0.66738  0.98790  Biso   1.000  O
  O15      1.0000 0.07050  0.83262  0.48790  Biso   1.000  O
  O16      1.0000 0.92950  0.33262  0.01210  Biso   1.000  O
  O17      1.0000 0.06625  0.20404  0.93300  Biso   1.000  O
  O18      1.0000 0.93375  0.70404  0.56700  Biso   1.000  O
  O19      1.0000 0.93375  0.79596  0.06700  Biso   1.000  O
  O20      1.0000 0.06625  0.29596  0.43300  Biso   1.000  O
  O21      1.0000 0.61925  0.11549  0.17330  Biso   1.000  O
  O22      1.0000 0.38075  0.61549  0.32670  Biso   1.000  O
  O23      1.0000 0.38075  0.88451  0.82670  Biso   1.000  O
  O24      1.0000 0.61925  0.38451  0.67330  Biso   1.000  O
  N1       1.0000 0.06002  0.08974  0.85570  Biso   1.000  N
  N2       1.0000 0.93998  0.58974  0.64430  Biso   1.000  N
  N3       1.0000 0.93998  0.91026  0.14430  Biso   1.000  N
  N4       1.0000 0.06002  0.41026  0.35570  Biso   1.000  N
  N5       1.0000 0.76350  0.09594  0.72920  Biso   1.000  N
  N6       1.0000 0.23650  0.59594  0.77080  Biso   1.000  N
  N7       1.0000 0.23650  0.90406  0.27080  Biso   1.000  N
  N8       1.0000 0.76350  0.40406  0.22920  Biso   1.000  N
  N9       1.0000 0.70590  0.19176  0.78110  Biso   1.000  N
  N10      1.0000 0.29410  0.69176  0.71890  Biso   1.000  N
  N11      1.0000 0.29410  0.80824  0.21890  Biso   1.000  N
  N12      1.0000 0.70590  0.30824  0.28110  Biso   1.000  N
  C1       1.0000 0.21490  0.09037  0.93400  Biso   1.000  C
  C2       1.0000 0.78510  0.59037  0.56600  Biso   1.000  C
  C3       1.0000 0.78510  0.90963  0.06600  Biso   1.000  C
  C4       1.0000 0.21490  0.40963  0.43400  Biso   1.000  C
  H1       1.0000 0.26310  0.12200  0.98770  Biso   1.000  H
  H2       1.0000 0.73690  0.62200  0.51230  Biso   1.000  H
  H3       1.0000 0.73690  0.87800  0.01230  Biso   1.000  H
  H4       1.0000 0.26310  0.37800  0.48770  Biso   1.000  H
  C5       1.0000 0.30810  0.04612  0.93950  Biso   1.000  C
  C6       1.0000 0.69190  0.54612  0.56050  Biso   1.000  C
  C7       1.0000 0.69190  0.95388  0.06050  Biso   1.000  C
  C8       1.0000 0.30810  0.45388  0.43950  Biso   1.000  C
  H5       1.0000 0.41790  0.04750  0.99690  Biso   1.000  H
  H6       1.0000 0.58210  0.54750  0.50310  Biso   1.000  H
  H7       1.0000 0.58210  0.95250  0.00310  Biso   1.000  H
  H8       1.0000 0.41790  0.45250  0.49690  Biso   1.000  H
  C9       1.0000 0.23790  0.00013  0.85980  Biso   1.000  C
  C10      1.0000 0.76210  0.50013  0.64020  Biso   1.000  C
  C11      1.0000 0.76210  0.99987  0.14020  Biso   1.000  C
  C12      1.0000 0.23790  0.49987  0.35980  Biso   1.000  C
  H9       1.0000 0.29930  0.96960  0.86080  Biso   1.000  H
  H10      1.0000 0.70070  0.46960  0.63920  Biso   1.000  H
  H11      1.0000 0.70070  0.03040  0.13920  Biso   1.000  H
  H12      1.0000 0.29930  0.53040  0.36080  Biso   1.000  H
  C13      1.0000 0.07640  0.99914  0.77840  Biso   1.000  C
  C14      1.0000 0.92360  0.49914  0.72160  Biso   1.000  C
  C15      1.0000 0.92360  0.00086  0.22160  Biso   1.000  C
  C16      1.0000 0.07640  0.50086  0.27840  Biso   1.000  C
  H13      1.0000 0.02580  0.96800  0.72340  Biso   1.000  H
  H14      1.0000 0.97420  0.46800  0.77660  Biso   1.000  H
  H15      1.0000 0.97420  0.03200  0.27660  Biso   1.000  H
  H16      1.0000 0.02580  0.53200  0.22340  Biso   1.000  H
  C17      1.0000 0.99120  0.04468  0.77930  Biso   1.000  C
  C18      1.0000 0.00880  0.54468  0.72070  Biso   1.000  C
  C19      1.0000 0.00880  0.95532  0.22070  Biso   1.000  C
  C20      1.0000 0.99120  0.45532  0.27930  Biso   1.000  C
  C21      1.0000 0.81880  0.04866  0.70280  Biso   1.000  C
  C22      1.0000 0.18120  0.54866  0.79720  Biso   1.000  C
  C23      1.0000 0.18120  0.95134  0.29720  Biso   1.000  C
  C24      1.0000 0.81880  0.45134  0.20280  Biso   1.000  C
  C25      1.0000 0.71740  0.00939  0.61320  Biso   1.000  C
  C26      1.0000 0.28260  0.50939  0.88680  Biso   1.000  C
  C27      1.0000 0.28260  0.99061  0.38680  Biso   1.000  C
  C28      1.0000 0.71740  0.49061  0.11320  Biso   1.000  C
  H17      1.0000 0.75670  0.97570  0.59550  Biso   1.000  H
  H18      1.0000 0.24330  0.47570  0.90450  Biso   1.000  H
  H19      1.0000 0.24330  0.02430  0.40450  Biso   1.000  H
  H20      1.0000 0.75670  0.52430  0.09550  Biso   1.000  H
  C29      1.0000 0.55600  0.02025  0.54930  Biso   1.000  C
  C30      1.0000 0.44400  0.52025  0.95070  Biso   1.000  C
  C31      1.0000 0.44400  0.97975  0.45070  Biso   1.000  C
  C32      1.0000 0.55600  0.47975  0.04930  Biso   1.000  C
  C33      1.0000 0.50240  0.07036  0.57970  Biso   1.000  C
  C34      1.0000 0.49760  0.57036  0.92030  Biso   1.000  C
  C35      1.0000 0.49760  0.92964  0.42030  Biso   1.000  C
  C36      1.0000 0.50240  0.42964  0.07970  Biso   1.000  C
  H21      1.0000 0.39390  0.07880  0.53830  Biso   1.000  H
  H22      1.0000 0.60610  0.57880  0.96170  Biso   1.000  H
  H23      1.0000 0.60610  0.92120  0.46170  Biso   1.000  H
  H24      1.0000 0.39390  0.42120  0.03830  Biso   1.000  H
  C37      1.0000 0.61060  0.10750  0.67120  Biso   1.000  C
  C38      1.0000 0.38940  0.60750  0.82880  Biso   1.000  C
  C39      1.0000 0.38940  0.89250  0.32880  Biso   1.000  C
  C40      1.0000 0.61060  0.39250  0.17120  Biso   1.000  C
  C41      1.0000 0.57620  0.16214  0.71200  Biso   1.000  C
  C42      1.0000 0.42380  0.66214  0.78800  Biso   1.000  C
  C43      1.0000 0.42380  0.83786  0.28800  Biso   1.000  C
  C44      1.0000 0.57620  0.33786  0.21200  Biso   1.000  C
  C45      1.0000 0.42510  0.18230  0.68140  Biso   1.000  C
  C46      1.0000 0.57490  0.68230  0.81860  Biso   1.000  C
  C47      1.0000 0.57490  0.81770  0.31860  Biso   1.000  C
  C48      1.0000 0.42510  0.31770  0.18140  Biso   1.000  C
  H25      1.0000 0.33580  0.16070  0.63550  Biso   1.000  H
  H26      1.0000 0.66420  0.66070  0.86450  Biso   1.000  H
  H27      1.0000 0.66420  0.83930  0.36450  Biso   1.000  H
  H28      1.0000 0.33580  0.33930  0.13550  Biso   1.000  H
  C49      1.0000 0.40790  0.23490  0.71950  Biso   1.000  C
  C50      1.0000 0.59210  0.73490  0.78050  Biso   1.000  C
  C51      1.0000 0.59210  0.76510  0.28050  Biso   1.000  C
  C52      1.0000 0.40790  0.26510  0.21950  Biso   1.000  C
  H29      1.0000 0.30590  0.24970  0.70170  Biso   1.000  H
  H30      1.0000 0.69410  0.74970  0.79830  Biso   1.000  H
  H31      1.0000 0.69410  0.75030  0.29830  Biso   1.000  H
  H32      1.0000 0.30590  0.25030  0.20170  Biso   1.000  H
  C53      1.0000 0.54000  0.26551  0.78340  Biso   1.000  C
  C54      1.0000 0.46000  0.76551  0.71660  Biso   1.000  C
  C55      1.0000 0.46000  0.73449  0.21660  Biso   1.000  C
  C56      1.0000 0.54000  0.23449  0.28340  Biso   1.000  C
  H33      1.0000 0.53010  0.30180  0.80520  Biso   1.000  H
  H34      1.0000 0.46990  0.80180  0.69480  Biso   1.000  H
  H35      1.0000 0.46990  0.69820  0.19480  Biso   1.000  H
  H36      1.0000 0.53010  0.19820  0.30520  Biso   1.000  H
  C57      1.0000 0.68820  0.24245  0.81560  Biso   1.000  C
  C58      1.0000 0.31180  0.74245  0.68440  Biso   1.000  C
  C59      1.0000 0.31180  0.75755  0.18440  Biso   1.000  C
  C60      1.0000 0.68820  0.25755  0.31560  Biso   1.000  C
  H37      1.0000 0.77900  0.26330  0.86320  Biso   1.000  H
  H38      1.0000 0.22100  0.76330  0.63680  Biso   1.000  H
  H39      1.0000 0.22100  0.73670  0.13680  Biso   1.000  H
  H40      1.0000 0.77900  0.23670  0.36320  Biso   1.000  H
  H41      1.0000 0.06100  0.23290  0.88600  Biso   1.000  H
  H42      1.0000 0.93900  0.73290  0.61400  Biso   1.000  H
  H43      1.0000 0.93900  0.76710  0.11400  Biso   1.000  H
  H44      1.0000 0.06100  0.26710  0.38600  Biso   1.000  H
  H45      1.0000 0.07600  0.20480  0.04400  Biso   1.000  H
  H46      1.0000 0.92400  0.70480  0.45600  Biso   1.000  H
  H47      1.0000 0.92400  0.79520  0.95600  Biso   1.000  H
  H48      1.0000 0.07600  0.29520  0.54400  Biso   1.000  H
