data_image0
_cell_length_a       10.5112
_cell_length_b       12.411
_cell_length_c       12.9515
_cell_angle_alpha    117.133
_cell_angle_beta     91.301
_cell_angle_gamma    106.587

_symmetry_space_group_name_H-M    "P 1"
_symmetry_int_tables_number       1

loop_
  _symmetry_equiv_pos_as_xyz
  'x, y, z'

loop_
  _atom_site_label
  _atom_site_occupancy
  _atom_site_fract_x
  _atom_site_fract_y
  _atom_site_fract_z
  _atom_site_thermal_displace_type
  _atom_site_B_iso_or_equiv
  _atom_site_type_symbol
  Cu1      1.0000 0.54735  0.25379  0.48340  Biso   1.000  Cu
  Cu2      1.0000 0.45265  0.74621  0.51660  Biso   1.000  Cu
  Cu3      1.0000 0.45840  0.38456  0.69078  Biso   1.000  Cu
  Cu4      1.0000 0.54160  0.61544  0.30922  Biso   1.000  Cu
  O1       1.0000 0.36960  0.45870  0.61600  Biso   1.000  O
  O2       1.0000 0.63040  0.54130  0.38400  Biso   1.000  O
  H1       1.0000 0.33900  0.40580  0.54650  Biso   1.000  H
  H2       1.0000 0.66100  0.59420  0.45350  Biso   1.000  H
  O3       1.0000 0.42460  0.49270  0.86580  Biso   1.000  O
  O4       1.0000 0.57540  0.50730  0.13420  Biso   1.000  O
  O5       1.0000 0.61440  0.09080  0.33400  Biso   1.000  O
  O6       1.0000 0.38560  0.90920  0.66600  Biso   1.000  O
  H3       1.0000 0.63430  0.10990  0.28230  Biso   1.000  H
  H4       1.0000 0.36570  0.89010  0.71770  Biso   1.000  H
  O7       1.0000 0.54250  0.29700  0.74700  Biso   1.000  O
  O8       1.0000 0.45750  0.70300  0.25300  Biso   1.000  O
  O9       1.0000 0.48400  0.29300  0.36690  Biso   1.000  O
  O10      1.0000 0.51600  0.70700  0.63310  Biso   1.000  O
  O11      1.0000 0.27260  0.28250  0.39050  Biso   1.000  O
  O12      1.0000 0.72740  0.71750  0.60950  Biso   1.000  O
  O13      1.0000 0.69950  0.77320  0.38700  Biso   1.000  O
  O14      1.0000 0.30050  0.22680  0.61300  Biso   1.000  O
  O15      1.0000 0.63200  0.20800  0.58720  Biso   1.000  O
  O16      1.0000 0.36800  0.79200  0.41280  Biso   1.000  O
  O17      1.0000 0.61770  0.88420  0.54500  Biso   1.000  O
  O18      1.0000 0.38230  0.11580  0.45500  Biso   1.000  O
  O19      1.0000 0.30040  0.58930  0.45630  Biso   1.000  O
  O20      1.0000 0.69960  0.41070  0.54370  Biso   1.000  O
  O21      1.0000 0.35950  0.49150  0.28010  Biso   1.000  O
  O22      1.0000 0.64050  0.50850  0.71990  Biso   1.000  O
  C1       1.0000 0.87380  0.23830  0.23120  Biso   1.000  C
  C2       1.0000 0.12620  0.76170  0.76880  Biso   1.000  C
  H5       1.0000 0.78550  0.18190  0.20540  Biso   1.000  H
  H6       1.0000 0.21450  0.81810  0.79460  Biso   1.000  H
  C3       1.0000 0.27950  0.46660  0.98920  Biso   1.000  C
  C4       1.0000 0.72050  0.53340  0.01080  Biso   1.000  C
  H7       1.0000 0.34170  0.44760  0.02450  Biso   1.000  H
  H8       1.0000 0.65830  0.55240  0.97550  Biso   1.000  H
  C5       1.0000 0.93120  0.22340  0.60700  Biso   1.000  C
  C6       1.0000 0.06880  0.77660  0.39300  Biso   1.000  C
  H9       1.0000 0.95400  0.30060  0.67710  Biso   1.000  H
  H10      1.0000 0.04600  0.69940  0.32290  Biso   1.000  H
  C7       1.0000 0.86780  0.99560  0.40020  Biso   1.000  C
  C8       1.0000 0.13220  0.00440  0.59980  Biso   1.000  C
  H11      1.0000 0.84740  0.91880  0.33010  Biso   1.000  H
  H12      1.0000 0.15260  0.08120  0.66990  Biso   1.000  H
  C9       1.0000 0.96000  0.10600  0.40950  Biso   1.000  C
  C10      1.0000 0.04000  0.89400  0.59050  Biso   1.000  C
  H13      1.0000 0.00030  0.10350  0.34560  Biso   1.000  H
  H14      1.0000 0.99970  0.89650  0.65440  Biso   1.000  H
  C11      1.0000 0.99200  0.21980  0.51400  Biso   1.000  C
  C12      1.0000 0.00800  0.78020  0.48600  Biso   1.000  C
  H15      1.0000 0.05490  0.29390  0.52110  Biso   1.000  H
  H16      1.0000 0.94510  0.70610  0.47890  Biso   1.000  H
  C13      1.0000 0.80790  0.10290  0.88390  Biso   1.000  C
  C14      1.0000 0.19210  0.89710  0.11610  Biso   1.000  C
  H17      1.0000 0.84890  0.07470  0.92650  Biso   1.000  H
  H18      1.0000 0.15110  0.92530  0.07350  Biso   1.000  H
  C15      1.0000 0.38300  0.11290  0.00410  Biso   1.000  C
  C16      1.0000 0.61700  0.88710  0.99590  Biso   1.000  C
  H19      1.0000 0.43940  0.07380  0.95740  Biso   1.000  H
  H20      1.0000 0.56060  0.92620  0.04260  Biso   1.000  H
  C17      1.0000 0.16020  0.46950  0.02890  Biso   1.000  C
  C18      1.0000 0.83980  0.53050  0.97110  Biso   1.000  C
  H21      1.0000 0.14280  0.45220  0.09090  Biso   1.000  H
  H22      1.0000 0.85720  0.54780  0.90910  Biso   1.000  H
  C19      1.0000 0.09770  0.52280  0.88710  Biso   1.000  C
  C20      1.0000 0.90230  0.47720  0.11290  Biso   1.000  C
  H23      1.0000 0.03740  0.54290  0.85110  Biso   1.000  H
  H24      1.0000 0.96260  0.45710  0.14890  Biso   1.000  H
  C21      1.0000 0.71230  0.16060  0.92760  Biso   1.000  C
  C22      1.0000 0.28770  0.83940  0.07240  Biso   1.000  C
  H25      1.0000 0.68930  0.17280  0.00010  Biso   1.000  H
  H26      1.0000 0.31070  0.82720  0.99990  Biso   1.000  H
  C23      1.0000 0.40970  0.16310  0.12590  Biso   1.000  C
  C24      1.0000 0.59030  0.83690  0.87410  Biso   1.000  C
  H27      1.0000 0.48530  0.15850  0.16020  Biso   1.000  H
  H28      1.0000 0.51470  0.84150  0.83980  Biso   1.000  H
  C25      1.0000 0.27280  0.12170  0.95380  Biso   1.000  C
  C26      1.0000 0.72720  0.87830  0.04620  Biso   1.000  C
  H29      1.0000 0.25550  0.09070  0.87280  Biso   1.000  H
  H30      1.0000 0.74450  0.90930  0.12720  Biso   1.000  H
  C27      1.0000 0.03370  0.44370  0.35800  Biso   1.000  C
  C28      1.0000 0.96630  0.55630  0.64200  Biso   1.000  C
  H31      1.0000 0.05330  0.52700  0.41930  Biso   1.000  H
  H32      1.0000 0.94670  0.47300  0.58070  Biso   1.000  H
  C29      1.0000 0.90200  0.36080  0.32240  Biso   1.000  C
  C30      1.0000 0.09800  0.63920  0.67760  Biso   1.000  C
  H33      1.0000 0.83360  0.38770  0.35960  Biso   1.000  H
  H34      1.0000 0.16640  0.61230  0.64040  Biso   1.000  H
  C31      1.0000 0.61520  0.23300  0.69030  Biso   1.000  C
  C32      1.0000 0.38480  0.76700  0.30970  Biso   1.000  C
  C33      1.0000 0.97680  0.19820  0.17720  Biso   1.000  C
  C34      1.0000 0.02320  0.80180  0.82280  Biso   1.000  C
  H35      1.0000 0.95620  0.11440  0.11620  Biso   1.000  H
  H36      1.0000 0.04380  0.88560  0.88380  Biso   1.000  H
  C35      1.0000 0.21770  0.51850  0.84850  Biso   1.000  C
  C36      1.0000 0.78230  0.48150  0.15150  Biso   1.000  C
  H37      1.0000 0.23680  0.53480  0.78620  Biso   1.000  H
  H38      1.0000 0.76320  0.46520  0.21380  Biso   1.000  H
  C37      1.0000 0.83520  0.11390  0.60000  Biso   1.000  C
  C38      1.0000 0.16480  0.88610  0.40000  Biso   1.000  C
  C39      1.0000 0.36000  0.26790  0.32830  Biso   1.000  C
  C40      1.0000 0.64000  0.73210  0.67170  Biso   1.000  C
  C41      1.0000 0.06480  0.49770  0.97890  Biso   1.000  C
  C42      1.0000 0.93520  0.50230  0.02110  Biso   1.000  C
  C43      1.0000 0.32570  0.22010  0.19750  Biso   1.000  C
  C44      1.0000 0.67430  0.77990  0.80250  Biso   1.000  C
  C45      1.0000 0.68560  0.18500  0.75370  Biso   1.000  C
  C46      1.0000 0.31440  0.81500  0.24630  Biso   1.000  C
  C47      1.0000 0.65140  0.20000  0.86170  Biso   1.000  C
  C48      1.0000 0.34860  0.80000  0.13830  Biso   1.000  C
  H39      1.0000 0.58580  0.23750  0.89020  Biso   1.000  H
  H40      1.0000 0.41420  0.76250  0.10980  Biso   1.000  H
  C49      1.0000 0.80510  0.99830  0.49480  Biso   1.000  C
  C50      1.0000 0.19490  0.00170  0.50520  Biso   1.000  C
  C51      1.0000 0.18740  0.17670  0.02350  Biso   1.000  C
  C52      1.0000 0.81260  0.82330  0.97650  Biso   1.000  C
  H41      1.0000 0.11210  0.18070  0.98830  Biso   1.000  H
  H42      1.0000 0.88790  0.81930  0.01170  Biso   1.000  H
  C53      1.0000 0.10900  0.27940  0.21180  Biso   1.000  C
  C54      1.0000 0.89100  0.72060  0.78820  Biso   1.000  C
  C55      1.0000 0.78270  0.12660  0.70950  Biso   1.000  C
  C56      1.0000 0.21730  0.87340  0.29050  Biso   1.000  C
  C57      1.0000 0.21160  0.22650  0.14600  Biso   1.000  C
  C58      1.0000 0.78840  0.77350  0.85400  Biso   1.000  C
  C59      1.0000 0.70050  0.87660  0.47520  Biso   1.000  C
  C60      1.0000 0.29950  0.12340  0.52480  Biso   1.000  C
  C61      1.0000 0.13750  0.40540  0.30450  Biso   1.000  C
  C62      1.0000 0.86250  0.59460  0.69550  Biso   1.000  C
  C63      1.0000 0.27670  0.50240  0.35000  Biso   1.000  C
  C64      1.0000 0.72330  0.49760  0.65000  Biso   1.000  C
  C65      1.0000 0.84270  0.08720  0.77660  Biso   1.000  C
  C66      1.0000 0.15730  0.91280  0.22340  Biso   1.000  C
  H43      1.0000 0.90800  0.04910  0.74870  Biso   1.000  H
  H44      1.0000 0.09200  0.95090  0.25130  Biso   1.000  H
  N1       1.0000 0.30780  0.49110  0.89930  Biso   1.000  N
  N2       1.0000 0.69220  0.50890  0.10070  Biso   1.000  N
  H45      1.0000 0.40900  0.52600  0.61900  Biso   1.000  H
  H46      1.0000 0.59100  0.47400  0.38100  Biso   1.000  H
  H47      1.0000 0.64500  0.03600  0.32900  Biso   1.000  H
  H48      1.0000 0.35500  0.96400  0.67100  Biso   1.000  H
