data_image0
_cell_length_a       9.1184
_cell_length_b       11.9896
_cell_length_c       16.3784
_cell_angle_alpha    90.665
_cell_angle_beta     105.76
_cell_angle_gamma    103.134

_symmetry_space_group_name_H-M    "P 1"
_symmetry_int_tables_number       1

loop_
  _symmetry_equiv_pos_as_xyz
  'x, y, z'

loop_
  _atom_site_label
  _atom_site_occupancy
  _atom_site_fract_x
  _atom_site_fract_y
  _atom_site_fract_z
  _atom_site_thermal_displace_type
  _atom_site_B_iso_or_equiv
  _atom_site_type_symbol
  Cu1      1.0000 0.58957  0.41396  0.53349  Biso   1.000  Cu
  Cu2      1.0000 0.41043  0.58604  0.46651  Biso   1.000  Cu
  Cu3      1.0000 0.83833  0.29402  0.25423  Biso   1.000  Cu
  Cu4      1.0000 0.16167  0.70598  0.74577  Biso   1.000  Cu
  O1       1.0000 0.14260  0.89880  0.13680  Biso   1.000  O
  O2       1.0000 0.85740  0.10120  0.86320  Biso   1.000  O
  N1       1.0000 0.21820  0.36790  0.06210  Biso   1.000  N
  N2       1.0000 0.78180  0.63210  0.93790  Biso   1.000  N
  O3       1.0000 0.95370  0.49540  0.18780  Biso   1.000  O
  O4       1.0000 0.04630  0.50460  0.81220  Biso   1.000  O
  N3       1.0000 0.12400  0.52170  0.10290  Biso   1.000  N
  N4       1.0000 0.87600  0.47830  0.89710  Biso   1.000  N
  N5       1.0000 0.38200  0.99580  0.22320  Biso   1.000  N
  N6       1.0000 0.61800  0.00420  0.77680  Biso   1.000  N
  O5       1.0000 0.72650  0.29110  0.58410  Biso   1.000  O
  O6       1.0000 0.27350  0.70890  0.41590  Biso   1.000  O
  H1       1.0000 0.81948  0.30903  0.61706  Biso   1.000  H
  H2       1.0000 0.18052  0.69097  0.38294  Biso   1.000  H
  H3       1.0000 0.72519  0.23480  0.55174  Biso   1.000  H
  H4       1.0000 0.27481  0.76520  0.44826  Biso   1.000  H
  N7       1.0000 0.66900  0.21600  0.15700  Biso   1.000  N
  N8       1.0000 0.33100  0.78400  0.84300  Biso   1.000  N
  N9       1.0000 0.47600  0.55720  0.36050  Biso   1.000  N
  N10      1.0000 0.52400  0.44280  0.63950  Biso   1.000  N
  N11      1.0000 0.48670  0.59580  0.22010  Biso   1.000  N
  N12      1.0000 0.51330  0.40420  0.77990  Biso   1.000  N
  N13      1.0000 0.14550  0.18980  0.12970  Biso   1.000  N
  N14      1.0000 0.85450  0.81020  0.87030  Biso   1.000  N
  N15      1.0000 0.31430  0.00610  0.07440  Biso   1.000  N
  N16      1.0000 0.68570  0.99390  0.92560  Biso   1.000  N
  O7       1.0000 0.27780  0.54270  0.01228  Biso   1.000  O
  O8       1.0000 0.72220  0.45730  0.98772  Biso   1.000  O
  N17      1.0000 0.50550  0.14760  0.02530  Biso   1.000  N
  N18      1.0000 0.49450  0.85240  0.97470  Biso   1.000  N
  O9       1.0000 0.62030  0.09670  0.31163  Biso   1.000  O
  O10      1.0000 0.37970  0.90330  0.68837  Biso   1.000  O
  N19      1.0000 0.22520  0.10570  0.44610  Biso   1.000  N
  N20      1.0000 0.77480  0.89430  0.55390  Biso   1.000  N
  C1       1.0000 0.56430  0.48120  0.35580  Biso   1.000  C
  C2       1.0000 0.43570  0.51880  0.64420  Biso   1.000  C
  C3       1.0000 0.52570  0.07680  0.23910  Biso   1.000  C
  C4       1.0000 0.47430  0.92320  0.76090  Biso   1.000  C
  C5       1.0000 0.05100  0.16930  0.18240  Biso   1.000  C
  C6       1.0000 0.94900  0.83070  0.81760  Biso   1.000  C
  H5       1.0000 0.02758  0.09845  0.20457  Biso   1.000  H
  H6       1.0000 0.97242  0.90155  0.79543  Biso   1.000  H
  N21      1.0000 0.99440  0.25670  0.20040  Biso   1.000  N
  N22      1.0000 0.00560  0.74330  0.79960  Biso   1.000  N
  N23      1.0000 0.61810  0.41410  0.41680  Biso   1.000  N
  N24      1.0000 0.38190  0.58590  0.58320  Biso   1.000  N
  C7       1.0000 0.28530  0.31870  0.00310  Biso   1.000  C
  C8       1.0000 0.71470  0.68130  0.99690  Biso   1.000  C
  H7       1.0000 0.39548  0.35402  0.01627  Biso   1.000  H
  H8       1.0000 0.60452  0.64598  0.98373  Biso   1.000  H
  H9       1.0000 0.23411  0.33214  0.94593  Biso   1.000  H
  H10      1.0000 0.76589  0.66786  0.05407  Biso   1.000  H
  H11      1.0000 0.27059  0.23751  0.00838  Biso   1.000  H
  H12      1.0000 0.72941  0.76249  0.99162  Biso   1.000  H
  C9       1.0000 0.70160  0.35610  0.38390  Biso   1.000  C
  C10      1.0000 0.29840  0.64390  0.61610  Biso   1.000  C
  H13      1.0000 0.75203  0.30407  0.41464  Biso   1.000  H
  H14      1.0000 0.24797  0.69593  0.58536  Biso   1.000  H
  N25      1.0000 0.24110  0.44150  0.43300  Biso   1.000  N
  N26      1.0000 0.75890  0.55850  0.56700  Biso   1.000  N
  N27      1.0000 0.00390  0.32350  0.36500  Biso   1.000  N
  N28      1.0000 0.99610  0.67650  0.63500  Biso   1.000  N
  N29      1.0000 0.38360  0.29640  0.48590  Biso   1.000  N
  N30      1.0000 0.61640  0.70360  0.51410  Biso   1.000  N
  N31      1.0000 0.61770  0.50160  0.14420  Biso   1.000  N
  N32      1.0000 0.38230  0.49840  0.85580  Biso   1.000  N
  H15      1.0000 0.67201  0.45246  0.14127  Biso   1.000  H
  H16      1.0000 0.32799  0.54754  0.85873  Biso   1.000  H
  H17      1.0000 0.58944  0.54053  0.10137  Biso   1.000  H
  H18      1.0000 0.41056  0.45947  0.89863  Biso   1.000  H
  N33      1.0000 0.95990  0.06390  0.36650  Biso   1.000  N
  N34      1.0000 0.04010  0.93610  0.63350  Biso   1.000  N
  H19      1.0000 0.95623  0.99177  0.36922  Biso   1.000  H
  H20      1.0000 0.04377  0.00823  0.63078  Biso   1.000  H
  H21      1.0000 0.87763  0.08616  0.33994  Biso   1.000  H
  H22      1.0000 0.12237  0.91384  0.66006  Biso   1.000  H
  C11      1.0000 0.20120  0.97730  0.98980  Biso   1.000  C
  C12      1.0000 0.79880  0.02270  0.01020  Biso   1.000  C
  H23      1.0000 0.14500  0.89830  0.98517  Biso   1.000  H
  H24      1.0000 0.85500  0.10170  0.01483  Biso   1.000  H
  H25      1.0000 0.25594  0.98911  0.94703  Biso   1.000  H
  H26      1.0000 0.74406  0.01089  0.05297  Biso   1.000  H
  H27      1.0000 0.12847  0.02561  0.98200  Biso   1.000  H
  H28      1.0000 0.87153  0.97439  0.01800  Biso   1.000  H
  N35      1.0000 0.70840  0.37690  0.30490  Biso   1.000  N
  N36      1.0000 0.29160  0.62310  0.69510  Biso   1.000  N
  C13      1.0000 0.34410  0.93720  0.29560  Biso   1.000  C
  C14      1.0000 0.65590  0.06280  0.70440  Biso   1.000  C
  H29      1.0000 0.43908  0.92916  0.33577  Biso   1.000  H
  H30      1.0000 0.56092  0.07084  0.66423  Biso   1.000  H
  H31      1.0000 0.27618  0.86256  0.27588  Biso   1.000  H
  H32      1.0000 0.72382  0.13744  0.72412  Biso   1.000  H
  H33      1.0000 0.29236  0.98148  0.32259  Biso   1.000  H
  H34      1.0000 0.70764  0.01852  0.67741  Biso   1.000  H
  C15      1.0000 0.54790  0.12900  0.16580  Biso   1.000  C
  C16      1.0000 0.45210  0.87100  0.83420  Biso   1.000  C
  C17      1.0000 0.21180  0.47980  0.05670  Biso   1.000  C
  C18      1.0000 0.78820  0.52020  0.94330  Biso   1.000  C
  C19      1.0000 0.45070  0.09000  0.08570  Biso   1.000  C
  C20      1.0000 0.54930  0.91000  0.91430  Biso   1.000  C
  C21      1.0000 0.05700  0.34320  0.15630  Biso   1.000  C
  C22      1.0000 0.94300  0.65680  0.84370  Biso   1.000  C
  C23      1.0000 0.25450  0.33130  0.44360  Biso   1.000  C
  C24      1.0000 0.74550  0.66870  0.55640  Biso   1.000  C
  C25      1.0000 0.27160  0.96460  0.14350  Biso   1.000  C
  C26      1.0000 0.72840  0.03540  0.85650  Biso   1.000  C
  C27      1.0000 0.10850  0.25890  0.40140  Biso   1.000  C
  C28      1.0000 0.89150  0.74110  0.59860  Biso   1.000  C
  C29      1.0000 0.03880  0.45600  0.15240  Biso   1.000  C
  C30      1.0000 0.96120  0.54400  0.84760  Biso   1.000  C
  C31      1.0000 0.14530  0.29990  0.11390  Biso   1.000  C
  C32      1.0000 0.85470  0.70010  0.88610  Biso   1.000  C
  C33      1.0000 0.44280  0.61130  0.28890  Biso   1.000  C
  C34      1.0000 0.55720  0.38870  0.71110  Biso   1.000  C
  H35      1.0000 0.38300  0.66492  0.28768  Biso   1.000  H
  H36      1.0000 0.61700  0.33508  0.71232  Biso   1.000  H
  C35      1.0000 0.09450  0.14200  0.40380  Biso   1.000  C
  C36      1.0000 0.90550  0.85800  0.59620  Biso   1.000  C
  C37      1.0000 0.12780  0.64460  0.09930  Biso   1.000  C
  C38      1.0000 0.87220  0.35540  0.90070  Biso   1.000  C
  H37      1.0000 0.06392  0.66452  0.13240  Biso   1.000  H
  H38      1.0000 0.93608  0.33548  0.86760  Biso   1.000  H
  H39      1.0000 0.08801  0.66084  0.04130  Biso   1.000  H
  H40      1.0000 0.91199  0.33916  0.95870  Biso   1.000  H
  H41      1.0000 0.23390  0.68875  0.12190  Biso   1.000  H
  H42      1.0000 0.76610  0.31125  0.87810  Biso   1.000  H
  C39      1.0000 0.09150  0.43120  0.38660  Biso   1.000  C
  C40      1.0000 0.90850  0.56880  0.61340  Biso   1.000  C
  H43      1.0000 0.05137  0.49487  0.37042  Biso   1.000  H
  H44      1.0000 0.94863  0.50513  0.62958  Biso   1.000  H
  C41      1.0000 0.35700  0.18220  0.48320  Biso   1.000  C
  C42      1.0000 0.64300  0.81780  0.51680  Biso   1.000  C
  H45      1.0000 0.44178  0.15271  0.51086  Biso   1.000  H
  H46      1.0000 0.55822  0.84729  0.48914  Biso   1.000  H
  C43      1.0000 0.61970  0.45710  0.28610  Biso   1.000  C
  C44      1.0000 0.38030  0.54290  0.71390  Biso   1.000  C
  C45      1.0000 0.63690  0.22220  0.07270  Biso   1.000  C
  C46      1.0000 0.36310  0.77780  0.92730  Biso   1.000  C
  H47      1.0000 0.70099  0.27461  0.04811  Biso   1.000  H
  H48      1.0000 0.29901  0.72539  0.95189  Biso   1.000  H
  C47      1.0000 0.57670  0.51780  0.21620  Biso   1.000  C
  C48      1.0000 0.42330  0.48220  0.78380  Biso   1.000  C
