data_image0
_cell_length_a       19.282
_cell_length_b       23.511
_cell_length_c       7.617
_cell_angle_alpha    90
_cell_angle_beta     90
_cell_angle_gamma    90

_symmetry_space_group_name_H-M    "P 1"
_symmetry_int_tables_number       1

loop_
  _symmetry_equiv_pos_as_xyz
  'x, y, z'

loop_
  _atom_site_label
  _atom_site_occupancy
  _atom_site_fract_x
  _atom_site_fract_y
  _atom_site_fract_z
  _atom_site_thermal_displace_type
  _atom_site_B_iso_or_equiv
  _atom_site_type_symbol
  Cu1      1.0000 0.47086  0.25000  0.49722  Biso   1.000  Cu
  Cu2      1.0000 0.02914  0.75000  0.99722  Biso   1.000  Cu
  Cu3      1.0000 0.97086  0.25000  0.00278  Biso   1.000  Cu
  Cu4      1.0000 0.52914  0.75000  0.50278  Biso   1.000  Cu
  N1       1.0000 0.34380  0.14187  0.77770  Biso   1.000  N
  N2       1.0000 0.15620  0.85813  0.27770  Biso   1.000  N
  N3       1.0000 0.84380  0.35813  0.72230  Biso   1.000  N
  N4       1.0000 0.65620  0.64187  0.22230  Biso   1.000  N
  N5       1.0000 0.65620  0.85813  0.22230  Biso   1.000  N
  N6       1.0000 0.84380  0.14187  0.72230  Biso   1.000  N
  N7       1.0000 0.15620  0.64187  0.27770  Biso   1.000  N
  N8       1.0000 0.34380  0.35813  0.77770  Biso   1.000  N
  N9       1.0000 0.31880  0.12950  0.61740  Biso   1.000  N
  N10      1.0000 0.18120  0.87050  0.11740  Biso   1.000  N
  N11      1.0000 0.81880  0.37050  0.88260  Biso   1.000  N
  N12      1.0000 0.68120  0.62950  0.38260  Biso   1.000  N
  N13      1.0000 0.68120  0.87050  0.38260  Biso   1.000  N
  N14      1.0000 0.81880  0.12950  0.88260  Biso   1.000  N
  N15      1.0000 0.18120  0.62950  0.11740  Biso   1.000  N
  N16      1.0000 0.31880  0.37050  0.61740  Biso   1.000  N
  N17      1.0000 0.40750  0.19012  0.59930  Biso   1.000  N
  N18      1.0000 0.09250  0.80988  0.09930  Biso   1.000  N
  N19      1.0000 0.90750  0.30988  0.90070  Biso   1.000  N
  N20      1.0000 0.59250  0.69012  0.40070  Biso   1.000  N
  N21      1.0000 0.59250  0.80988  0.40070  Biso   1.000  N
  N22      1.0000 0.90750  0.19012  0.90070  Biso   1.000  N
  N23      1.0000 0.09250  0.69012  0.09930  Biso   1.000  N
  N24      1.0000 0.40750  0.30988  0.59930  Biso   1.000  N
  N25      1.0000 0.39510  0.85549  0.77210  Biso   1.000  N
  N26      1.0000 0.10490  0.14451  0.27210  Biso   1.000  N
  N27      1.0000 0.89510  0.64451  0.72790  Biso   1.000  N
  N28      1.0000 0.60490  0.35549  0.22790  Biso   1.000  N
  N29      1.0000 0.60490  0.14451  0.22790  Biso   1.000  N
  N30      1.0000 0.89510  0.85549  0.72790  Biso   1.000  N
  N31      1.0000 0.10490  0.35549  0.27210  Biso   1.000  N
  N32      1.0000 0.39510  0.64451  0.77210  Biso   1.000  N
  N33      1.0000 0.37580  0.87100  0.60870  Biso   1.000  N
  N34      1.0000 0.12420  0.12900  0.10870  Biso   1.000  N
  N35      1.0000 0.87580  0.62900  0.89130  Biso   1.000  N
  N36      1.0000 0.62420  0.37100  0.39130  Biso   1.000  N
  N37      1.0000 0.62420  0.12900  0.39130  Biso   1.000  N
  N38      1.0000 0.87580  0.87100  0.89130  Biso   1.000  N
  N39      1.0000 0.12420  0.37100  0.10870  Biso   1.000  N
  N40      1.0000 0.37580  0.62900  0.60870  Biso   1.000  N
  N41      1.0000 0.46540  0.81003  0.60090  Biso   1.000  N
  N42      1.0000 0.03460  0.18997  0.10090  Biso   1.000  N
  N43      1.0000 0.96540  0.68997  0.89910  Biso   1.000  N
  N44      1.0000 0.53460  0.31003  0.39910  Biso   1.000  N
  N45      1.0000 0.53460  0.18997  0.39910  Biso   1.000  N
  N46      1.0000 0.96540  0.81003  0.89910  Biso   1.000  N
  N47      1.0000 0.03460  0.31003  0.10090  Biso   1.000  N
  N48      1.0000 0.46540  0.68997  0.60090  Biso   1.000  N
  Cl1      1.0000 0.54583  0.25000  0.81840  Biso   1.000  Cl
  Cl2      1.0000 0.95417  0.75000  0.31840  Biso   1.000  Cl
  Cl3      1.0000 0.04583  0.25000  0.68160  Biso   1.000  Cl
  Cl4      1.0000 0.45417  0.75000  0.18160  Biso   1.000  Cl
  Cl5      1.0000 0.39987  0.25000  0.18160  Biso   1.000  Cl
  Cl6      1.0000 0.10013  0.75000  0.68160  Biso   1.000  Cl
  Cl7      1.0000 0.89987  0.25000  0.31840  Biso   1.000  Cl
  Cl8      1.0000 0.60013  0.75000  0.81840  Biso   1.000  Cl
  C1       1.0000 0.39650  0.17750  0.76630  Biso   1.000  C
  C2       1.0000 0.10350  0.82250  0.26630  Biso   1.000  C
  C3       1.0000 0.89650  0.32250  0.73370  Biso   1.000  C
  C4       1.0000 0.60350  0.67750  0.23370  Biso   1.000  C
  C5       1.0000 0.60350  0.82250  0.23370  Biso   1.000  C
  C6       1.0000 0.89650  0.17750  0.73370  Biso   1.000  C
  C7       1.0000 0.10350  0.67750  0.26630  Biso   1.000  C
  C8       1.0000 0.39650  0.32250  0.76630  Biso   1.000  C
  H1       1.0000 0.42180  0.19150  0.86070  Biso   1.000  H
  H2       1.0000 0.07820  0.80850  0.36070  Biso   1.000  H
  H3       1.0000 0.92180  0.30850  0.63930  Biso   1.000  H
  H4       1.0000 0.57820  0.69150  0.13930  Biso   1.000  H
  H5       1.0000 0.57820  0.80850  0.13930  Biso   1.000  H
  H6       1.0000 0.92180  0.19150  0.63930  Biso   1.000  H
  H7       1.0000 0.07820  0.69150  0.36070  Biso   1.000  H
  H8       1.0000 0.42180  0.30850  0.86070  Biso   1.000  H
  C9       1.0000 0.35930  0.16010  0.51520  Biso   1.000  C
  C10      1.0000 0.14070  0.83990  0.01520  Biso   1.000  C
  C11      1.0000 0.85930  0.33990  0.98480  Biso   1.000  C
  C12      1.0000 0.64070  0.66010  0.48480  Biso   1.000  C
  C13      1.0000 0.64070  0.83990  0.48480  Biso   1.000  C
  C14      1.0000 0.85930  0.16010  0.98480  Biso   1.000  C
  C15      1.0000 0.14070  0.66010  0.01520  Biso   1.000  C
  C16      1.0000 0.35930  0.33990  0.51520  Biso   1.000  C
  H9       1.0000 0.35460  0.16060  0.39370  Biso   1.000  H
  H10      1.0000 0.14540  0.83940  0.89370  Biso   1.000  H
  H11      1.0000 0.85460  0.33940  0.10630  Biso   1.000  H
  H12      1.0000 0.64540  0.66060  0.60630  Biso   1.000  H
  H13      1.0000 0.64540  0.83940  0.60630  Biso   1.000  H
  H14      1.0000 0.85460  0.16060  0.10630  Biso   1.000  H
  H15      1.0000 0.14540  0.66060  0.89370  Biso   1.000  H
  H16      1.0000 0.35460  0.33940  0.39370  Biso   1.000  H
  C17      1.0000 0.31200  0.11740  0.93430  Biso   1.000  C
  C18      1.0000 0.18800  0.88260  0.43430  Biso   1.000  C
  C19      1.0000 0.81200  0.38260  0.56570  Biso   1.000  C
  C20      1.0000 0.68800  0.61740  0.06570  Biso   1.000  C
  C21      1.0000 0.68800  0.88260  0.06570  Biso   1.000  C
  C22      1.0000 0.81200  0.11740  0.56570  Biso   1.000  C
  C23      1.0000 0.18800  0.61740  0.43430  Biso   1.000  C
  C24      1.0000 0.31200  0.38260  0.93430  Biso   1.000  C
  H17      1.0000 0.26270  0.12600  0.93560  Biso   1.000  H
  H18      1.0000 0.23730  0.87400  0.43560  Biso   1.000  H
  H19      1.0000 0.76270  0.37400  0.56440  Biso   1.000  H
  H20      1.0000 0.73730  0.62600  0.06440  Biso   1.000  H
  H21      1.0000 0.73730  0.87400  0.06440  Biso   1.000  H
  H22      1.0000 0.76270  0.12600  0.56440  Biso   1.000  H
  H23      1.0000 0.23730  0.62600  0.43560  Biso   1.000  H
  H24      1.0000 0.26270  0.37400  0.93560  Biso   1.000  H
  H25      1.0000 0.33270  0.13390  0.03850  Biso   1.000  H
  H26      1.0000 0.16730  0.86610  0.53850  Biso   1.000  H
  H27      1.0000 0.83270  0.36610  0.46150  Biso   1.000  H
  H28      1.0000 0.66730  0.63390  0.96150  Biso   1.000  H
  H29      1.0000 0.66730  0.86610  0.96150  Biso   1.000  H
  H30      1.0000 0.83270  0.13390  0.46150  Biso   1.000  H
  H31      1.0000 0.16730  0.63390  0.53850  Biso   1.000  H
  H32      1.0000 0.33270  0.36610  0.03850  Biso   1.000  H
  C25      1.0000 0.32260  0.05390  0.93480  Biso   1.000  C
  C26      1.0000 0.17740  0.94610  0.43480  Biso   1.000  C
  C27      1.0000 0.82260  0.44610  0.56520  Biso   1.000  C
  C28      1.0000 0.67740  0.55390  0.06520  Biso   1.000  C
  C29      1.0000 0.67740  0.94610  0.06520  Biso   1.000  C
  C30      1.0000 0.82260  0.05390  0.56520  Biso   1.000  C
  C31      1.0000 0.17740  0.55390  0.43480  Biso   1.000  C
  C32      1.0000 0.32260  0.44610  0.93480  Biso   1.000  C
  C33      1.0000 0.27480  0.01700  0.86410  Biso   1.000  C
  C34      1.0000 0.22520  0.98300  0.36410  Biso   1.000  C
  C35      1.0000 0.77480  0.48300  0.63590  Biso   1.000  C
  C36      1.0000 0.72520  0.51700  0.13590  Biso   1.000  C
  C37      1.0000 0.72520  0.98300  0.13590  Biso   1.000  C
  C38      1.0000 0.77480  0.01700  0.63590  Biso   1.000  C
  C39      1.0000 0.22520  0.51700  0.36410  Biso   1.000  C
  C40      1.0000 0.27480  0.48300  0.86410  Biso   1.000  C
  C41      1.0000 0.28560  0.95950  0.86030  Biso   1.000  C
  C42      1.0000 0.21440  0.04050  0.36030  Biso   1.000  C
  C43      1.0000 0.78560  0.54050  0.63970  Biso   1.000  C
  C44      1.0000 0.71440  0.45950  0.13970  Biso   1.000  C
  C45      1.0000 0.71440  0.04050  0.13970  Biso   1.000  C
  C46      1.0000 0.78560  0.95950  0.63970  Biso   1.000  C
  C47      1.0000 0.21440  0.45950  0.36030  Biso   1.000  C
  C48      1.0000 0.28560  0.54050  0.86030  Biso   1.000  C
  C49      1.0000 0.34380  0.93540  0.92890  Biso   1.000  C
  C50      1.0000 0.15620  0.06460  0.42890  Biso   1.000  C
  C51      1.0000 0.84380  0.56460  0.57110  Biso   1.000  C
  C52      1.0000 0.65620  0.43540  0.07110  Biso   1.000  C
  C53      1.0000 0.65620  0.06460  0.07110  Biso   1.000  C
  C54      1.0000 0.84380  0.93540  0.57110  Biso   1.000  C
  C55      1.0000 0.15620  0.43540  0.42890  Biso   1.000  C
  C56      1.0000 0.34380  0.56460  0.92890  Biso   1.000  C
  C57      1.0000 0.39080  0.97240  0.00490  Biso   1.000  C
  C58      1.0000 0.10920  0.02760  0.50490  Biso   1.000  C
  C59      1.0000 0.89080  0.52760  0.49510  Biso   1.000  C
  C60      1.0000 0.60920  0.47240  0.99510  Biso   1.000  C
  C61      1.0000 0.60920  0.02760  0.99510  Biso   1.000  C
  C62      1.0000 0.89080  0.97240  0.49510  Biso   1.000  C
  C63      1.0000 0.10920  0.47240  0.50490  Biso   1.000  C
  C64      1.0000 0.39080  0.52760  0.00490  Biso   1.000  C
  C65      1.0000 0.38020  0.03000  0.00750  Biso   1.000  C
  C66      1.0000 0.11980  0.97000  0.50750  Biso   1.000  C
  C67      1.0000 0.88020  0.47000  0.49250  Biso   1.000  C
  C68      1.0000 0.61980  0.53000  0.99250  Biso   1.000  C
  C69      1.0000 0.61980  0.97000  0.99250  Biso   1.000  C
  C70      1.0000 0.88020  0.03000  0.49250  Biso   1.000  C
  C71      1.0000 0.11980  0.53000  0.50750  Biso   1.000  C
  C72      1.0000 0.38020  0.47000  0.00750  Biso   1.000  C
  C73      1.0000 0.35470  0.87220  0.92400  Biso   1.000  C
  C74      1.0000 0.14530  0.12780  0.42400  Biso   1.000  C
  C75      1.0000 0.85470  0.62780  0.57600  Biso   1.000  C
  C76      1.0000 0.64530  0.37220  0.07600  Biso   1.000  C
  C77      1.0000 0.64530  0.12780  0.07600  Biso   1.000  C
  C78      1.0000 0.85470  0.87220  0.57600  Biso   1.000  C
  C79      1.0000 0.14530  0.37220  0.42400  Biso   1.000  C
  C80      1.0000 0.35470  0.62780  0.92400  Biso   1.000  C
  H33      1.0000 0.37850  0.86030  0.03000  Biso   1.000  H
  H34      1.0000 0.12150  0.13970  0.53000  Biso   1.000  H
  H35      1.0000 0.87850  0.63970  0.47000  Biso   1.000  H
  H36      1.0000 0.62150  0.36030  0.97000  Biso   1.000  H
  H37      1.0000 0.62150  0.13970  0.97000  Biso   1.000  H
  H38      1.0000 0.87850  0.86030  0.47000  Biso   1.000  H
  H39      1.0000 0.12150  0.36030  0.53000  Biso   1.000  H
  H40      1.0000 0.37850  0.63970  0.03000  Biso   1.000  H
  H41      1.0000 0.31000  0.85330  0.92070  Biso   1.000  H
  H42      1.0000 0.19000  0.14670  0.42070  Biso   1.000  H
  H43      1.0000 0.81000  0.64670  0.57930  Biso   1.000  H
  H44      1.0000 0.69000  0.35330  0.07930  Biso   1.000  H
  H45      1.0000 0.69000  0.14670  0.07930  Biso   1.000  H
  H46      1.0000 0.81000  0.85330  0.57930  Biso   1.000  H
  H47      1.0000 0.19000  0.35330  0.42070  Biso   1.000  H
  H48      1.0000 0.31000  0.64670  0.92070  Biso   1.000  H
  C81      1.0000 0.44780  0.81940  0.76500  Biso   1.000  C
  C82      1.0000 0.05220  0.18060  0.26500  Biso   1.000  C
  C83      1.0000 0.94780  0.68060  0.73500  Biso   1.000  C
  C84      1.0000 0.55220  0.31940  0.23500  Biso   1.000  C
  C85      1.0000 0.55220  0.18060  0.23500  Biso   1.000  C
  C86      1.0000 0.94780  0.81940  0.73500  Biso   1.000  C
  C87      1.0000 0.05220  0.31940  0.26500  Biso   1.000  C
  C88      1.0000 0.44780  0.68060  0.76500  Biso   1.000  C
  H49      1.0000 0.46930  0.80310  0.86210  Biso   1.000  H
  H50      1.0000 0.03070  0.19690  0.36210  Biso   1.000  H
  H51      1.0000 0.96930  0.69690  0.63790  Biso   1.000  H
  H52      1.0000 0.53070  0.30310  0.13790  Biso   1.000  H
  H53      1.0000 0.53070  0.19690  0.13790  Biso   1.000  H
  H54      1.0000 0.96930  0.80310  0.63790  Biso   1.000  H
  H55      1.0000 0.03070  0.30310  0.36210  Biso   1.000  H
  H56      1.0000 0.46930  0.69690  0.86210  Biso   1.000  H
  C89      1.0000 0.42000  0.84290  0.51210  Biso   1.000  C
  C90      1.0000 0.08000  0.15710  0.01210  Biso   1.000  C
  C91      1.0000 0.92000  0.65710  0.98790  Biso   1.000  C
  C92      1.0000 0.58000  0.34290  0.48790  Biso   1.000  C
  C93      1.0000 0.58000  0.15710  0.48790  Biso   1.000  C
  C94      1.0000 0.92000  0.84290  0.98790  Biso   1.000  C
  C95      1.0000 0.08000  0.34290  0.01210  Biso   1.000  C
  C96      1.0000 0.42000  0.65710  0.51210  Biso   1.000  C
  H57      1.0000 0.42020  0.84540  0.39020  Biso   1.000  H
  H58      1.0000 0.07980  0.15460  0.89020  Biso   1.000  H
  H59      1.0000 0.92020  0.65460  0.10980  Biso   1.000  H
  H60      1.0000 0.57980  0.34540  0.60980  Biso   1.000  H
  H61      1.0000 0.57980  0.15460  0.60980  Biso   1.000  H
  H62      1.0000 0.92020  0.84540  0.10980  Biso   1.000  H
  H63      1.0000 0.07980  0.34540  0.89020  Biso   1.000  H
  H64      1.0000 0.42020  0.65460  0.39020  Biso   1.000  H
  F1       1.0000 0.42720  0.06330  0.08300  Biso   1.000  F
  F2       1.0000 0.07280  0.93670  0.58300  Biso   1.000  F
  F3       1.0000 0.92720  0.43670  0.41700  Biso   1.000  F
  F4       1.0000 0.57280  0.56330  0.91700  Biso   1.000  F
  F5       1.0000 0.57280  0.93670  0.91700  Biso   1.000  F
  F6       1.0000 0.92720  0.06330  0.41700  Biso   1.000  F
  F7       1.0000 0.07280  0.56330  0.58300  Biso   1.000  F
  F8       1.0000 0.42720  0.43670  0.08300  Biso   1.000  F
  F9       1.0000 0.44750  0.95030  0.08360  Biso   1.000  F
  F10      1.0000 0.05250  0.04970  0.58360  Biso   1.000  F
  F11      1.0000 0.94750  0.54970  0.41640  Biso   1.000  F
  F12      1.0000 0.55250  0.45030  0.91640  Biso   1.000  F
  F13      1.0000 0.55250  0.04970  0.91640  Biso   1.000  F
  F14      1.0000 0.94750  0.95030  0.41640  Biso   1.000  F
  F15      1.0000 0.05250  0.45030  0.58360  Biso   1.000  F
  F16      1.0000 0.44750  0.54970  0.08360  Biso   1.000  F
  F17      1.0000 0.23690  0.92686  0.78780  Biso   1.000  F
  F18      1.0000 0.26310  0.07314  0.28780  Biso   1.000  F
  F19      1.0000 0.73690  0.57314  0.71220  Biso   1.000  F
  F20      1.0000 0.76310  0.42686  0.21220  Biso   1.000  F
  F21      1.0000 0.76310  0.07314  0.21220  Biso   1.000  F
  F22      1.0000 0.73690  0.92686  0.71220  Biso   1.000  F
  F23      1.0000 0.26310  0.42686  0.28780  Biso   1.000  F
  F24      1.0000 0.23690  0.57314  0.78780  Biso   1.000  F
  F25      1.0000 0.21670  0.03834  0.79800  Biso   1.000  F
  F26      1.0000 0.28330  0.96166  0.29800  Biso   1.000  F
  F27      1.0000 0.71670  0.46166  0.70200  Biso   1.000  F
  F28      1.0000 0.78330  0.53834  0.20200  Biso   1.000  F
  F29      1.0000 0.78330  0.96166  0.20200  Biso   1.000  F
  F30      1.0000 0.71670  0.03834  0.70200  Biso   1.000  F
  F31      1.0000 0.28330  0.53834  0.29800  Biso   1.000  F
  F32      1.0000 0.21670  0.46166  0.79800  Biso   1.000  F
  O1       1.0000 0.56470  0.97390  0.45650  Biso   1.000  O
  O2       1.0000 0.93530  0.02610  0.95650  Biso   1.000  O
  O3       1.0000 0.06470  0.52610  0.04350  Biso   1.000  O
  O4       1.0000 0.43530  0.47390  0.54350  Biso   1.000  O
  O5       1.0000 0.43530  0.02610  0.54350  Biso   1.000  O
  O6       1.0000 0.06470  0.97390  0.04350  Biso   1.000  O
  O7       1.0000 0.93530  0.47390  0.95650  Biso   1.000  O
  O8       1.0000 0.56470  0.52610  0.45650  Biso   1.000  O
  H65      1.0000 0.53530  0.95170  0.49300  Biso   1.000  H
  H66      1.0000 0.96470  0.04830  0.99300  Biso   1.000  H
  H67      1.0000 0.03530  0.54830  0.00700  Biso   1.000  H
  H68      1.0000 0.46470  0.45170  0.50700  Biso   1.000  H
  H69      1.0000 0.46470  0.04830  0.50700  Biso   1.000  H
  H70      1.0000 0.03530  0.95170  0.00700  Biso   1.000  H
  H71      1.0000 0.96470  0.45170  0.99300  Biso   1.000  H
  H72      1.0000 0.53530  0.54830  0.49300  Biso   1.000  H
  H73      1.0000 0.55740  0.00820  0.45250  Biso   1.000  H
  H74      1.0000 0.94260  0.99180  0.95250  Biso   1.000  H
  H75      1.0000 0.05740  0.49180  0.04750  Biso   1.000  H
  H76      1.0000 0.44260  0.50820  0.54750  Biso   1.000  H
  H77      1.0000 0.44260  0.99180  0.54750  Biso   1.000  H
  H78      1.0000 0.05740  0.00820  0.04750  Biso   1.000  H
  H79      1.0000 0.94260  0.50820  0.95250  Biso   1.000  H
  H80      1.0000 0.55740  0.49180  0.45250  Biso   1.000  H
  O9       1.0000 0.23100  0.25000  0.20800  Biso   1.000  O
  O10      1.0000 0.26900  0.75000  0.70800  Biso   1.000  O
  O11      1.0000 0.73100  0.25000  0.29200  Biso   1.000  O
  O12      1.0000 0.76900  0.75000  0.79200  Biso   1.000  O
  H81      1.0000 0.24960  0.28040  0.18380  Biso   1.000  H
  H82      1.0000 0.25040  0.71960  0.68380  Biso   1.000  H
  H83      1.0000 0.74960  0.21960  0.31620  Biso   1.000  H
  H84      1.0000 0.75040  0.78040  0.81620  Biso   1.000  H
  H85      1.0000 0.75040  0.71960  0.81620  Biso   1.000  H
  H86      1.0000 0.74960  0.28040  0.31620  Biso   1.000  H
  H87      1.0000 0.25040  0.78040  0.68380  Biso   1.000  H
  H88      1.0000 0.24960  0.21960  0.18380  Biso   1.000  H
  O13      1.0000 0.20720  0.22400  0.78800  Biso   1.000  O
  O14      1.0000 0.29280  0.77600  0.28800  Biso   1.000  O
  O15      1.0000 0.70720  0.27600  0.71200  Biso   1.000  O
  O16      1.0000 0.79280  0.72400  0.21200  Biso   1.000  O
  O17      1.0000 0.79280  0.77600  0.21200  Biso   1.000  O
  O18      1.0000 0.70720  0.22400  0.71200  Biso   1.000  O
  O19      1.0000 0.29280  0.72400  0.28800  Biso   1.000  O
  O20      1.0000 0.20720  0.27600  0.78800  Biso   1.000  O
  H89      1.0000 0.20140  0.19700  0.72120  Biso   1.000  H
  H90      1.0000 0.29860  0.80300  0.22120  Biso   1.000  H
  H91      1.0000 0.70140  0.30300  0.77880  Biso   1.000  H
  H92      1.0000 0.79860  0.69700  0.27880  Biso   1.000  H
  H93      1.0000 0.79860  0.80300  0.27880  Biso   1.000  H
  H94      1.0000 0.70140  0.19700  0.77880  Biso   1.000  H
  H95      1.0000 0.29860  0.69700  0.22120  Biso   1.000  H
  H96      1.0000 0.20140  0.30300  0.72120  Biso   1.000  H
  H97      1.0000 0.17520  0.25000  0.81320  Biso   1.000  H
  H98      1.0000 0.32480  0.75000  0.31320  Biso   1.000  H
  H99      1.0000 0.67520  0.25000  0.68680  Biso   1.000  H
  H100     1.0000 0.82480  0.75000  0.18680  Biso   1.000  H
