data_image0
_cell_length_a       16.856
_cell_length_b       16.856
_cell_length_c       9.4198
_cell_angle_alpha    90
_cell_angle_beta     90
_cell_angle_gamma    90

_symmetry_space_group_name_H-M    "P 1"
_symmetry_int_tables_number       1

loop_
  _symmetry_equiv_pos_as_xyz
  'x, y, z'

loop_
  _atom_site_label
  _atom_site_occupancy
  _atom_site_fract_x
  _atom_site_fract_y
  _atom_site_fract_z
  _atom_site_thermal_displace_type
  _atom_site_B_iso_or_equiv
  _atom_site_type_symbol
  Cu1      1.0000 0.25000  0.25000  0.61391  Biso   1.000  Cu
  Cu2      1.0000 0.25000  0.25000  0.88609  Biso   1.000  Cu
  Cu3      1.0000 0.75000  0.75000  0.38609  Biso   1.000  Cu
  Cu4      1.0000 0.75000  0.75000  0.11391  Biso   1.000  Cu
  O1       1.0000 0.18173  0.15567  0.63530  Biso   1.000  O
  O2       1.0000 0.34433  0.18173  0.63530  Biso   1.000  O
  O3       1.0000 0.15567  0.31827  0.63530  Biso   1.000  O
  O4       1.0000 0.15567  0.18173  0.86470  Biso   1.000  O
  O5       1.0000 0.31827  0.34433  0.63530  Biso   1.000  O
  O6       1.0000 0.31827  0.15567  0.86470  Biso   1.000  O
  O7       1.0000 0.18173  0.34433  0.86470  Biso   1.000  O
  O8       1.0000 0.34433  0.31827  0.86470  Biso   1.000  O
  O9       1.0000 0.81827  0.84433  0.36470  Biso   1.000  O
  O10      1.0000 0.65567  0.81827  0.36470  Biso   1.000  O
  O11      1.0000 0.84433  0.68173  0.36470  Biso   1.000  O
  O12      1.0000 0.84433  0.81827  0.13530  Biso   1.000  O
  O13      1.0000 0.68173  0.65567  0.36470  Biso   1.000  O
  O14      1.0000 0.68173  0.84433  0.13530  Biso   1.000  O
  O15      1.0000 0.81827  0.65567  0.13530  Biso   1.000  O
  O16      1.0000 0.65567  0.68173  0.13530  Biso   1.000  O
  C1       1.0000 0.14434  0.14434  0.75000  Biso   1.000  C
  C2       1.0000 0.35566  0.14434  0.75000  Biso   1.000  C
  C3       1.0000 0.14434  0.35566  0.75000  Biso   1.000  C
  C4       1.0000 0.35566  0.35566  0.75000  Biso   1.000  C
  C5       1.0000 0.85566  0.85566  0.25000  Biso   1.000  C
  C6       1.0000 0.64434  0.85566  0.25000  Biso   1.000  C
  C7       1.0000 0.85566  0.64434  0.25000  Biso   1.000  C
  C8       1.0000 0.64434  0.64434  0.25000  Biso   1.000  C
  C9       1.0000 0.08130  0.08130  0.75000  Biso   1.000  C
  C10      1.0000 0.41870  0.08130  0.75000  Biso   1.000  C
  C11      1.0000 0.08130  0.41870  0.75000  Biso   1.000  C
  C12      1.0000 0.41870  0.41870  0.75000  Biso   1.000  C
  C13      1.0000 0.91870  0.91870  0.25000  Biso   1.000  C
  C14      1.0000 0.58130  0.91870  0.25000  Biso   1.000  C
  C15      1.0000 0.91870  0.58130  0.25000  Biso   1.000  C
  C16      1.0000 0.58130  0.58130  0.25000  Biso   1.000  C
  C17      1.0000 0.01496  0.09029  0.66080  Biso   1.000  C
  C18      1.0000 0.40971  0.01496  0.66080  Biso   1.000  C
  C19      1.0000 0.09029  0.48504  0.66080  Biso   1.000  C
  C20      1.0000 0.09029  0.01496  0.83920  Biso   1.000  C
  C21      1.0000 0.48504  0.40971  0.66080  Biso   1.000  C
  C22      1.0000 0.48504  0.09029  0.83920  Biso   1.000  C
  C23      1.0000 0.01496  0.40971  0.83920  Biso   1.000  C
  C24      1.0000 0.40971  0.48504  0.83920  Biso   1.000  C
  C25      1.0000 0.98504  0.90971  0.33920  Biso   1.000  C
  C26      1.0000 0.59029  0.98504  0.33920  Biso   1.000  C
  C27      1.0000 0.90971  0.51496  0.33920  Biso   1.000  C
  C28      1.0000 0.90971  0.98504  0.16080  Biso   1.000  C
  C29      1.0000 0.51496  0.59029  0.33920  Biso   1.000  C
  C30      1.0000 0.51496  0.90971  0.16080  Biso   1.000  C
  C31      1.0000 0.98504  0.59029  0.16080  Biso   1.000  C
  C32      1.0000 0.59029  0.51496  0.16080  Biso   1.000  C
  C33      1.0000 0.00281  0.15821  0.57230  Biso   1.000  C
  C34      1.0000 0.34179  0.00281  0.57230  Biso   1.000  C
  C35      1.0000 0.15821  0.49719  0.57230  Biso   1.000  C
  C36      1.0000 0.15821  0.00281  0.92770  Biso   1.000  C
  C37      1.0000 0.49719  0.34179  0.57230  Biso   1.000  C
  C38      1.0000 0.49719  0.15821  0.92770  Biso   1.000  C
  C39      1.0000 0.00281  0.34179  0.92770  Biso   1.000  C
  C40      1.0000 0.34179  0.49719  0.92770  Biso   1.000  C
  C41      1.0000 0.99719  0.84179  0.42770  Biso   1.000  C
  C42      1.0000 0.65821  0.99719  0.42770  Biso   1.000  C
  C43      1.0000 0.84179  0.50281  0.42770  Biso   1.000  C
  C44      1.0000 0.84179  0.99719  0.07230  Biso   1.000  C
  C45      1.0000 0.50281  0.65821  0.42770  Biso   1.000  C
  C46      1.0000 0.50281  0.84179  0.07230  Biso   1.000  C
  C47      1.0000 0.99719  0.65821  0.07230  Biso   1.000  C
  C48      1.0000 0.65821  0.50281  0.07230  Biso   1.000  C
  H1       1.0000 0.03940  0.19950  0.57410  Biso   1.000  H
  H2       1.0000 0.30050  0.03940  0.57410  Biso   1.000  H
  H3       1.0000 0.19950  0.46060  0.57410  Biso   1.000  H
  H4       1.0000 0.19950  0.03940  0.92590  Biso   1.000  H
  H5       1.0000 0.46060  0.30050  0.57410  Biso   1.000  H
  H6       1.0000 0.46060  0.19950  0.92590  Biso   1.000  H
  H7       1.0000 0.03940  0.30050  0.92590  Biso   1.000  H
  H8       1.0000 0.30050  0.46060  0.92590  Biso   1.000  H
  H9       1.0000 0.96060  0.80050  0.42590  Biso   1.000  H
  H10      1.0000 0.69950  0.96060  0.42590  Biso   1.000  H
  H11      1.0000 0.80050  0.53940  0.42590  Biso   1.000  H
  H12      1.0000 0.80050  0.96060  0.07410  Biso   1.000  H
  H13      1.0000 0.53940  0.69950  0.42590  Biso   1.000  H
  H14      1.0000 0.53940  0.80050  0.07410  Biso   1.000  H
  H15      1.0000 0.96060  0.69950  0.07410  Biso   1.000  H
  H16      1.0000 0.69950  0.53940  0.07410  Biso   1.000  H
  C49      1.0000 0.93860  0.16325  0.48580  Biso   1.000  C
  C50      1.0000 0.33675  0.93860  0.48580  Biso   1.000  C
  C51      1.0000 0.16325  0.56140  0.48580  Biso   1.000  C
  C52      1.0000 0.16325  0.93860  0.01420  Biso   1.000  C
  C53      1.0000 0.56140  0.33675  0.48580  Biso   1.000  C
  C54      1.0000 0.56140  0.16325  0.01420  Biso   1.000  C
  C55      1.0000 0.93860  0.33675  0.01420  Biso   1.000  C
  C56      1.0000 0.33675  0.56140  0.01420  Biso   1.000  C
  C57      1.0000 0.06140  0.83675  0.51420  Biso   1.000  C
  C58      1.0000 0.66325  0.06140  0.51420  Biso   1.000  C
  C59      1.0000 0.83675  0.43860  0.51420  Biso   1.000  C
  C60      1.0000 0.83675  0.06140  0.98580  Biso   1.000  C
  C61      1.0000 0.43860  0.66325  0.51420  Biso   1.000  C
  C62      1.0000 0.43860  0.83675  0.98580  Biso   1.000  C
  C63      1.0000 0.06140  0.66325  0.98580  Biso   1.000  C
  C64      1.0000 0.66325  0.43860  0.98580  Biso   1.000  C
  H17      1.0000 0.93180  0.20780  0.42880  Biso   1.000  H
  H18      1.0000 0.29220  0.93180  0.42880  Biso   1.000  H
  H19      1.0000 0.20780  0.56820  0.42880  Biso   1.000  H
  H20      1.0000 0.20780  0.93180  0.07120  Biso   1.000  H
  H21      1.0000 0.56820  0.29220  0.42880  Biso   1.000  H
  H22      1.0000 0.56820  0.20780  0.07120  Biso   1.000  H
  H23      1.0000 0.93180  0.29220  0.07120  Biso   1.000  H
  H24      1.0000 0.29220  0.56820  0.07120  Biso   1.000  H
  H25      1.0000 0.06820  0.79220  0.57120  Biso   1.000  H
  H26      1.0000 0.70780  0.06820  0.57120  Biso   1.000  H
  H27      1.0000 0.79220  0.43180  0.57120  Biso   1.000  H
  H28      1.0000 0.79220  0.06820  0.92880  Biso   1.000  H
  H29      1.0000 0.43180  0.70780  0.57120  Biso   1.000  H
  H30      1.0000 0.43180  0.79220  0.92880  Biso   1.000  H
  H31      1.0000 0.06820  0.70780  0.92880  Biso   1.000  H
  H32      1.0000 0.70780  0.43180  0.92880  Biso   1.000  H
  C65      1.0000 0.88172  0.10115  0.48130  Biso   1.000  C
  C66      1.0000 0.39885  0.88172  0.48130  Biso   1.000  C
  C67      1.0000 0.10115  0.61828  0.48130  Biso   1.000  C
  C68      1.0000 0.10115  0.88172  0.01870  Biso   1.000  C
  C69      1.0000 0.61828  0.39885  0.48130  Biso   1.000  C
  C70      1.0000 0.61828  0.10115  0.01870  Biso   1.000  C
  C71      1.0000 0.88172  0.39885  0.01870  Biso   1.000  C
  C72      1.0000 0.39885  0.61828  0.01870  Biso   1.000  C
  C73      1.0000 0.11828  0.89885  0.51870  Biso   1.000  C
  C74      1.0000 0.60115  0.11828  0.51870  Biso   1.000  C
  C75      1.0000 0.89885  0.38172  0.51870  Biso   1.000  C
  C76      1.0000 0.89885  0.11828  0.98130  Biso   1.000  C
  C77      1.0000 0.38172  0.60115  0.51870  Biso   1.000  C
  C78      1.0000 0.38172  0.89885  0.98130  Biso   1.000  C
  C79      1.0000 0.11828  0.60115  0.98130  Biso   1.000  C
  C80      1.0000 0.60115  0.38172  0.98130  Biso   1.000  C
  H33      1.0000 0.83880  0.10470  0.41960  Biso   1.000  H
  H34      1.0000 0.39530  0.83880  0.41960  Biso   1.000  H
  H35      1.0000 0.10470  0.66120  0.41960  Biso   1.000  H
  H36      1.0000 0.10470  0.83880  0.08040  Biso   1.000  H
  H37      1.0000 0.66120  0.39530  0.41960  Biso   1.000  H
  H38      1.0000 0.66120  0.10470  0.08040  Biso   1.000  H
  H39      1.0000 0.83880  0.39530  0.08040  Biso   1.000  H
  H40      1.0000 0.39530  0.66120  0.08040  Biso   1.000  H
  H41      1.0000 0.16120  0.89530  0.58040  Biso   1.000  H
  H42      1.0000 0.60470  0.16120  0.58040  Biso   1.000  H
  H43      1.0000 0.89530  0.33880  0.58040  Biso   1.000  H
  H44      1.0000 0.89530  0.16120  0.91960  Biso   1.000  H
  H45      1.0000 0.33880  0.60470  0.58040  Biso   1.000  H
  H46      1.0000 0.33880  0.89530  0.91960  Biso   1.000  H
  H47      1.0000 0.16120  0.60470  0.91960  Biso   1.000  H
  H48      1.0000 0.60470  0.33880  0.91960  Biso   1.000  H
  C81      1.0000 0.88959  0.03701  0.56600  Biso   1.000  C
  C82      1.0000 0.46299  0.88959  0.56600  Biso   1.000  C
  C83      1.0000 0.03701  0.61041  0.56600  Biso   1.000  C
  C84      1.0000 0.03701  0.88959  0.93400  Biso   1.000  C
  C85      1.0000 0.61041  0.46299  0.56600  Biso   1.000  C
  C86      1.0000 0.61041  0.03701  0.93400  Biso   1.000  C
  C87      1.0000 0.88959  0.46299  0.93400  Biso   1.000  C
  C88      1.0000 0.46299  0.61041  0.93400  Biso   1.000  C
  C89      1.0000 0.11041  0.96299  0.43400  Biso   1.000  C
  C90      1.0000 0.53701  0.11041  0.43400  Biso   1.000  C
  C91      1.0000 0.96299  0.38959  0.43400  Biso   1.000  C
  C92      1.0000 0.96299  0.11041  0.06600  Biso   1.000  C
  C93      1.0000 0.38959  0.53701  0.43400  Biso   1.000  C
  C94      1.0000 0.38959  0.96299  0.06600  Biso   1.000  C
  C95      1.0000 0.11041  0.53701  0.06600  Biso   1.000  C
  C96      1.0000 0.53701  0.38959  0.06600  Biso   1.000  C
  H49      1.0000 0.85140  0.99730  0.56310  Biso   1.000  H
  H50      1.0000 0.50270  0.85140  0.56310  Biso   1.000  H
  H51      1.0000 0.99730  0.64860  0.56310  Biso   1.000  H
  H52      1.0000 0.99730  0.85140  0.93690  Biso   1.000  H
  H53      1.0000 0.64860  0.50270  0.56310  Biso   1.000  H
  H54      1.0000 0.64860  0.99730  0.93690  Biso   1.000  H
  H55      1.0000 0.85140  0.50270  0.93690  Biso   1.000  H
  H56      1.0000 0.50270  0.64860  0.93690  Biso   1.000  H
  H57      1.0000 0.14860  0.00270  0.43690  Biso   1.000  H
  H58      1.0000 0.49730  0.14860  0.43690  Biso   1.000  H
  H59      1.0000 0.00270  0.35140  0.43690  Biso   1.000  H
  H60      1.0000 0.00270  0.14860  0.06310  Biso   1.000  H
  H61      1.0000 0.35140  0.49730  0.43690  Biso   1.000  H
  H62      1.0000 0.35140  0.00270  0.06310  Biso   1.000  H
  H63      1.0000 0.14860  0.49730  0.06310  Biso   1.000  H
  H64      1.0000 0.49730  0.35140  0.06310  Biso   1.000  H
  C97      1.0000 0.95568  0.02914  0.66020  Biso   1.000  C
  C98      1.0000 0.47086  0.95568  0.66020  Biso   1.000  C
  C99      1.0000 0.02914  0.54432  0.66020  Biso   1.000  C
  C100     1.0000 0.02914  0.95568  0.83980  Biso   1.000  C
  C101     1.0000 0.54432  0.47086  0.66020  Biso   1.000  C
  C102     1.0000 0.54432  0.02914  0.83980  Biso   1.000  C
  C103     1.0000 0.95568  0.47086  0.83980  Biso   1.000  C
  C104     1.0000 0.47086  0.54432  0.83980  Biso   1.000  C
  C105     1.0000 0.04432  0.97086  0.33980  Biso   1.000  C
  C106     1.0000 0.52914  0.04432  0.33980  Biso   1.000  C
  C107     1.0000 0.97086  0.45568  0.33980  Biso   1.000  C
  C108     1.0000 0.97086  0.04432  0.16020  Biso   1.000  C
  C109     1.0000 0.45568  0.52914  0.33980  Biso   1.000  C
  C110     1.0000 0.45568  0.97086  0.16020  Biso   1.000  C
  C111     1.0000 0.04432  0.52914  0.16020  Biso   1.000  C
  C112     1.0000 0.52914  0.45568  0.16020  Biso   1.000  C
  C113     1.0000 0.96434  0.96434  0.75000  Biso   1.000  C
  C114     1.0000 0.53566  0.96434  0.75000  Biso   1.000  C
  C115     1.0000 0.96434  0.53566  0.75000  Biso   1.000  C
  C116     1.0000 0.53566  0.53566  0.75000  Biso   1.000  C
  C117     1.0000 0.03566  0.03566  0.25000  Biso   1.000  C
  C118     1.0000 0.46434  0.03566  0.25000  Biso   1.000  C
  C119     1.0000 0.03566  0.46434  0.25000  Biso   1.000  C
  C120     1.0000 0.46434  0.46434  0.25000  Biso   1.000  C
  H65      1.0000 0.92530  0.92530  0.75000  Biso   1.000  H
  H66      1.0000 0.57470  0.92530  0.75000  Biso   1.000  H
  H67      1.0000 0.92530  0.57470  0.75000  Biso   1.000  H
  H68      1.0000 0.57470  0.57470  0.75000  Biso   1.000  H
  H69      1.0000 0.07470  0.07470  0.25000  Biso   1.000  H
  H70      1.0000 0.42530  0.07470  0.25000  Biso   1.000  H
  H71      1.0000 0.07470  0.42530  0.25000  Biso   1.000  H
  H72      1.0000 0.42530  0.42530  0.25000  Biso   1.000  H
  N1       1.0000 0.25000  0.25000  0.38420  Biso   1.000  N
  N2       1.0000 0.25000  0.25000  0.11580  Biso   1.000  N
  N3       1.0000 0.75000  0.75000  0.61580  Biso   1.000  N
  N4       1.0000 0.75000  0.75000  0.88420  Biso   1.000  N
  C121     1.0000 0.24000  0.16450  0.33370  Biso   1.000  C
  C122     1.0000 0.33550  0.24000  0.33370  Biso   1.000  C
  C123     1.0000 0.16450  0.26000  0.33370  Biso   1.000  C
  C124     1.0000 0.16450  0.24000  0.16630  Biso   1.000  C
  C125     1.0000 0.26000  0.33550  0.33370  Biso   1.000  C
  C126     1.0000 0.26000  0.16450  0.16630  Biso   1.000  C
  C127     1.0000 0.24000  0.33550  0.16630  Biso   1.000  C
  C128     1.0000 0.33550  0.26000  0.16630  Biso   1.000  C
  C129     1.0000 0.76000  0.83550  0.66630  Biso   1.000  C
  C130     1.0000 0.66450  0.76000  0.66630  Biso   1.000  C
  C131     1.0000 0.83550  0.74000  0.66630  Biso   1.000  C
  C132     1.0000 0.83550  0.76000  0.83370  Biso   1.000  C
  C133     1.0000 0.74000  0.66450  0.66630  Biso   1.000  C
  C134     1.0000 0.74000  0.83550  0.83370  Biso   1.000  C
  C135     1.0000 0.76000  0.66450  0.83370  Biso   1.000  C
  C136     1.0000 0.66450  0.74000  0.83370  Biso   1.000  C
  H73      1.0000 0.18700  0.14570  0.35210  Biso   1.000  H
  H74      1.0000 0.35430  0.18700  0.35210  Biso   1.000  H
  H75      1.0000 0.14570  0.31300  0.35210  Biso   1.000  H
  H76      1.0000 0.14570  0.18700  0.14790  Biso   1.000  H
  H77      1.0000 0.31300  0.35430  0.35210  Biso   1.000  H
  H78      1.0000 0.31300  0.14570  0.14790  Biso   1.000  H
  H79      1.0000 0.18700  0.35430  0.14790  Biso   1.000  H
  H80      1.0000 0.35430  0.31300  0.14790  Biso   1.000  H
  H81      1.0000 0.81300  0.85430  0.64790  Biso   1.000  H
  H82      1.0000 0.64570  0.81300  0.64790  Biso   1.000  H
  H83      1.0000 0.85430  0.68700  0.64790  Biso   1.000  H
  H84      1.0000 0.85430  0.81300  0.85210  Biso   1.000  H
  H85      1.0000 0.68700  0.64570  0.64790  Biso   1.000  H
  H86      1.0000 0.68700  0.85430  0.85210  Biso   1.000  H
  H87      1.0000 0.81300  0.64570  0.85210  Biso   1.000  H
  H88      1.0000 0.64570  0.68700  0.85210  Biso   1.000  H
  H89      1.0000 0.27680  0.13090  0.38250  Biso   1.000  H
  H90      1.0000 0.36910  0.27680  0.38250  Biso   1.000  H
  H91      1.0000 0.13090  0.22320  0.38250  Biso   1.000  H
  H92      1.0000 0.13090  0.27680  0.11750  Biso   1.000  H
  H93      1.0000 0.22320  0.36910  0.38250  Biso   1.000  H
  H94      1.0000 0.22320  0.13090  0.11750  Biso   1.000  H
  H95      1.0000 0.27680  0.36910  0.11750  Biso   1.000  H
  H96      1.0000 0.36910  0.22320  0.11750  Biso   1.000  H
  H97      1.0000 0.72320  0.86910  0.61750  Biso   1.000  H
  H98      1.0000 0.63090  0.72320  0.61750  Biso   1.000  H
  H99      1.0000 0.86910  0.77680  0.61750  Biso   1.000  H
  H100     1.0000 0.86910  0.72320  0.88250  Biso   1.000  H
  H101     1.0000 0.77680  0.63090  0.61750  Biso   1.000  H
  H102     1.0000 0.77680  0.86910  0.88250  Biso   1.000  H
  H103     1.0000 0.72320  0.63090  0.88250  Biso   1.000  H
  H104     1.0000 0.63090  0.77680  0.88250  Biso   1.000  H
  C137     1.0000 0.18370  0.29900  0.33050  Biso   1.000  C
  C138     1.0000 0.20100  0.18370  0.33050  Biso   1.000  C
  C139     1.0000 0.29900  0.31630  0.33050  Biso   1.000  C
  C140     1.0000 0.29900  0.18370  0.16950  Biso   1.000  C
  C141     1.0000 0.31630  0.20100  0.33050  Biso   1.000  C
  C142     1.0000 0.31630  0.29900  0.16950  Biso   1.000  C
  C143     1.0000 0.18370  0.20100  0.16950  Biso   1.000  C
  C144     1.0000 0.20100  0.31630  0.16950  Biso   1.000  C
  C145     1.0000 0.81630  0.70100  0.66950  Biso   1.000  C
  C146     1.0000 0.79900  0.81630  0.66950  Biso   1.000  C
  C147     1.0000 0.70100  0.68370  0.66950  Biso   1.000  C
  C148     1.0000 0.70100  0.81630  0.83050  Biso   1.000  C
  C149     1.0000 0.68370  0.79900  0.66950  Biso   1.000  C
  C150     1.0000 0.68370  0.70100  0.83050  Biso   1.000  C
  C151     1.0000 0.81630  0.79900  0.83050  Biso   1.000  C
  C152     1.0000 0.79900  0.68370  0.83050  Biso   1.000  C
  H105     1.0000 0.19420  0.35470  0.34580  Biso   1.000  H
  H106     1.0000 0.14530  0.19420  0.34580  Biso   1.000  H
  H107     1.0000 0.35470  0.30580  0.34580  Biso   1.000  H
  H108     1.0000 0.35470  0.19420  0.15420  Biso   1.000  H
  H109     1.0000 0.30580  0.14530  0.34580  Biso   1.000  H
  H110     1.0000 0.30580  0.35470  0.15420  Biso   1.000  H
  H111     1.0000 0.19420  0.14530  0.15420  Biso   1.000  H
  H112     1.0000 0.14530  0.30580  0.15420  Biso   1.000  H
  H113     1.0000 0.80580  0.64530  0.65420  Biso   1.000  H
  H114     1.0000 0.85470  0.80580  0.65420  Biso   1.000  H
  H115     1.0000 0.64530  0.69420  0.65420  Biso   1.000  H
  H116     1.0000 0.64530  0.80580  0.84580  Biso   1.000  H
  H117     1.0000 0.69420  0.85470  0.65420  Biso   1.000  H
  H118     1.0000 0.69420  0.64530  0.84580  Biso   1.000  H
  H119     1.0000 0.80580  0.85470  0.84580  Biso   1.000  H
  H120     1.0000 0.85470  0.69420  0.84580  Biso   1.000  H
  H121     1.0000 0.13610  0.28560  0.38080  Biso   1.000  H
  H122     1.0000 0.21440  0.13610  0.38080  Biso   1.000  H
  H123     1.0000 0.28560  0.36390  0.38080  Biso   1.000  H
  H124     1.0000 0.28560  0.13610  0.11920  Biso   1.000  H
  H125     1.0000 0.36390  0.21440  0.38080  Biso   1.000  H
  H126     1.0000 0.36390  0.28560  0.11920  Biso   1.000  H
  H127     1.0000 0.13610  0.21440  0.11920  Biso   1.000  H
  H128     1.0000 0.21440  0.36390  0.11920  Biso   1.000  H
  H129     1.0000 0.86390  0.71440  0.61920  Biso   1.000  H
  H130     1.0000 0.78560  0.86390  0.61920  Biso   1.000  H
  H131     1.0000 0.71440  0.63610  0.61920  Biso   1.000  H
  H132     1.0000 0.71440  0.86390  0.88080  Biso   1.000  H
  H133     1.0000 0.63610  0.78560  0.61920  Biso   1.000  H
  H134     1.0000 0.63610  0.71440  0.88080  Biso   1.000  H
  H135     1.0000 0.86390  0.78560  0.88080  Biso   1.000  H
  H136     1.0000 0.78560  0.63610  0.88080  Biso   1.000  H
  C153     1.0000 0.32900  0.27900  0.33020  Biso   1.000  C
  C154     1.0000 0.22100  0.32900  0.33020  Biso   1.000  C
  C155     1.0000 0.27900  0.17100  0.33020  Biso   1.000  C
  C156     1.0000 0.27900  0.32900  0.16980  Biso   1.000  C
  C157     1.0000 0.17100  0.22100  0.33020  Biso   1.000  C
  C158     1.0000 0.17100  0.27900  0.16980  Biso   1.000  C
  C159     1.0000 0.32900  0.22100  0.16980  Biso   1.000  C
  C160     1.0000 0.22100  0.17100  0.16980  Biso   1.000  C
  C161     1.0000 0.67100  0.72100  0.66980  Biso   1.000  C
  C162     1.0000 0.77900  0.67100  0.66980  Biso   1.000  C
  C163     1.0000 0.72100  0.82900  0.66980  Biso   1.000  C
  C164     1.0000 0.72100  0.67100  0.83020  Biso   1.000  C
  C165     1.0000 0.82900  0.77900  0.66980  Biso   1.000  C
  C166     1.0000 0.82900  0.72100  0.83020  Biso   1.000  C
  C167     1.0000 0.67100  0.77900  0.83020  Biso   1.000  C
  C168     1.0000 0.77900  0.82900  0.83020  Biso   1.000  C
  H137     1.0000 0.37030  0.24100  0.34550  Biso   1.000  H
  H138     1.0000 0.25900  0.37030  0.34550  Biso   1.000  H
  H139     1.0000 0.24100  0.12970  0.34550  Biso   1.000  H
  H140     1.0000 0.24100  0.37030  0.15450  Biso   1.000  H
  H141     1.0000 0.12970  0.25900  0.34550  Biso   1.000  H
  H142     1.0000 0.12970  0.24100  0.15450  Biso   1.000  H
  H143     1.0000 0.37030  0.25900  0.15450  Biso   1.000  H
  H144     1.0000 0.25900  0.12970  0.15450  Biso   1.000  H
  H145     1.0000 0.62970  0.75900  0.65450  Biso   1.000  H
  H146     1.0000 0.74100  0.62970  0.65450  Biso   1.000  H
  H147     1.0000 0.75900  0.87030  0.65450  Biso   1.000  H
  H148     1.0000 0.75900  0.62970  0.84550  Biso   1.000  H
  H149     1.0000 0.87030  0.74100  0.65450  Biso   1.000  H
  H150     1.0000 0.87030  0.75900  0.84550  Biso   1.000  H
  H151     1.0000 0.62970  0.74100  0.84550  Biso   1.000  H
  H152     1.0000 0.74100  0.87030  0.84550  Biso   1.000  H
  H153     1.0000 0.34250  0.32710  0.37990  Biso   1.000  H
  H154     1.0000 0.17290  0.34250  0.37990  Biso   1.000  H
  H155     1.0000 0.32710  0.15750  0.37990  Biso   1.000  H
  H156     1.0000 0.32710  0.34250  0.12010  Biso   1.000  H
  H157     1.0000 0.15750  0.17290  0.37990  Biso   1.000  H
  H158     1.0000 0.15750  0.32710  0.12010  Biso   1.000  H
  H159     1.0000 0.34250  0.17290  0.12010  Biso   1.000  H
  H160     1.0000 0.17290  0.15750  0.12010  Biso   1.000  H
  H161     1.0000 0.65750  0.67290  0.62010  Biso   1.000  H
  H162     1.0000 0.82710  0.65750  0.62010  Biso   1.000  H
  H163     1.0000 0.67290  0.84250  0.62010  Biso   1.000  H
  H164     1.0000 0.67290  0.65750  0.87990  Biso   1.000  H
  H165     1.0000 0.84250  0.82710  0.62010  Biso   1.000  H
  H166     1.0000 0.84250  0.67290  0.87990  Biso   1.000  H
  H167     1.0000 0.65750  0.82710  0.87990  Biso   1.000  H
  H168     1.0000 0.82710  0.84250  0.87990  Biso   1.000  H
  O17      1.0000 0.75000  0.25000  0.25000  Biso   1.000  O
  O18      1.0000 0.25000  0.75000  0.25000  Biso   1.000  O
  O19      1.0000 0.25000  0.75000  0.75000  Biso   1.000  O
  O20      1.0000 0.75000  0.25000  0.75000  Biso   1.000  O
  C169     1.0000 0.75000  0.25000  0.40270  Biso   1.000  C
  C170     1.0000 0.25000  0.75000  0.40270  Biso   1.000  C
  C171     1.0000 0.25000  0.75000  0.09730  Biso   1.000  C
  C172     1.0000 0.75000  0.25000  0.09730  Biso   1.000  C
  C173     1.0000 0.25000  0.75000  0.59730  Biso   1.000  C
  C174     1.0000 0.75000  0.25000  0.59730  Biso   1.000  C
  C175     1.0000 0.75000  0.25000  0.90270  Biso   1.000  C
  C176     1.0000 0.25000  0.75000  0.90270  Biso   1.000  C
  H169     1.0000 0.71400  0.21020  0.43670  Biso   1.000  H
  H170     1.0000 0.28980  0.71400  0.43670  Biso   1.000  H
  H171     1.0000 0.21020  0.78600  0.43670  Biso   1.000  H
  H172     1.0000 0.21020  0.71400  0.06330  Biso   1.000  H
  H173     1.0000 0.78600  0.28980  0.43670  Biso   1.000  H
  H174     1.0000 0.78600  0.21020  0.06330  Biso   1.000  H
  H175     1.0000 0.71400  0.28980  0.06330  Biso   1.000  H
  H176     1.0000 0.28980  0.78600  0.06330  Biso   1.000  H
  H177     1.0000 0.28600  0.78980  0.56330  Biso   1.000  H
  H178     1.0000 0.71020  0.28600  0.56330  Biso   1.000  H
  H179     1.0000 0.78980  0.21400  0.56330  Biso   1.000  H
  H180     1.0000 0.78980  0.28600  0.93670  Biso   1.000  H
  H181     1.0000 0.21400  0.71020  0.56330  Biso   1.000  H
  H182     1.0000 0.21400  0.78980  0.93670  Biso   1.000  H
  H183     1.0000 0.28600  0.71020  0.93670  Biso   1.000  H
  H184     1.0000 0.71020  0.21400  0.93670  Biso   1.000  H
  H185     1.0000 0.73350  0.30110  0.43670  Biso   1.000  H
  H186     1.0000 0.19890  0.73350  0.43670  Biso   1.000  H
  H187     1.0000 0.30110  0.76650  0.43670  Biso   1.000  H
  H188     1.0000 0.30110  0.73350  0.06330  Biso   1.000  H
  H189     1.0000 0.76650  0.19890  0.43670  Biso   1.000  H
  H190     1.0000 0.76650  0.30110  0.06330  Biso   1.000  H
  H191     1.0000 0.73350  0.19890  0.06330  Biso   1.000  H
  H192     1.0000 0.19890  0.76650  0.06330  Biso   1.000  H
  H193     1.0000 0.26650  0.69890  0.56330  Biso   1.000  H
  H194     1.0000 0.80110  0.26650  0.56330  Biso   1.000  H
  H195     1.0000 0.69890  0.23350  0.56330  Biso   1.000  H
  H196     1.0000 0.69890  0.26650  0.93670  Biso   1.000  H
  H197     1.0000 0.23350  0.80110  0.56330  Biso   1.000  H
  H198     1.0000 0.23350  0.69890  0.93670  Biso   1.000  H
  H199     1.0000 0.26650  0.80110  0.93670  Biso   1.000  H
  H200     1.0000 0.80110  0.23350  0.93670  Biso   1.000  H
  H201     1.0000 0.80250  0.23880  0.43670  Biso   1.000  H
  H202     1.0000 0.26120  0.80250  0.43670  Biso   1.000  H
  H203     1.0000 0.23880  0.69750  0.43670  Biso   1.000  H
  H204     1.0000 0.23880  0.80250  0.06330  Biso   1.000  H
  H205     1.0000 0.69750  0.26120  0.43670  Biso   1.000  H
  H206     1.0000 0.69750  0.23880  0.06330  Biso   1.000  H
  H207     1.0000 0.80250  0.26120  0.06330  Biso   1.000  H
  H208     1.0000 0.26120  0.69750  0.06330  Biso   1.000  H
  H209     1.0000 0.19750  0.76120  0.56330  Biso   1.000  H
  H210     1.0000 0.73880  0.19750  0.56330  Biso   1.000  H
  H211     1.0000 0.76120  0.30250  0.56330  Biso   1.000  H
  H212     1.0000 0.76120  0.19750  0.93670  Biso   1.000  H
  H213     1.0000 0.30250  0.73880  0.56330  Biso   1.000  H
  H214     1.0000 0.30250  0.76120  0.93670  Biso   1.000  H
  H215     1.0000 0.19750  0.73880  0.93670  Biso   1.000  H
  H216     1.0000 0.73880  0.30250  0.93670  Biso   1.000  H
