data_image0
_cell_length_a       11.3015
_cell_length_b       25.361
_cell_length_c       15.2995
_cell_angle_alpha    90
_cell_angle_beta     90
_cell_angle_gamma    90

_symmetry_space_group_name_H-M    "P 1"
_symmetry_int_tables_number       1

loop_
  _symmetry_equiv_pos_as_xyz
  'x, y, z'

loop_
  _atom_site_label
  _atom_site_occupancy
  _atom_site_fract_x
  _atom_site_fract_y
  _atom_site_fract_z
  _atom_site_thermal_displace_type
  _atom_site_B_iso_or_equiv
  _atom_site_type_symbol
  Cu1      1.0000 0.50000  0.36880  0.04022  Biso   1.000  Cu
  Cu2      1.0000 0.00000  0.86880  0.04022  Biso   1.000  Cu
  Cu3      1.0000 0.50000  0.13120  0.54022  Biso   1.000  Cu
  Cu4      1.0000 0.50000  0.86880  0.45978  Biso   1.000  Cu
  Cu5      1.0000 0.50000  0.63120  0.95978  Biso   1.000  Cu
  Cu6      1.0000 0.00000  0.63120  0.54022  Biso   1.000  Cu
  Cu7      1.0000 0.00000  0.36880  0.45978  Biso   1.000  Cu
  Cu8      1.0000 0.00000  0.13120  0.95978  Biso   1.000  Cu
  Cl1      1.0000 0.50000  0.11350  0.09103  Biso   1.000  Cl
  Cl2      1.0000 0.00000  0.61350  0.09103  Biso   1.000  Cl
  Cl3      1.0000 0.50000  0.38650  0.59103  Biso   1.000  Cl
  Cl4      1.0000 0.50000  0.61350  0.40897  Biso   1.000  Cl
  Cl5      1.0000 0.50000  0.88650  0.90897  Biso   1.000  Cl
  Cl6      1.0000 0.00000  0.88650  0.59103  Biso   1.000  Cl
  Cl7      1.0000 0.00000  0.11350  0.40897  Biso   1.000  Cl
  Cl8      1.0000 0.00000  0.38650  0.90897  Biso   1.000  Cl
  O1       1.0000 0.37747  0.32841  0.98539  Biso   1.000  O
  O2       1.0000 0.87747  0.82841  0.98539  Biso   1.000  O
  O3       1.0000 0.62253  0.17159  0.48539  Biso   1.000  O
  O4       1.0000 0.62253  0.82841  0.51461  Biso   1.000  O
  O5       1.0000 0.37747  0.67159  0.01461  Biso   1.000  O
  O6       1.0000 0.12253  0.67159  0.48539  Biso   1.000  O
  O7       1.0000 0.12253  0.32841  0.51461  Biso   1.000  O
  O8       1.0000 0.87747  0.17159  0.01461  Biso   1.000  O
  O9       1.0000 0.62253  0.67159  0.01461  Biso   1.000  O
  O10      1.0000 0.12253  0.17159  0.01461  Biso   1.000  O
  O11      1.0000 0.37747  0.82841  0.51461  Biso   1.000  O
  O12      1.0000 0.37747  0.17159  0.48539  Biso   1.000  O
  O13      1.0000 0.62253  0.32841  0.98539  Biso   1.000  O
  O14      1.0000 0.87747  0.32841  0.51461  Biso   1.000  O
  O15      1.0000 0.87747  0.67159  0.48539  Biso   1.000  O
  O16      1.0000 0.12253  0.82841  0.98539  Biso   1.000  O
  O17      1.0000 0.39740  0.11955  0.14486  Biso   1.000  O
  O18      1.0000 0.89740  0.61955  0.14486  Biso   1.000  O
  O19      1.0000 0.60260  0.38045  0.64486  Biso   1.000  O
  O20      1.0000 0.60260  0.61955  0.35514  Biso   1.000  O
  O21      1.0000 0.39740  0.88045  0.85514  Biso   1.000  O
  O22      1.0000 0.10260  0.88045  0.64486  Biso   1.000  O
  O23      1.0000 0.10260  0.11955  0.35514  Biso   1.000  O
  O24      1.0000 0.89740  0.38045  0.85514  Biso   1.000  O
  O25      1.0000 0.60260  0.88045  0.85514  Biso   1.000  O
  O26      1.0000 0.10260  0.38045  0.85514  Biso   1.000  O
  O27      1.0000 0.39740  0.61955  0.35514  Biso   1.000  O
  O28      1.0000 0.39740  0.38045  0.64486  Biso   1.000  O
  O29      1.0000 0.60260  0.11955  0.14486  Biso   1.000  O
  O30      1.0000 0.89740  0.11955  0.35514  Biso   1.000  O
  O31      1.0000 0.89740  0.88045  0.64486  Biso   1.000  O
  O32      1.0000 0.10260  0.61955  0.14486  Biso   1.000  O
  O33      1.0000 0.50000  0.15530  0.02830  Biso   1.000  O
  O34      1.0000 0.00000  0.65530  0.02830  Biso   1.000  O
  O35      1.0000 0.50000  0.34470  0.52830  Biso   1.000  O
  O36      1.0000 0.50000  0.65530  0.47170  Biso   1.000  O
  O37      1.0000 0.50000  0.84470  0.97170  Biso   1.000  O
  O38      1.0000 0.00000  0.84470  0.52830  Biso   1.000  O
  O39      1.0000 0.00000  0.15530  0.47170  Biso   1.000  O
  O40      1.0000 0.00000  0.34470  0.97170  Biso   1.000  O
  O41      1.0000 0.50000  0.06191  0.05390  Biso   1.000  O
  O42      1.0000 0.00000  0.56191  0.05390  Biso   1.000  O
  O43      1.0000 0.50000  0.43809  0.55390  Biso   1.000  O
  O44      1.0000 0.50000  0.56191  0.44610  Biso   1.000  O
  O45      1.0000 0.50000  0.93809  0.94610  Biso   1.000  O
  O46      1.0000 0.00000  0.93809  0.55390  Biso   1.000  O
  O47      1.0000 0.00000  0.06191  0.44610  Biso   1.000  O
  O48      1.0000 0.00000  0.43809  0.94610  Biso   1.000  O
  N1       1.0000 0.50000  0.17603  0.66527  Biso   1.000  N
  N2       1.0000 0.00000  0.67603  0.66527  Biso   1.000  N
  N3       1.0000 0.50000  0.32397  0.16527  Biso   1.000  N
  N4       1.0000 0.50000  0.67603  0.83473  Biso   1.000  N
  N5       1.0000 0.50000  0.82397  0.33473  Biso   1.000  N
  N6       1.0000 0.00000  0.82397  0.16527  Biso   1.000  N
  N7       1.0000 0.00000  0.17603  0.83473  Biso   1.000  N
  N8       1.0000 0.00000  0.32397  0.33473  Biso   1.000  N
  N9       1.0000 0.59370  0.42940  0.06770  Biso   1.000  N
  N10      1.0000 0.09370  0.92940  0.06770  Biso   1.000  N
  N11      1.0000 0.40630  0.07060  0.56770  Biso   1.000  N
  N12      1.0000 0.40630  0.92940  0.43230  Biso   1.000  N
  N13      1.0000 0.59370  0.57060  0.93230  Biso   1.000  N
  N14      1.0000 0.90630  0.57060  0.56770  Biso   1.000  N
  N15      1.0000 0.90630  0.42940  0.43230  Biso   1.000  N
  N16      1.0000 0.09370  0.07060  0.93230  Biso   1.000  N
  N17      1.0000 0.40630  0.57060  0.93230  Biso   1.000  N
  N18      1.0000 0.90630  0.07060  0.93230  Biso   1.000  N
  N19      1.0000 0.59370  0.92940  0.43230  Biso   1.000  N
  N20      1.0000 0.59370  0.07060  0.56770  Biso   1.000  N
  N21      1.0000 0.40630  0.42940  0.06770  Biso   1.000  N
  N22      1.0000 0.09370  0.42940  0.43230  Biso   1.000  N
  N23      1.0000 0.09370  0.57060  0.56770  Biso   1.000  N
  N24      1.0000 0.90630  0.92940  0.06770  Biso   1.000  N
  N25      1.0000 0.63910  0.42060  0.08310  Biso   1.000  N
  N26      1.0000 0.13910  0.92060  0.08310  Biso   1.000  N
  N27      1.0000 0.36090  0.07940  0.58310  Biso   1.000  N
  N28      1.0000 0.36090  0.92060  0.41690  Biso   1.000  N
  N29      1.0000 0.63910  0.57940  0.91690  Biso   1.000  N
  N30      1.0000 0.86090  0.57940  0.58310  Biso   1.000  N
  N31      1.0000 0.86090  0.42060  0.41690  Biso   1.000  N
  N32      1.0000 0.13910  0.07940  0.91690  Biso   1.000  N
  N33      1.0000 0.36090  0.57940  0.91690  Biso   1.000  N
  N34      1.0000 0.86090  0.07940  0.91690  Biso   1.000  N
  N35      1.0000 0.63910  0.92060  0.41690  Biso   1.000  N
  N36      1.0000 0.63910  0.07940  0.58310  Biso   1.000  N
  N37      1.0000 0.36090  0.42060  0.08310  Biso   1.000  N
  N38      1.0000 0.13910  0.42060  0.41690  Biso   1.000  N
  N39      1.0000 0.13910  0.57940  0.58310  Biso   1.000  N
  N40      1.0000 0.86090  0.92060  0.08310  Biso   1.000  N
  C1       1.0000 0.50000  0.22822  0.65810  Biso   1.000  C
  C2       1.0000 0.00000  0.72822  0.65810  Biso   1.000  C
  C3       1.0000 0.50000  0.27178  0.15810  Biso   1.000  C
  C4       1.0000 0.50000  0.72822  0.84190  Biso   1.000  C
  C5       1.0000 0.50000  0.77178  0.34190  Biso   1.000  C
  C6       1.0000 0.00000  0.77178  0.15810  Biso   1.000  C
  C7       1.0000 0.00000  0.22822  0.84190  Biso   1.000  C
  C8       1.0000 0.00000  0.27178  0.34190  Biso   1.000  C
  H1       1.0000 0.50000  0.24330  0.60120  Biso   1.000  H
  H2       1.0000 0.00000  0.74330  0.60120  Biso   1.000  H
  H3       1.0000 0.50000  0.25670  0.10120  Biso   1.000  H
  H4       1.0000 0.50000  0.74330  0.89880  Biso   1.000  H
  H5       1.0000 0.50000  0.75670  0.39880  Biso   1.000  H
  H6       1.0000 0.00000  0.75670  0.10120  Biso   1.000  H
  H7       1.0000 0.00000  0.24330  0.89880  Biso   1.000  H
  H8       1.0000 0.00000  0.25670  0.39880  Biso   1.000  H
  C9       1.0000 0.50000  0.26164  0.72920  Biso   1.000  C
  C10      1.0000 0.00000  0.76164  0.72920  Biso   1.000  C
  C11      1.0000 0.50000  0.23836  0.22920  Biso   1.000  C
  C12      1.0000 0.50000  0.76164  0.77080  Biso   1.000  C
  C13      1.0000 0.50000  0.73836  0.27080  Biso   1.000  C
  C14      1.0000 0.00000  0.73836  0.22920  Biso   1.000  C
  C15      1.0000 0.00000  0.26164  0.77080  Biso   1.000  C
  C16      1.0000 0.00000  0.23836  0.27080  Biso   1.000  C
  H9       1.0000 0.50000  0.29870  0.72060  Biso   1.000  H
  H10      1.0000 0.00000  0.79870  0.72060  Biso   1.000  H
  H11      1.0000 0.50000  0.20130  0.22060  Biso   1.000  H
  H12      1.0000 0.50000  0.79870  0.77940  Biso   1.000  H
  H13      1.0000 0.50000  0.70130  0.27940  Biso   1.000  H
  H14      1.0000 0.00000  0.70130  0.22060  Biso   1.000  H
  H15      1.0000 0.00000  0.29870  0.77940  Biso   1.000  H
  H16      1.0000 0.00000  0.20130  0.27940  Biso   1.000  H
  C17      1.0000 0.50000  0.24146  0.81250  Biso   1.000  C
  C18      1.0000 0.00000  0.74146  0.81250  Biso   1.000  C
  C19      1.0000 0.50000  0.25854  0.31250  Biso   1.000  C
  C20      1.0000 0.50000  0.74146  0.68750  Biso   1.000  C
  C21      1.0000 0.50000  0.75854  0.18750  Biso   1.000  C
  C22      1.0000 0.00000  0.75854  0.31250  Biso   1.000  C
  C23      1.0000 0.00000  0.24146  0.68750  Biso   1.000  C
  C24      1.0000 0.00000  0.25854  0.18750  Biso   1.000  C
  C25      1.0000 0.50000  0.18682  0.82110  Biso   1.000  C
  C26      1.0000 0.00000  0.68682  0.82110  Biso   1.000  C
  C27      1.0000 0.50000  0.31318  0.32110  Biso   1.000  C
  C28      1.0000 0.50000  0.68682  0.67890  Biso   1.000  C
  C29      1.0000 0.50000  0.81318  0.17890  Biso   1.000  C
  C30      1.0000 0.00000  0.81318  0.32110  Biso   1.000  C
  C31      1.0000 0.00000  0.18682  0.67890  Biso   1.000  C
  C32      1.0000 0.00000  0.31318  0.17890  Biso   1.000  C
  H17      1.0000 0.50000  0.17090  0.87730  Biso   1.000  H
  H18      1.0000 0.00000  0.67090  0.87730  Biso   1.000  H
  H19      1.0000 0.50000  0.32910  0.37730  Biso   1.000  H
  H20      1.0000 0.50000  0.67090  0.62270  Biso   1.000  H
  H21      1.0000 0.50000  0.82910  0.12270  Biso   1.000  H
  H22      1.0000 0.00000  0.82910  0.37730  Biso   1.000  H
  H23      1.0000 0.00000  0.17090  0.62270  Biso   1.000  H
  H24      1.0000 0.00000  0.32910  0.12270  Biso   1.000  H
  C33      1.0000 0.50000  0.15607  0.74640  Biso   1.000  C
  C34      1.0000 0.00000  0.65607  0.74640  Biso   1.000  C
  C35      1.0000 0.50000  0.34393  0.24640  Biso   1.000  C
  C36      1.0000 0.50000  0.65607  0.75360  Biso   1.000  C
  C37      1.0000 0.50000  0.84393  0.25360  Biso   1.000  C
  C38      1.0000 0.00000  0.84393  0.24640  Biso   1.000  C
  C39      1.0000 0.00000  0.15607  0.75360  Biso   1.000  C
  C40      1.0000 0.00000  0.34393  0.25360  Biso   1.000  C
  H25      1.0000 0.50000  0.11880  0.75300  Biso   1.000  H
  H26      1.0000 0.00000  0.61880  0.75300  Biso   1.000  H
  H27      1.0000 0.50000  0.38120  0.25300  Biso   1.000  H
  H28      1.0000 0.50000  0.61880  0.74700  Biso   1.000  H
  H29      1.0000 0.50000  0.88120  0.24700  Biso   1.000  H
  H30      1.0000 0.00000  0.88120  0.25300  Biso   1.000  H
  H31      1.0000 0.00000  0.11880  0.74700  Biso   1.000  H
  H32      1.0000 0.00000  0.38120  0.24700  Biso   1.000  H
  C41      1.0000 0.39080  0.29502  0.92350  Biso   1.000  C
  C42      1.0000 0.89080  0.79502  0.92350  Biso   1.000  C
  C43      1.0000 0.60920  0.20498  0.42350  Biso   1.000  C
  C44      1.0000 0.60920  0.79502  0.57650  Biso   1.000  C
  C45      1.0000 0.39080  0.70498  0.07650  Biso   1.000  C
  C46      1.0000 0.10920  0.70498  0.42350  Biso   1.000  C
  C47      1.0000 0.10920  0.29502  0.57650  Biso   1.000  C
  C48      1.0000 0.89080  0.20498  0.07650  Biso   1.000  C
  C49      1.0000 0.60920  0.70498  0.07650  Biso   1.000  C
  C50      1.0000 0.10920  0.20498  0.07650  Biso   1.000  C
  C51      1.0000 0.39080  0.79502  0.57650  Biso   1.000  C
  C52      1.0000 0.39080  0.20498  0.42350  Biso   1.000  C
  C53      1.0000 0.60920  0.29502  0.92350  Biso   1.000  C
  C54      1.0000 0.89080  0.29502  0.57650  Biso   1.000  C
  C55      1.0000 0.89080  0.70498  0.42350  Biso   1.000  C
  C56      1.0000 0.10920  0.79502  0.92350  Biso   1.000  C
  C57      1.0000 0.27780  0.27352  0.88720  Biso   1.000  C
  C58      1.0000 0.77780  0.77352  0.88720  Biso   1.000  C
  C59      1.0000 0.72220  0.22648  0.38720  Biso   1.000  C
  C60      1.0000 0.72220  0.77352  0.61280  Biso   1.000  C
  C61      1.0000 0.27780  0.72648  0.11280  Biso   1.000  C
  C62      1.0000 0.22220  0.72648  0.38720  Biso   1.000  C
  C63      1.0000 0.22220  0.27352  0.61280  Biso   1.000  C
  C64      1.0000 0.77780  0.22648  0.11280  Biso   1.000  C
  C65      1.0000 0.72220  0.72648  0.11280  Biso   1.000  C
  C66      1.0000 0.22220  0.22648  0.11280  Biso   1.000  C
  C67      1.0000 0.27780  0.77352  0.61280  Biso   1.000  C
  C68      1.0000 0.27780  0.22648  0.38720  Biso   1.000  C
  C69      1.0000 0.72220  0.27352  0.88720  Biso   1.000  C
  C70      1.0000 0.77780  0.27352  0.61280  Biso   1.000  C
  C71      1.0000 0.77780  0.72648  0.38720  Biso   1.000  C
  C72      1.0000 0.22220  0.77352  0.88720  Biso   1.000  C
  H33      1.0000 0.21060  0.29060  0.91610  Biso   1.000  H
  H34      1.0000 0.71060  0.79060  0.91610  Biso   1.000  H
  H35      1.0000 0.78940  0.20940  0.41610  Biso   1.000  H
  H36      1.0000 0.78940  0.79060  0.58390  Biso   1.000  H
  H37      1.0000 0.21060  0.70940  0.08390  Biso   1.000  H
  H38      1.0000 0.28940  0.70940  0.41610  Biso   1.000  H
  H39      1.0000 0.28940  0.29060  0.58390  Biso   1.000  H
  H40      1.0000 0.71060  0.20940  0.08390  Biso   1.000  H
  H41      1.0000 0.78940  0.70940  0.08390  Biso   1.000  H
  H42      1.0000 0.28940  0.20940  0.08390  Biso   1.000  H
  H43      1.0000 0.21060  0.79060  0.58390  Biso   1.000  H
  H44      1.0000 0.21060  0.20940  0.41610  Biso   1.000  H
  H45      1.0000 0.78940  0.29060  0.91610  Biso   1.000  H
  H46      1.0000 0.71060  0.29060  0.58390  Biso   1.000  H
  H47      1.0000 0.71060  0.70940  0.41610  Biso   1.000  H
  H48      1.0000 0.28940  0.79060  0.91610  Biso   1.000  H
  H49      1.0000 0.27440  0.23540  0.89760  Biso   1.000  H
  H50      1.0000 0.77440  0.73540  0.89760  Biso   1.000  H
  H51      1.0000 0.72560  0.26460  0.39760  Biso   1.000  H
  H52      1.0000 0.72560  0.73540  0.60240  Biso   1.000  H
  H53      1.0000 0.27440  0.76460  0.10240  Biso   1.000  H
  H54      1.0000 0.22560  0.76460  0.39760  Biso   1.000  H
  H55      1.0000 0.22560  0.23540  0.60240  Biso   1.000  H
  H56      1.0000 0.77440  0.26460  0.10240  Biso   1.000  H
  H57      1.0000 0.72560  0.76460  0.10240  Biso   1.000  H
  H58      1.0000 0.22560  0.26460  0.10240  Biso   1.000  H
  H59      1.0000 0.27440  0.73540  0.60240  Biso   1.000  H
  H60      1.0000 0.27440  0.26460  0.39760  Biso   1.000  H
  H61      1.0000 0.72560  0.23540  0.89760  Biso   1.000  H
  H62      1.0000 0.77440  0.23540  0.60240  Biso   1.000  H
  H63      1.0000 0.77440  0.76460  0.39760  Biso   1.000  H
  H64      1.0000 0.22560  0.73540  0.89760  Biso   1.000  H
  H65      1.0000 0.27450  0.28040  0.82430  Biso   1.000  H
  H66      1.0000 0.77450  0.78040  0.82430  Biso   1.000  H
  H67      1.0000 0.72550  0.21960  0.32430  Biso   1.000  H
  H68      1.0000 0.72550  0.78040  0.67570  Biso   1.000  H
  H69      1.0000 0.27450  0.71960  0.17570  Biso   1.000  H
  H70      1.0000 0.22550  0.71960  0.32430  Biso   1.000  H
  H71      1.0000 0.22550  0.28040  0.67570  Biso   1.000  H
  H72      1.0000 0.77450  0.21960  0.17570  Biso   1.000  H
  H73      1.0000 0.72550  0.71960  0.17570  Biso   1.000  H
  H74      1.0000 0.22550  0.21960  0.17570  Biso   1.000  H
  H75      1.0000 0.27450  0.78040  0.67570  Biso   1.000  H
  H76      1.0000 0.27450  0.21960  0.32430  Biso   1.000  H
  H77      1.0000 0.72550  0.28040  0.82430  Biso   1.000  H
  H78      1.0000 0.77450  0.28040  0.67570  Biso   1.000  H
  H79      1.0000 0.77450  0.71960  0.32430  Biso   1.000  H
  H80      1.0000 0.22550  0.78040  0.82430  Biso   1.000  H
  C73      1.0000 0.50000  0.27788  0.89040  Biso   1.000  C
  C74      1.0000 0.00000  0.77788  0.89040  Biso   1.000  C
  C75      1.0000 0.50000  0.22212  0.39040  Biso   1.000  C
  C76      1.0000 0.50000  0.77788  0.60960  Biso   1.000  C
  C77      1.0000 0.50000  0.72212  0.10960  Biso   1.000  C
  C78      1.0000 0.00000  0.72212  0.39040  Biso   1.000  C
  C79      1.0000 0.00000  0.27788  0.60960  Biso   1.000  C
  C80      1.0000 0.00000  0.22212  0.10960  Biso   1.000  C
  C81      1.0000 0.71080  0.43300  0.05760  Biso   1.000  C
  C82      1.0000 0.21080  0.93300  0.05760  Biso   1.000  C
  C83      1.0000 0.28920  0.06700  0.55760  Biso   1.000  C
  C84      1.0000 0.28920  0.93300  0.44240  Biso   1.000  C
  C85      1.0000 0.71080  0.56700  0.94240  Biso   1.000  C
  C86      1.0000 0.78920  0.56700  0.55760  Biso   1.000  C
  C87      1.0000 0.78920  0.43300  0.44240  Biso   1.000  C
  C88      1.0000 0.21080  0.06700  0.94240  Biso   1.000  C
  C89      1.0000 0.28920  0.56700  0.94240  Biso   1.000  C
  C90      1.0000 0.78920  0.06700  0.94240  Biso   1.000  C
  C91      1.0000 0.71080  0.93300  0.44240  Biso   1.000  C
  C92      1.0000 0.71080  0.06700  0.55760  Biso   1.000  C
  C93      1.0000 0.28920  0.43300  0.05760  Biso   1.000  C
  C94      1.0000 0.21080  0.43300  0.44240  Biso   1.000  C
  C95      1.0000 0.21080  0.56700  0.55760  Biso   1.000  C
  C96      1.0000 0.78920  0.93300  0.05760  Biso   1.000  C
  H81      1.0000 0.75320  0.40370  0.03500  Biso   1.000  H
  H82      1.0000 0.25320  0.90370  0.03500  Biso   1.000  H
  H83      1.0000 0.24680  0.09630  0.53500  Biso   1.000  H
  H84      1.0000 0.24680  0.90370  0.46500  Biso   1.000  H
  H85      1.0000 0.75320  0.59630  0.96500  Biso   1.000  H
  H86      1.0000 0.74680  0.59630  0.53500  Biso   1.000  H
  H87      1.0000 0.74680  0.40370  0.46500  Biso   1.000  H
  H88      1.0000 0.25320  0.09630  0.96500  Biso   1.000  H
  H89      1.0000 0.24680  0.59630  0.96500  Biso   1.000  H
  H90      1.0000 0.74680  0.09630  0.96500  Biso   1.000  H
  H91      1.0000 0.75320  0.90370  0.46500  Biso   1.000  H
  H92      1.0000 0.75320  0.09630  0.53500  Biso   1.000  H
  H93      1.0000 0.24680  0.40370  0.03500  Biso   1.000  H
  H94      1.0000 0.25320  0.40370  0.46500  Biso   1.000  H
  H95      1.0000 0.25320  0.59630  0.53500  Biso   1.000  H
  H96      1.0000 0.74680  0.90370  0.03500  Biso   1.000  H
  C97      1.0000 0.77300  0.47940  0.07990  Biso   1.000  C
  C98      1.0000 0.27300  0.97940  0.07990  Biso   1.000  C
  C99      1.0000 0.22700  0.02060  0.57990  Biso   1.000  C
  C100     1.0000 0.22700  0.97940  0.42010  Biso   1.000  C
  C101     1.0000 0.77300  0.52060  0.92010  Biso   1.000  C
  C102     1.0000 0.72700  0.52060  0.57990  Biso   1.000  C
  C103     1.0000 0.72700  0.47940  0.42010  Biso   1.000  C
  C104     1.0000 0.27300  0.02060  0.92010  Biso   1.000  C
  C105     1.0000 0.22700  0.52060  0.92010  Biso   1.000  C
  C106     1.0000 0.72700  0.02060  0.92010  Biso   1.000  C
  C107     1.0000 0.77300  0.97940  0.42010  Biso   1.000  C
  C108     1.0000 0.77300  0.02060  0.57990  Biso   1.000  C
  C109     1.0000 0.22700  0.47940  0.07990  Biso   1.000  C
  C110     1.0000 0.27300  0.47940  0.42010  Biso   1.000  C
  C111     1.0000 0.27300  0.52060  0.57990  Biso   1.000  C
  C112     1.0000 0.72700  0.97940  0.07990  Biso   1.000  C
  H97      1.0000 0.85610  0.48140  0.07120  Biso   1.000  H
  H98      1.0000 0.35610  0.98140  0.07120  Biso   1.000  H
  H99      1.0000 0.14390  0.01860  0.57120  Biso   1.000  H
  H100     1.0000 0.14390  0.98140  0.42880  Biso   1.000  H
  H101     1.0000 0.85610  0.51860  0.92880  Biso   1.000  H
  H102     1.0000 0.64390  0.51860  0.57120  Biso   1.000  H
  H103     1.0000 0.64390  0.48140  0.42880  Biso   1.000  H
  H104     1.0000 0.35610  0.01860  0.92880  Biso   1.000  H
  H105     1.0000 0.14390  0.51860  0.92880  Biso   1.000  H
  H106     1.0000 0.64390  0.01860  0.92880  Biso   1.000  H
  H107     1.0000 0.85610  0.98140  0.42880  Biso   1.000  H
  H108     1.0000 0.85610  0.01860  0.57120  Biso   1.000  H
  H109     1.0000 0.14390  0.48140  0.07120  Biso   1.000  H
  H110     1.0000 0.35610  0.48140  0.42880  Biso   1.000  H
  H111     1.0000 0.35610  0.51860  0.57120  Biso   1.000  H
  H112     1.0000 0.64390  0.98140  0.07120  Biso   1.000  H
  C113     1.0000 0.71370  0.52080  0.11370  Biso   1.000  C
  C114     1.0000 0.21370  0.02080  0.11370  Biso   1.000  C
  C115     1.0000 0.28630  0.97920  0.61370  Biso   1.000  C
  C116     1.0000 0.28630  0.02080  0.38630  Biso   1.000  C
  C117     1.0000 0.71370  0.47920  0.88630  Biso   1.000  C
  C118     1.0000 0.78630  0.47920  0.61370  Biso   1.000  C
  C119     1.0000 0.78630  0.52080  0.38630  Biso   1.000  C
  C120     1.0000 0.21370  0.97920  0.88630  Biso   1.000  C
  C121     1.0000 0.28630  0.47920  0.88630  Biso   1.000  C
  C122     1.0000 0.78630  0.97920  0.88630  Biso   1.000  C
  C123     1.0000 0.71370  0.02080  0.38630  Biso   1.000  C
  C124     1.0000 0.71370  0.97920  0.61370  Biso   1.000  C
  C125     1.0000 0.28630  0.52080  0.11370  Biso   1.000  C
  C126     1.0000 0.21370  0.52080  0.38630  Biso   1.000  C
  C127     1.0000 0.21370  0.47920  0.61370  Biso   1.000  C
  C128     1.0000 0.78630  0.02080  0.11370  Biso   1.000  C
  H113     1.0000 0.75620  0.55160  0.12960  Biso   1.000  H
  H114     1.0000 0.25620  0.05160  0.12960  Biso   1.000  H
  H115     1.0000 0.24380  0.94840  0.62960  Biso   1.000  H
  H116     1.0000 0.24380  0.05160  0.37040  Biso   1.000  H
  H117     1.0000 0.75620  0.44840  0.87040  Biso   1.000  H
  H118     1.0000 0.74380  0.44840  0.62960  Biso   1.000  H
  H119     1.0000 0.74380  0.55160  0.37040  Biso   1.000  H
  H120     1.0000 0.25620  0.94840  0.87040  Biso   1.000  H
  H121     1.0000 0.24380  0.44840  0.87040  Biso   1.000  H
  H122     1.0000 0.74380  0.94840  0.87040  Biso   1.000  H
  H123     1.0000 0.75620  0.05160  0.37040  Biso   1.000  H
  H124     1.0000 0.75620  0.94840  0.62960  Biso   1.000  H
  H125     1.0000 0.24380  0.55160  0.12960  Biso   1.000  H
  H126     1.0000 0.25620  0.55160  0.37040  Biso   1.000  H
  H127     1.0000 0.25620  0.44840  0.62960  Biso   1.000  H
  H128     1.0000 0.74380  0.05160  0.12960  Biso   1.000  H
  C129     1.0000 0.59060  0.51930  0.12590  Biso   1.000  C
  C130     1.0000 0.09060  0.01930  0.12590  Biso   1.000  C
  C131     1.0000 0.40940  0.98070  0.62590  Biso   1.000  C
  C132     1.0000 0.40940  0.01930  0.37410  Biso   1.000  C
  C133     1.0000 0.59060  0.48070  0.87410  Biso   1.000  C
  C134     1.0000 0.90940  0.48070  0.62590  Biso   1.000  C
  C135     1.0000 0.90940  0.51930  0.37410  Biso   1.000  C
  C136     1.0000 0.09060  0.98070  0.87410  Biso   1.000  C
  C137     1.0000 0.40940  0.48070  0.87410  Biso   1.000  C
  C138     1.0000 0.90940  0.98070  0.87410  Biso   1.000  C
  C139     1.0000 0.59060  0.01930  0.37410  Biso   1.000  C
  C140     1.0000 0.59060  0.98070  0.62590  Biso   1.000  C
  C141     1.0000 0.40940  0.51930  0.12590  Biso   1.000  C
  C142     1.0000 0.09060  0.51930  0.37410  Biso   1.000  C
  C143     1.0000 0.09060  0.48070  0.62590  Biso   1.000  C
  C144     1.0000 0.90940  0.01930  0.12590  Biso   1.000  C
  C145     1.0000 0.53500  0.47118  0.10090  Biso   1.000  C
  C146     1.0000 0.03500  0.97118  0.10090  Biso   1.000  C
  C147     1.0000 0.46500  0.02882  0.60090  Biso   1.000  C
  C148     1.0000 0.46500  0.97118  0.39910  Biso   1.000  C
  C149     1.0000 0.53500  0.52882  0.89910  Biso   1.000  C
  C150     1.0000 0.96500  0.52882  0.60090  Biso   1.000  C
  C151     1.0000 0.96500  0.47118  0.39910  Biso   1.000  C
  C152     1.0000 0.03500  0.02882  0.89910  Biso   1.000  C
  C153     1.0000 0.46500  0.52882  0.89910  Biso   1.000  C
  C154     1.0000 0.96500  0.02882  0.89910  Biso   1.000  C
  C155     1.0000 0.53500  0.97118  0.39910  Biso   1.000  C
  C156     1.0000 0.53500  0.02882  0.60090  Biso   1.000  C
  C157     1.0000 0.46500  0.47118  0.10090  Biso   1.000  C
  C158     1.0000 0.03500  0.47118  0.39910  Biso   1.000  C
  C159     1.0000 0.03500  0.52882  0.60090  Biso   1.000  C
  C160     1.0000 0.96500  0.97118  0.10090  Biso   1.000  C
  C161     1.0000 0.50000  0.56137  0.16160  Biso   1.000  C
  C162     1.0000 0.00000  0.06137  0.16160  Biso   1.000  C
  C163     1.0000 0.50000  0.93863  0.66160  Biso   1.000  C
  C164     1.0000 0.50000  0.06137  0.33840  Biso   1.000  C
  C165     1.0000 0.50000  0.43863  0.83840  Biso   1.000  C
  C166     1.0000 0.00000  0.43863  0.66160  Biso   1.000  C
  C167     1.0000 0.00000  0.56137  0.33840  Biso   1.000  C
  C168     1.0000 0.00000  0.93863  0.83840  Biso   1.000  C
  C169     1.0000 0.75440  0.41330  0.08750  Biso   1.000  C
  C170     1.0000 0.25440  0.91330  0.08750  Biso   1.000  C
  C171     1.0000 0.24560  0.08670  0.58750  Biso   1.000  C
  C172     1.0000 0.24560  0.91330  0.41250  Biso   1.000  C
  C173     1.0000 0.75440  0.58670  0.91250  Biso   1.000  C
  C174     1.0000 0.74560  0.58670  0.58750  Biso   1.000  C
  C175     1.0000 0.74560  0.41330  0.41250  Biso   1.000  C
  C176     1.0000 0.25440  0.08670  0.91250  Biso   1.000  C
  C177     1.0000 0.24560  0.58670  0.91250  Biso   1.000  C
  C178     1.0000 0.74560  0.08670  0.91250  Biso   1.000  C
  C179     1.0000 0.75440  0.91330  0.41250  Biso   1.000  C
  C180     1.0000 0.75440  0.08670  0.58750  Biso   1.000  C
  C181     1.0000 0.24560  0.41330  0.08750  Biso   1.000  C
  C182     1.0000 0.25440  0.41330  0.41250  Biso   1.000  C
  C183     1.0000 0.25440  0.58670  0.58750  Biso   1.000  C
  C184     1.0000 0.74560  0.91330  0.08750  Biso   1.000  C
  H129     1.0000 0.78760  0.38100  0.06770  Biso   1.000  H
  H130     1.0000 0.28760  0.88100  0.06770  Biso   1.000  H
  H131     1.0000 0.21240  0.11900  0.56770  Biso   1.000  H
  H132     1.0000 0.21240  0.88100  0.43230  Biso   1.000  H
  H133     1.0000 0.78760  0.61900  0.93230  Biso   1.000  H
  H134     1.0000 0.71240  0.61900  0.56770  Biso   1.000  H
  H135     1.0000 0.71240  0.38100  0.43230  Biso   1.000  H
  H136     1.0000 0.28760  0.11900  0.93230  Biso   1.000  H
  H137     1.0000 0.21240  0.61900  0.93230  Biso   1.000  H
  H138     1.0000 0.71240  0.11900  0.93230  Biso   1.000  H
  H139     1.0000 0.78760  0.88100  0.43230  Biso   1.000  H
  H140     1.0000 0.78760  0.11900  0.56770  Biso   1.000  H
  H141     1.0000 0.21240  0.38100  0.06770  Biso   1.000  H
  H142     1.0000 0.28760  0.38100  0.43230  Biso   1.000  H
  H143     1.0000 0.28760  0.61900  0.56770  Biso   1.000  H
  H144     1.0000 0.71240  0.88100  0.06770  Biso   1.000  H
  C185     1.0000 0.82930  0.45310  0.12130  Biso   1.000  C
  C186     1.0000 0.32930  0.95310  0.12130  Biso   1.000  C
  C187     1.0000 0.17070  0.04690  0.62130  Biso   1.000  C
  C188     1.0000 0.17070  0.95310  0.37870  Biso   1.000  C
  C189     1.0000 0.82930  0.54690  0.87870  Biso   1.000  C
  C190     1.0000 0.67070  0.54690  0.62130  Biso   1.000  C
  C191     1.0000 0.67070  0.45310  0.37870  Biso   1.000  C
  C192     1.0000 0.32930  0.04690  0.87870  Biso   1.000  C
  C193     1.0000 0.17070  0.54690  0.87870  Biso   1.000  C
  C194     1.0000 0.67070  0.04690  0.87870  Biso   1.000  C
  C195     1.0000 0.82930  0.95310  0.37870  Biso   1.000  C
  C196     1.0000 0.82930  0.04690  0.62130  Biso   1.000  C
  C197     1.0000 0.17070  0.45310  0.12130  Biso   1.000  C
  C198     1.0000 0.32930  0.45310  0.37870  Biso   1.000  C
  C199     1.0000 0.32930  0.54690  0.62130  Biso   1.000  C
  C200     1.0000 0.67070  0.95310  0.12130  Biso   1.000  C
  H145     1.0000 0.91230  0.44740  0.12370  Biso   1.000  H
  H146     1.0000 0.41230  0.94740  0.12370  Biso   1.000  H
  H147     1.0000 0.08770  0.05260  0.62370  Biso   1.000  H
  H148     1.0000 0.08770  0.94740  0.37630  Biso   1.000  H
  H149     1.0000 0.91230  0.55260  0.87630  Biso   1.000  H
  H150     1.0000 0.58770  0.55260  0.62370  Biso   1.000  H
  H151     1.0000 0.58770  0.44740  0.37630  Biso   1.000  H
  H152     1.0000 0.41230  0.05260  0.87630  Biso   1.000  H
  H153     1.0000 0.08770  0.55260  0.87630  Biso   1.000  H
  H154     1.0000 0.58770  0.05260  0.87630  Biso   1.000  H
  H155     1.0000 0.91230  0.94740  0.37630  Biso   1.000  H
  H156     1.0000 0.91230  0.05260  0.62370  Biso   1.000  H
  H157     1.0000 0.08770  0.44740  0.12370  Biso   1.000  H
  H158     1.0000 0.41230  0.44740  0.37630  Biso   1.000  H
  H159     1.0000 0.41230  0.55260  0.62370  Biso   1.000  H
  H160     1.0000 0.58770  0.94740  0.12370  Biso   1.000  H
  C201     1.0000 0.78370  0.49900  0.15010  Biso   1.000  C
  C202     1.0000 0.28370  0.99900  0.15010  Biso   1.000  C
  C203     1.0000 0.21630  0.00100  0.65010  Biso   1.000  C
  C204     1.0000 0.21630  0.99900  0.34990  Biso   1.000  C
  C205     1.0000 0.78370  0.50100  0.84990  Biso   1.000  C
  C206     1.0000 0.71630  0.50100  0.65010  Biso   1.000  C
  C207     1.0000 0.71630  0.49900  0.34990  Biso   1.000  C
  C208     1.0000 0.28370  0.00100  0.84990  Biso   1.000  C
  C209     1.0000 0.21630  0.50100  0.84990  Biso   1.000  C
  C210     1.0000 0.71630  0.00100  0.84990  Biso   1.000  C
  C211     1.0000 0.78370  0.99900  0.34990  Biso   1.000  C
  C212     1.0000 0.78370  0.00100  0.65010  Biso   1.000  C
  C213     1.0000 0.21630  0.49900  0.15010  Biso   1.000  C
  C214     1.0000 0.28370  0.49900  0.34990  Biso   1.000  C
  C215     1.0000 0.28370  0.50100  0.65010  Biso   1.000  C
  C216     1.0000 0.71630  0.99900  0.15010  Biso   1.000  C
  H161     1.0000 0.83420  0.52520  0.17420  Biso   1.000  H
  H162     1.0000 0.33420  0.02520  0.17420  Biso   1.000  H
  H163     1.0000 0.16580  0.97480  0.67420  Biso   1.000  H
  H164     1.0000 0.16580  0.02520  0.32580  Biso   1.000  H
  H165     1.0000 0.83420  0.47480  0.82580  Biso   1.000  H
  H166     1.0000 0.66580  0.47480  0.67420  Biso   1.000  H
  H167     1.0000 0.66580  0.52520  0.32580  Biso   1.000  H
  H168     1.0000 0.33420  0.97480  0.82580  Biso   1.000  H
  H169     1.0000 0.16580  0.47480  0.82580  Biso   1.000  H
  H170     1.0000 0.66580  0.97480  0.82580  Biso   1.000  H
  H171     1.0000 0.83420  0.02520  0.32580  Biso   1.000  H
  H172     1.0000 0.83420  0.97480  0.67420  Biso   1.000  H
  H173     1.0000 0.16580  0.52520  0.17420  Biso   1.000  H
  H174     1.0000 0.33420  0.52520  0.32580  Biso   1.000  H
  H175     1.0000 0.33420  0.47480  0.67420  Biso   1.000  H
  H176     1.0000 0.66580  0.02520  0.17420  Biso   1.000  H
  C217     1.0000 0.65980  0.50830  0.14430  Biso   1.000  C
  C218     1.0000 0.15980  0.00830  0.14430  Biso   1.000  C
  C219     1.0000 0.34020  0.99170  0.64430  Biso   1.000  C
  C220     1.0000 0.34020  0.00830  0.35570  Biso   1.000  C
  C221     1.0000 0.65980  0.49170  0.85570  Biso   1.000  C
  C222     1.0000 0.84020  0.49170  0.64430  Biso   1.000  C
  C223     1.0000 0.84020  0.50830  0.35570  Biso   1.000  C
  C224     1.0000 0.15980  0.99170  0.85570  Biso   1.000  C
  C225     1.0000 0.34020  0.49170  0.85570  Biso   1.000  C
  C226     1.0000 0.84020  0.99170  0.85570  Biso   1.000  C
  C227     1.0000 0.65980  0.00830  0.35570  Biso   1.000  C
  C228     1.0000 0.65980  0.99170  0.64430  Biso   1.000  C
  C229     1.0000 0.34020  0.50830  0.14430  Biso   1.000  C
  C230     1.0000 0.15980  0.50830  0.35570  Biso   1.000  C
  C231     1.0000 0.15980  0.49170  0.64430  Biso   1.000  C
  C232     1.0000 0.84020  0.00830  0.14430  Biso   1.000  C
  C233     1.0000 0.59200  0.46650  0.11110  Biso   1.000  C
  C234     1.0000 0.09200  0.96650  0.11110  Biso   1.000  C
  C235     1.0000 0.40800  0.03350  0.61110  Biso   1.000  C
  C236     1.0000 0.40800  0.96650  0.38890  Biso   1.000  C
  C237     1.0000 0.59200  0.53350  0.88890  Biso   1.000  C
  C238     1.0000 0.90800  0.53350  0.61110  Biso   1.000  C
  C239     1.0000 0.90800  0.46650  0.38890  Biso   1.000  C
  C240     1.0000 0.09200  0.03350  0.88890  Biso   1.000  C
  C241     1.0000 0.40800  0.53350  0.88890  Biso   1.000  C
  C242     1.0000 0.90800  0.03350  0.88890  Biso   1.000  C
  C243     1.0000 0.59200  0.96650  0.38890  Biso   1.000  C
  C244     1.0000 0.59200  0.03350  0.61110  Biso   1.000  C
  C245     1.0000 0.40800  0.46650  0.11110  Biso   1.000  C
  C246     1.0000 0.09200  0.46650  0.38890  Biso   1.000  C
  C247     1.0000 0.09200  0.53350  0.61110  Biso   1.000  C
  C248     1.0000 0.90800  0.96650  0.11110  Biso   1.000  C
  C249     1.0000 0.59930  0.55580  0.16920  Biso   1.000  C
  C250     1.0000 0.09930  0.05580  0.16920  Biso   1.000  C
  C251     1.0000 0.40070  0.94420  0.66920  Biso   1.000  C
  C252     1.0000 0.40070  0.05580  0.33080  Biso   1.000  C
  C253     1.0000 0.59930  0.44420  0.83080  Biso   1.000  C
  C254     1.0000 0.90070  0.44420  0.66920  Biso   1.000  C
  C255     1.0000 0.90070  0.55580  0.33080  Biso   1.000  C
  C256     1.0000 0.09930  0.94420  0.83080  Biso   1.000  C
  C257     1.0000 0.40070  0.44420  0.83080  Biso   1.000  C
  C258     1.0000 0.90070  0.94420  0.83080  Biso   1.000  C
  C259     1.0000 0.59930  0.05580  0.33080  Biso   1.000  C
  C260     1.0000 0.59930  0.94420  0.66920  Biso   1.000  C
  C261     1.0000 0.40070  0.55580  0.16920  Biso   1.000  C
  C262     1.0000 0.09930  0.55580  0.33080  Biso   1.000  C
  C263     1.0000 0.09930  0.44420  0.66920  Biso   1.000  C
  C264     1.0000 0.90070  0.05580  0.16920  Biso   1.000  C
