data_image0
_cell_length_a       15.817
_cell_length_b       7.2249
_cell_length_c       17.509
_cell_angle_alpha    90
_cell_angle_beta     108.29
_cell_angle_gamma    90

_symmetry_space_group_name_H-M    "P 1"
_symmetry_int_tables_number       1

loop_
  _symmetry_equiv_pos_as_xyz
  'x, y, z'

loop_
  _atom_site_label
  _atom_site_occupancy
  _atom_site_fract_x
  _atom_site_fract_y
  _atom_site_fract_z
  _atom_site_thermal_displace_type
  _atom_site_B_iso_or_equiv
  _atom_site_type_symbol
  C1       1.0000 0.14471  0.71990  0.55401  Biso   1.000  C
  C2       1.0000 0.64471  0.21990  0.55401  Biso   1.000  C
  C3       1.0000 0.85529  0.71990  0.94599  Biso   1.000  C
  C4       1.0000 0.35529  0.21990  0.94599  Biso   1.000  C
  C5       1.0000 0.85529  0.28010  0.44599  Biso   1.000  C
  C6       1.0000 0.35529  0.78010  0.44599  Biso   1.000  C
  C7       1.0000 0.14471  0.28010  0.05401  Biso   1.000  C
  C8       1.0000 0.64471  0.78010  0.05401  Biso   1.000  C
  H1       1.0000 0.10610  0.62210  0.53320  Biso   1.000  H
  H2       1.0000 0.60610  0.12210  0.53320  Biso   1.000  H
  H3       1.0000 0.89390  0.62210  0.96680  Biso   1.000  H
  H4       1.0000 0.39390  0.12210  0.96680  Biso   1.000  H
  H5       1.0000 0.89390  0.37790  0.46680  Biso   1.000  H
  H6       1.0000 0.39390  0.87790  0.46680  Biso   1.000  H
  H7       1.0000 0.10610  0.37790  0.03320  Biso   1.000  H
  H8       1.0000 0.60610  0.87790  0.03320  Biso   1.000  H
  C9       1.0000 0.28020  0.52590  0.61420  Biso   1.000  C
  C10      1.0000 0.78020  0.02590  0.61420  Biso   1.000  C
  C11      1.0000 0.71980  0.52590  0.88580  Biso   1.000  C
  C12      1.0000 0.21980  0.02590  0.88580  Biso   1.000  C
  C13      1.0000 0.71980  0.47410  0.38580  Biso   1.000  C
  C14      1.0000 0.21980  0.97410  0.38580  Biso   1.000  C
  C15      1.0000 0.28020  0.47410  0.11420  Biso   1.000  C
  C16      1.0000 0.78020  0.97410  0.11420  Biso   1.000  C
  H9       1.0000 0.34020  0.54100  0.61180  Biso   1.000  H
  H10      1.0000 0.84020  0.04100  0.61180  Biso   1.000  H
  H11      1.0000 0.65980  0.54100  0.88820  Biso   1.000  H
  H12      1.0000 0.15980  0.04100  0.88820  Biso   1.000  H
  H13      1.0000 0.65980  0.45900  0.38820  Biso   1.000  H
  H14      1.0000 0.15980  0.95900  0.38820  Biso   1.000  H
  H15      1.0000 0.34020  0.45900  0.11180  Biso   1.000  H
  H16      1.0000 0.84020  0.95900  0.11180  Biso   1.000  H
  H17      1.0000 0.25080  0.43200  0.57530  Biso   1.000  H
  H18      1.0000 0.75080  0.93200  0.57530  Biso   1.000  H
  H19      1.0000 0.74920  0.43200  0.92470  Biso   1.000  H
  H20      1.0000 0.24920  0.93200  0.92470  Biso   1.000  H
  H21      1.0000 0.74920  0.56800  0.42470  Biso   1.000  H
  H22      1.0000 0.24920  0.06800  0.42470  Biso   1.000  H
  H23      1.0000 0.25080  0.56800  0.07530  Biso   1.000  H
  H24      1.0000 0.75080  0.06800  0.07530  Biso   1.000  H
  C17      1.0000 0.26507  0.87420  0.61419  Biso   1.000  C
  C18      1.0000 0.76507  0.37420  0.61419  Biso   1.000  C
  C19      1.0000 0.73493  0.87420  0.88581  Biso   1.000  C
  C20      1.0000 0.23493  0.37420  0.88581  Biso   1.000  C
  C21      1.0000 0.73493  0.12580  0.38581  Biso   1.000  C
  C22      1.0000 0.23493  0.62580  0.38581  Biso   1.000  C
  C23      1.0000 0.26507  0.12580  0.11419  Biso   1.000  C
  C24      1.0000 0.76507  0.62580  0.11419  Biso   1.000  C
  H25      1.0000 0.32380  0.90460  0.64200  Biso   1.000  H
  H26      1.0000 0.82380  0.40460  0.64200  Biso   1.000  H
  H27      1.0000 0.67620  0.90460  0.85800  Biso   1.000  H
  H28      1.0000 0.17620  0.40460  0.85800  Biso   1.000  H
  H29      1.0000 0.67620  0.09540  0.35800  Biso   1.000  H
  H30      1.0000 0.17620  0.59540  0.35800  Biso   1.000  H
  H31      1.0000 0.32380  0.09540  0.14200  Biso   1.000  H
  H32      1.0000 0.82380  0.59540  0.14200  Biso   1.000  H
  C25      1.0000 0.19657  0.99300  0.58733  Biso   1.000  C
  C26      1.0000 0.69657  0.49300  0.58733  Biso   1.000  C
  C27      1.0000 0.80343  0.99300  0.91267  Biso   1.000  C
  C28      1.0000 0.30343  0.49300  0.91267  Biso   1.000  C
  C29      1.0000 0.80343  0.00700  0.41267  Biso   1.000  C
  C30      1.0000 0.30343  0.50700  0.41267  Biso   1.000  C
  C31      1.0000 0.19657  0.00700  0.08733  Biso   1.000  C
  C32      1.0000 0.69657  0.50700  0.08733  Biso   1.000  C
  H33      1.0000 0.20000  0.12080  0.59370  Biso   1.000  H
  H34      1.0000 0.70000  0.62080  0.59370  Biso   1.000  H
  H35      1.0000 0.80000  0.12080  0.90630  Biso   1.000  H
  H36      1.0000 0.30000  0.62080  0.90630  Biso   1.000  H
  H37      1.0000 0.80000  0.87920  0.40630  Biso   1.000  H
  H38      1.0000 0.30000  0.37920  0.40630  Biso   1.000  H
  H39      1.0000 0.20000  0.87920  0.09370  Biso   1.000  H
  H40      1.0000 0.70000  0.37920  0.09370  Biso   1.000  H
  C33      1.0000 0.02334  0.24950  0.61465  Biso   1.000  C
  C34      1.0000 0.52334  0.74950  0.61465  Biso   1.000  C
  C35      1.0000 0.97666  0.24950  0.88535  Biso   1.000  C
  C36      1.0000 0.47666  0.74950  0.88535  Biso   1.000  C
  C37      1.0000 0.97666  0.75050  0.38535  Biso   1.000  C
  C38      1.0000 0.47666  0.25050  0.38535  Biso   1.000  C
  C39      1.0000 0.02334  0.75050  0.11465  Biso   1.000  C
  C40      1.0000 0.52334  0.25050  0.11465  Biso   1.000  C
  C41      1.0000 0.01289  0.35400  0.68534  Biso   1.000  C
  C42      1.0000 0.51289  0.85400  0.68534  Biso   1.000  C
  C43      1.0000 0.98711  0.35400  0.81466  Biso   1.000  C
  C44      1.0000 0.48711  0.85400  0.81466  Biso   1.000  C
  C45      1.0000 0.98711  0.64600  0.31466  Biso   1.000  C
  C46      1.0000 0.48711  0.14600  0.31466  Biso   1.000  C
  C47      1.0000 0.01289  0.64600  0.18534  Biso   1.000  C
  C48      1.0000 0.51289  0.14600  0.18534  Biso   1.000  C
  C49      1.0000 1.00000  0.25860  0.75000  Biso   1.000  C
  C50      1.0000 0.50000  0.75860  0.75000  Biso   1.000  C
  C51      1.0000 0.00000  0.74140  0.25000  Biso   1.000  C
  C52      1.0000 0.50000  0.24140  0.25000  Biso   1.000  C
  H41      1.0000 1.00000  0.12990  0.75000  Biso   1.000  H
  H42      1.0000 0.50000  0.62990  0.75000  Biso   1.000  H
  H43      1.0000 0.00000  0.87010  0.25000  Biso   1.000  H
  H44      1.0000 0.50000  0.37010  0.25000  Biso   1.000  H
  C53      1.0000 0.01330  0.54600  0.68607  Biso   1.000  C
  C54      1.0000 0.51330  0.04600  0.68607  Biso   1.000  C
  C55      1.0000 0.98670  0.54600  0.81393  Biso   1.000  C
  C56      1.0000 0.48670  0.04600  0.81393  Biso   1.000  C
  C57      1.0000 0.98670  0.45400  0.31393  Biso   1.000  C
  C58      1.0000 0.48670  0.95400  0.31393  Biso   1.000  C
  C59      1.0000 0.01330  0.45400  0.18607  Biso   1.000  C
  C60      1.0000 0.51330  0.95400  0.18607  Biso   1.000  C
  H45      1.0000 0.02250  0.61090  0.64350  Biso   1.000  H
  H46      1.0000 0.52250  0.11090  0.64350  Biso   1.000  H
  H47      1.0000 0.97750  0.61090  0.85650  Biso   1.000  H
  H48      1.0000 0.47750  0.11090  0.85650  Biso   1.000  H
  H49      1.0000 0.97750  0.38910  0.35650  Biso   1.000  H
  H50      1.0000 0.47750  0.88910  0.35650  Biso   1.000  H
  H51      1.0000 0.02250  0.38910  0.14350  Biso   1.000  H
  H52      1.0000 0.52250  0.88910  0.14350  Biso   1.000  H
  C61      1.0000 1.00000  0.64120  0.75000  Biso   1.000  C
  C62      1.0000 0.50000  0.14120  0.75000  Biso   1.000  C
  C63      1.0000 0.00000  0.35880  0.25000  Biso   1.000  C
  C64      1.0000 0.50000  0.85880  0.25000  Biso   1.000  C
  H53      1.0000 1.00000  0.76990  0.75000  Biso   1.000  H
  H54      1.0000 0.50000  0.26990  0.75000  Biso   1.000  H
  H55      1.0000 0.00000  0.23010  0.25000  Biso   1.000  H
  H56      1.0000 0.50000  0.73010  0.25000  Biso   1.000  H
  C65      1.0000 0.28420  0.46210  0.69750  Biso   1.000  C
  C66      1.0000 0.78420  0.96210  0.69750  Biso   1.000  C
  C67      1.0000 0.71580  0.46210  0.80250  Biso   1.000  C
  C68      1.0000 0.21580  0.96210  0.80250  Biso   1.000  C
  C69      1.0000 0.71580  0.53790  0.30250  Biso   1.000  C
  C70      1.0000 0.21580  0.03790  0.30250  Biso   1.000  C
  C71      1.0000 0.28420  0.53790  0.19750  Biso   1.000  C
  C72      1.0000 0.78420  0.03790  0.19750  Biso   1.000  C
  H57      1.0000 0.31600  0.34720  0.70950  Biso   1.000  H
  H58      1.0000 0.81600  0.84720  0.70950  Biso   1.000  H
  H59      1.0000 0.68400  0.34720  0.79050  Biso   1.000  H
  H60      1.0000 0.18400  0.84720  0.79050  Biso   1.000  H
  H61      1.0000 0.68400  0.65280  0.29050  Biso   1.000  H
  H62      1.0000 0.18400  0.15280  0.29050  Biso   1.000  H
  H63      1.0000 0.31600  0.65280  0.20950  Biso   1.000  H
  H64      1.0000 0.81600  0.15280  0.20950  Biso   1.000  H
  H65      1.0000 0.22480  0.44510  0.69980  Biso   1.000  H
  H66      1.0000 0.72480  0.94510  0.69980  Biso   1.000  H
  H67      1.0000 0.77520  0.44510  0.80020  Biso   1.000  H
  H68      1.0000 0.27520  0.94510  0.80020  Biso   1.000  H
  H69      1.0000 0.77520  0.55490  0.30020  Biso   1.000  H
  H70      1.0000 0.27520  0.05490  0.30020  Biso   1.000  H
  H71      1.0000 0.22480  0.55490  0.19980  Biso   1.000  H
  H72      1.0000 0.72480  0.05490  0.19980  Biso   1.000  H
  H73      1.0000 0.31420  0.55370  0.73630  Biso   1.000  H
  H74      1.0000 0.81420  0.05370  0.73630  Biso   1.000  H
  H75      1.0000 0.68580  0.55370  0.76370  Biso   1.000  H
  H76      1.0000 0.18580  0.05370  0.76370  Biso   1.000  H
  H77      1.0000 0.68580  0.44630  0.26370  Biso   1.000  H
  H78      1.0000 0.18580  0.94630  0.26370  Biso   1.000  H
  H79      1.0000 0.31420  0.44630  0.23630  Biso   1.000  H
  H80      1.0000 0.81420  0.94630  0.23630  Biso   1.000  H
  N1       1.0000 0.12108  0.89470  0.54914  Biso   1.000  N
  N2       1.0000 0.62108  0.39470  0.54914  Biso   1.000  N
  N3       1.0000 0.87892  0.89470  0.95086  Biso   1.000  N
  N4       1.0000 0.37892  0.39470  0.95086  Biso   1.000  N
  N5       1.0000 0.87892  0.10530  0.45086  Biso   1.000  N
  N6       1.0000 0.37892  0.60530  0.45086  Biso   1.000  N
  N7       1.0000 0.12108  0.10530  0.04914  Biso   1.000  N
  N8       1.0000 0.62108  0.60530  0.04914  Biso   1.000  N
  N9       1.0000 0.23206  0.70090  0.59294  Biso   1.000  N
  N10      1.0000 0.73206  0.20090  0.59294  Biso   1.000  N
  N11      1.0000 0.76794  0.70090  0.90706  Biso   1.000  N
  N12      1.0000 0.26794  0.20090  0.90706  Biso   1.000  N
  N13      1.0000 0.76794  0.29910  0.40706  Biso   1.000  N
  N14      1.0000 0.26794  0.79910  0.40706  Biso   1.000  N
  N15      1.0000 0.23206  0.29910  0.09294  Biso   1.000  N
  N16      1.0000 0.73206  0.79910  0.09294  Biso   1.000  N
  O1       1.0000 0.99755  0.08080  0.60769  Biso   1.000  O
  O2       1.0000 0.49755  0.58080  0.60769  Biso   1.000  O
  O3       1.0000 0.00245  0.08080  0.89231  Biso   1.000  O
  O4       1.0000 0.50245  0.58080  0.89231  Biso   1.000  O
  O5       1.0000 0.00245  0.91920  0.39231  Biso   1.000  O
  O6       1.0000 0.50245  0.41920  0.39231  Biso   1.000  O
  O7       1.0000 0.99755  0.91920  0.10769  Biso   1.000  O
  O8       1.0000 0.49755  0.41920  0.10769  Biso   1.000  O
  O9       1.0000 0.05357  0.32790  0.56545  Biso   1.000  O
  O10      1.0000 0.55357  0.82790  0.56545  Biso   1.000  O
  O11      1.0000 0.94643  0.32790  0.93455  Biso   1.000  O
  O12      1.0000 0.44643  0.82790  0.93455  Biso   1.000  O
  O13      1.0000 0.94643  0.67210  0.43455  Biso   1.000  O
  O14      1.0000 0.44643  0.17210  0.43455  Biso   1.000  O
  O15      1.0000 0.05357  0.67210  0.06545  Biso   1.000  O
  O16      1.0000 0.55357  0.17210  0.06545  Biso   1.000  O
  Cu1      1.0000 0.00000  0.00000  0.50000  Biso   1.000  Cu
  Cu2      1.0000 0.50000  0.50000  0.50000  Biso   1.000  Cu
  Cu3      1.0000 0.00000  0.00000  0.00000  Biso   1.000  Cu
  Cu4      1.0000 0.50000  0.50000  0.00000  Biso   1.000  Cu
