data_image0
_cell_length_a       8.065
_cell_length_b       10.293
_cell_length_c       10.837
_cell_angle_alpha    64.09
_cell_angle_beta     75.186
_cell_angle_gamma    71.141

_symmetry_space_group_name_H-M    "P 1"
_symmetry_int_tables_number       1

loop_
  _symmetry_equiv_pos_as_xyz
  'x, y, z'

loop_
  _atom_site_label
  _atom_site_occupancy
  _atom_site_fract_x
  _atom_site_fract_y
  _atom_site_fract_z
  _atom_site_thermal_displace_type
  _atom_site_B_iso_or_equiv
  _atom_site_type_symbol
  Mo1      1.0000 0.98397  0.33719  0.03177  Biso   1.000  Mo
  Mo2      1.0000 0.01603  0.66281  0.96823  Biso   1.000  Mo
  Mo3      1.0000 0.60552  0.61615  0.85402  Biso   1.000  Mo
  Mo4      1.0000 0.39448  0.38385  0.14598  Biso   1.000  Mo
  Mo5      1.0000 0.36521  0.35113  0.86306  Biso   1.000  Mo
  Mo6      1.0000 0.63479  0.64887  0.13694  Biso   1.000  Mo
  Cu1      1.0000 0.74909  0.03949  0.26078  Biso   1.000  Cu
  Cu2      1.0000 0.25091  0.96051  0.73922  Biso   1.000  Cu
  O1       1.0000 0.80720  0.38840  0.94360  Biso   1.000  O
  O2       1.0000 0.19280  0.61160  0.05640  Biso   1.000  O
  O3       1.0000 0.46040  0.46730  0.91550  Biso   1.000  O
  O4       1.0000 0.53960  0.53270  0.08450  Biso   1.000  O
  O5       1.0000 0.43040  0.77450  0.81270  Biso   1.000  O
  O6       1.0000 0.56960  0.22550  0.18730  Biso   1.000  O
  O7       1.0000 0.17040  0.26110  0.90630  Biso   1.000  O
  O8       1.0000 0.82960  0.73890  0.09370  Biso   1.000  O
  O9       1.0000 0.70530  0.60930  0.69770  Biso   1.000  O
  O10      1.0000 0.29470  0.39070  0.30230  Biso   1.000  O
  O11      1.0000 0.25070  0.31380  0.09310  Biso   1.000  O
  O12      1.0000 0.74930  0.68620  0.90690  Biso   1.000  O
  O13      1.0000 0.53410  0.19200  0.89730  Biso   1.000  O
  O14      1.0000 0.46590  0.80800  0.10270  Biso   1.000  O
  O15      1.0000 0.96640  0.16940  0.16930  Biso   1.000  O
  O16      1.0000 0.03360  0.83060  0.83070  Biso   1.000  O
  O17      1.0000 0.90350  0.47120  0.11970  Biso   1.000  O
  O18      1.0000 0.09650  0.52880  0.88030  Biso   1.000  O
  O19      1.0000 0.38700  0.43730  0.68770  Biso   1.000  O
  O20      1.0000 0.61300  0.56270  0.31230  Biso   1.000  O
  N1       1.0000 0.91660  0.84580  0.36010  Biso   1.000  N
  N2       1.0000 0.08340  0.15420  0.63990  Biso   1.000  N
  N3       1.0000 0.70070  0.05490  0.44190  Biso   1.000  N
  N4       1.0000 0.29930  0.94510  0.55810  Biso   1.000  N
  N5       1.0000 0.04220  0.70500  0.54990  Biso   1.000  N
  N6       1.0000 0.95780  0.29500  0.45010  Biso   1.000  N
  H1       1.0000 0.06740  0.67320  0.63230  Biso   1.000  H
  H2       1.0000 0.93260  0.32680  0.36770  Biso   1.000  H
  N7       1.0000 0.77030  0.96590  0.65200  Biso   1.000  N
  N8       1.0000 0.22970  0.03410  0.34800  Biso   1.000  N
  H3       1.0000 0.82090  0.90870  0.72490  Biso   1.000  H
  H4       1.0000 0.17910  0.09130  0.27510  Biso   1.000  H
  C1       1.0000 0.92130  0.82890  0.48880  Biso   1.000  C
  C2       1.0000 0.07870  0.17110  0.51120  Biso   1.000  C
  C3       1.0000 0.80250  0.94470  0.53410  Biso   1.000  C
  C4       1.0000 0.19750  0.05530  0.46590  Biso   1.000  C
  C5       1.0000 0.04070  0.72550  0.33940  Biso   1.000  C
  C6       1.0000 0.95930  0.27450  0.66060  Biso   1.000  C
  H5       1.0000 0.06700  0.70720  0.25890  Biso   1.000  H
  H6       1.0000 0.93300  0.29280  0.74110  Biso   1.000  H
  C7       1.0000 0.11830  0.63830  0.45660  Biso   1.000  C
  C8       1.0000 0.88170  0.36170  0.54340  Biso   1.000  C
  H7       1.0000 0.20610  0.55030  0.47070  Biso   1.000  H
  H8       1.0000 0.79390  0.44970  0.52930  Biso   1.000  H
  C9       1.0000 0.59960  0.15120  0.50580  Biso   1.000  C
  C10      1.0000 0.40040  0.84880  0.49420  Biso   1.000  C
  H9       1.0000 0.51690  0.23910  0.46610  Biso   1.000  H
  H10      1.0000 0.48310  0.76090  0.53390  Biso   1.000  H
  C11      1.0000 0.64120  0.09620  0.63570  Biso   1.000  C
  C12      1.0000 0.35880  0.90380  0.36430  Biso   1.000  C
  H11      1.0000 0.59200  0.13840  0.70130  Biso   1.000  H
  H12      1.0000 0.40800  0.86160  0.29870  Biso   1.000  H
  O21      1.0000 0.76980  0.00860  0.09230  Biso   1.000  O
  O22      1.0000 0.23020  0.99140  0.90770  Biso   1.000  O
  H13      1.0000 0.79500  0.92400  0.08800  Biso   1.000  H
  H14      1.0000 0.20500  0.07600  0.91200  Biso   1.000  H
  H15      1.0000 0.68900  0.06600  0.04200  Biso   1.000  H
  H16      1.0000 0.31100  0.93400  0.95800  Biso   1.000  H
