data_image0
_cell_length_a       21.866
_cell_length_b       7.699
_cell_length_c       15.519
_cell_angle_alpha    90
_cell_angle_beta     101.44
_cell_angle_gamma    90

_symmetry_space_group_name_H-M    "P 1"
_symmetry_int_tables_number       1

loop_
  _symmetry_equiv_pos_as_xyz
  'x, y, z'

loop_
  _atom_site_label
  _atom_site_occupancy
  _atom_site_fract_x
  _atom_site_fract_y
  _atom_site_fract_z
  _atom_site_thermal_displace_type
  _atom_site_B_iso_or_equiv
  _atom_site_type_symbol
  Cu1      1.0000 0.00000  0.00000  0.50000  Biso   1.000  Cu
  Cu2      1.0000 0.50000  0.50000  0.50000  Biso   1.000  Cu
  Cu3      1.0000 0.00000  0.00000  0.00000  Biso   1.000  Cu
  Cu4      1.0000 0.50000  0.50000  0.00000  Biso   1.000  Cu
  C1       1.0000 0.03679  0.31630  0.60670  Biso   1.000  C
  C2       1.0000 0.53679  0.81630  0.60670  Biso   1.000  C
  C3       1.0000 0.96321  0.31630  0.89330  Biso   1.000  C
  C4       1.0000 0.46321  0.81630  0.89330  Biso   1.000  C
  C5       1.0000 0.96321  0.68370  0.39330  Biso   1.000  C
  C6       1.0000 0.46321  0.18370  0.39330  Biso   1.000  C
  C7       1.0000 0.03679  0.68370  0.10670  Biso   1.000  C
  C8       1.0000 0.53679  0.18370  0.10670  Biso   1.000  C
  H1       1.0000 0.01430  0.28020  0.64840  Biso   1.000  H
  H2       1.0000 0.51430  0.78020  0.64840  Biso   1.000  H
  H3       1.0000 0.98570  0.28020  0.85160  Biso   1.000  H
  H4       1.0000 0.48570  0.78020  0.85160  Biso   1.000  H
  H5       1.0000 0.98570  0.71980  0.35160  Biso   1.000  H
  H6       1.0000 0.48570  0.21980  0.35160  Biso   1.000  H
  H7       1.0000 0.01430  0.71980  0.14840  Biso   1.000  H
  H8       1.0000 0.51430  0.21980  0.14840  Biso   1.000  H
  C9       1.0000 0.07700  0.32960  0.49270  Biso   1.000  C
  C10      1.0000 0.57700  0.82960  0.49270  Biso   1.000  C
  C11      1.0000 0.92300  0.32960  0.00730  Biso   1.000  C
  C12      1.0000 0.42300  0.82960  0.00730  Biso   1.000  C
  C13      1.0000 0.92300  0.67040  0.50730  Biso   1.000  C
  C14      1.0000 0.42300  0.17040  0.50730  Biso   1.000  C
  C15      1.0000 0.07700  0.67040  0.99270  Biso   1.000  C
  C16      1.0000 0.57700  0.17040  0.99270  Biso   1.000  C
  H9       1.0000 0.08780  0.30150  0.43930  Biso   1.000  H
  H10      1.0000 0.58780  0.80150  0.43930  Biso   1.000  H
  H11      1.0000 0.91220  0.30150  0.06070  Biso   1.000  H
  H12      1.0000 0.41220  0.80150  0.06070  Biso   1.000  H
  H13      1.0000 0.91220  0.69850  0.56070  Biso   1.000  H
  H14      1.0000 0.41220  0.19850  0.56070  Biso   1.000  H
  H15      1.0000 0.08780  0.69850  0.93930  Biso   1.000  H
  H16      1.0000 0.58780  0.19850  0.93930  Biso   1.000  H
  C17      1.0000 0.09620  0.47100  0.54020  Biso   1.000  C
  C18      1.0000 0.59620  0.97100  0.54020  Biso   1.000  C
  C19      1.0000 0.90380  0.47100  0.95980  Biso   1.000  C
  C20      1.0000 0.40380  0.97100  0.95980  Biso   1.000  C
  C21      1.0000 0.90380  0.52900  0.45980  Biso   1.000  C
  C22      1.0000 0.40380  0.02900  0.45980  Biso   1.000  C
  C23      1.0000 0.09620  0.52900  0.04020  Biso   1.000  C
  C24      1.0000 0.59620  0.02900  0.04020  Biso   1.000  C
  H17      1.0000 0.12170  0.55870  0.52610  Biso   1.000  H
  H18      1.0000 0.62170  0.05870  0.52610  Biso   1.000  H
  H19      1.0000 0.87830  0.55870  0.97390  Biso   1.000  H
  H20      1.0000 0.37830  0.05870  0.97390  Biso   1.000  H
  H21      1.0000 0.87830  0.44130  0.47390  Biso   1.000  H
  H22      1.0000 0.37830  0.94130  0.47390  Biso   1.000  H
  H23      1.0000 0.12170  0.44130  0.02610  Biso   1.000  H
  H24      1.0000 0.62170  0.94130  0.02610  Biso   1.000  H
  C25      1.0000 0.07390  0.63600  0.65820  Biso   1.000  C
  C26      1.0000 0.57390  0.13600  0.65820  Biso   1.000  C
  C27      1.0000 0.92610  0.63600  0.84180  Biso   1.000  C
  C28      1.0000 0.42610  0.13600  0.84180  Biso   1.000  C
  C29      1.0000 0.92610  0.36400  0.34180  Biso   1.000  C
  C30      1.0000 0.42610  0.86400  0.34180  Biso   1.000  C
  C31      1.0000 0.07390  0.36400  0.15820  Biso   1.000  C
  C32      1.0000 0.57390  0.86400  0.15820  Biso   1.000  C
  C33      1.0000 0.08840  0.54820  0.70850  Biso   1.000  C
  C34      1.0000 0.58840  0.04820  0.70850  Biso   1.000  C
  C35      1.0000 0.91160  0.54820  0.79150  Biso   1.000  C
  C36      1.0000 0.41160  0.04820  0.79150  Biso   1.000  C
  C37      1.0000 0.91160  0.45180  0.29150  Biso   1.000  C
  C38      1.0000 0.41160  0.95180  0.29150  Biso   1.000  C
  C39      1.0000 0.08840  0.45180  0.20850  Biso   1.000  C
  C40      1.0000 0.58840  0.95180  0.20850  Biso   1.000  C
  C41      1.0000 0.07540  0.57910  0.74870  Biso   1.000  C
  C42      1.0000 0.57540  0.07910  0.74870  Biso   1.000  C
  C43      1.0000 0.92460  0.57910  0.75130  Biso   1.000  C
  C44      1.0000 0.42460  0.07910  0.75130  Biso   1.000  C
  C45      1.0000 0.92460  0.42090  0.25130  Biso   1.000  C
  C46      1.0000 0.42460  0.92090  0.25130  Biso   1.000  C
  C47      1.0000 0.07540  0.42090  0.24870  Biso   1.000  C
  C48      1.0000 0.57540  0.92090  0.24870  Biso   1.000  C
  C49      1.0000 0.02960  0.65030  0.72510  Biso   1.000  C
  C50      1.0000 0.52960  0.15030  0.72510  Biso   1.000  C
  C51      1.0000 0.97040  0.65030  0.77490  Biso   1.000  C
  C52      1.0000 0.47040  0.15030  0.77490  Biso   1.000  C
  C53      1.0000 0.97040  0.34970  0.27490  Biso   1.000  C
  C54      1.0000 0.47040  0.84970  0.27490  Biso   1.000  C
  C55      1.0000 0.02960  0.34970  0.22510  Biso   1.000  C
  C56      1.0000 0.52960  0.84970  0.22510  Biso   1.000  C
  C57      1.0000 0.90369  0.07400  0.57100  Biso   1.000  C
  C58      1.0000 0.40369  0.57400  0.57100  Biso   1.000  C
  C59      1.0000 0.09631  0.07400  0.92900  Biso   1.000  C
  C60      1.0000 0.59631  0.57400  0.92900  Biso   1.000  C
  C61      1.0000 0.09631  0.92600  0.42900  Biso   1.000  C
  C62      1.0000 0.59631  0.42600  0.42900  Biso   1.000  C
  C63      1.0000 0.90369  0.92600  0.07100  Biso   1.000  C
  C64      1.0000 0.40369  0.42600  0.07100  Biso   1.000  C
  C65      1.0000 0.86079  0.09730  0.63396  Biso   1.000  C
  C66      1.0000 0.36079  0.59730  0.63396  Biso   1.000  C
  C67      1.0000 0.13921  0.09730  0.86604  Biso   1.000  C
  C68      1.0000 0.63921  0.59730  0.86604  Biso   1.000  C
  C69      1.0000 0.13921  0.90270  0.36604  Biso   1.000  C
  C70      1.0000 0.63921  0.40270  0.36604  Biso   1.000  C
  C71      1.0000 0.86079  0.90270  0.13396  Biso   1.000  C
  C72      1.0000 0.36079  0.40270  0.13396  Biso   1.000  C
  C73      1.0000 0.80095  0.15910  0.60290  Biso   1.000  C
  C74      1.0000 0.30095  0.65910  0.60290  Biso   1.000  C
  C75      1.0000 0.19905  0.15910  0.89710  Biso   1.000  C
  C76      1.0000 0.69905  0.65910  0.89710  Biso   1.000  C
  C77      1.0000 0.19905  0.84090  0.39710  Biso   1.000  C
  C78      1.0000 0.69905  0.34090  0.39710  Biso   1.000  C
  C79      1.0000 0.80095  0.84090  0.10290  Biso   1.000  C
  C80      1.0000 0.30095  0.34090  0.10290  Biso   1.000  C
  H25      1.0000 0.78820  0.18320  0.54330  Biso   1.000  H
  H26      1.0000 0.28820  0.68320  0.54330  Biso   1.000  H
  H27      1.0000 0.21180  0.18320  0.95670  Biso   1.000  H
  H28      1.0000 0.71180  0.68320  0.95670  Biso   1.000  H
  H29      1.0000 0.21180  0.81680  0.45670  Biso   1.000  H
  H30      1.0000 0.71180  0.31680  0.45670  Biso   1.000  H
  H31      1.0000 0.78820  0.81680  0.04330  Biso   1.000  H
  H32      1.0000 0.28820  0.31680  0.04330  Biso   1.000  H
  C81      1.0000 0.76002  0.18560  0.65890  Biso   1.000  C
  C82      1.0000 0.26002  0.68560  0.65890  Biso   1.000  C
  C83      1.0000 0.23998  0.18560  0.84110  Biso   1.000  C
  C84      1.0000 0.73998  0.68560  0.84110  Biso   1.000  C
  C85      1.0000 0.23998  0.81440  0.34110  Biso   1.000  C
  C86      1.0000 0.73998  0.31440  0.34110  Biso   1.000  C
  C87      1.0000 0.76002  0.81440  0.15890  Biso   1.000  C
  C88      1.0000 0.26002  0.31440  0.15890  Biso   1.000  C
  H33      1.0000 0.72020  0.22830  0.63700  Biso   1.000  H
  H34      1.0000 0.22020  0.72830  0.63700  Biso   1.000  H
  H35      1.0000 0.27980  0.22830  0.86300  Biso   1.000  H
  H36      1.0000 0.77980  0.72830  0.86300  Biso   1.000  H
  H37      1.0000 0.27980  0.77170  0.36300  Biso   1.000  H
  H38      1.0000 0.77980  0.27170  0.36300  Biso   1.000  H
  H39      1.0000 0.72020  0.77170  0.13700  Biso   1.000  H
  H40      1.0000 0.22020  0.27170  0.13700  Biso   1.000  H
  C89      1.0000 0.77827  0.14850  0.74780  Biso   1.000  C
  C90      1.0000 0.27827  0.64850  0.74780  Biso   1.000  C
  C91      1.0000 0.22173  0.14850  0.75220  Biso   1.000  C
  C92      1.0000 0.72173  0.64850  0.75220  Biso   1.000  C
  C93      1.0000 0.22173  0.85150  0.25220  Biso   1.000  C
  C94      1.0000 0.72173  0.35150  0.25220  Biso   1.000  C
  C95      1.0000 0.77827  0.85150  0.24780  Biso   1.000  C
  C96      1.0000 0.27827  0.35150  0.24780  Biso   1.000  C
  C97      1.0000 0.83789  0.08780  0.78070  Biso   1.000  C
  C98      1.0000 0.33789  0.58780  0.78070  Biso   1.000  C
  C99      1.0000 0.16211  0.08780  0.71930  Biso   1.000  C
  C100     1.0000 0.66211  0.58780  0.71930  Biso   1.000  C
  C101     1.0000 0.16211  0.91220  0.21930  Biso   1.000  C
  C102     1.0000 0.66211  0.41220  0.21930  Biso   1.000  C
  C103     1.0000 0.83789  0.91220  0.28070  Biso   1.000  C
  C104     1.0000 0.33789  0.41220  0.28070  Biso   1.000  C
  H41      1.0000 0.85060  0.06360  0.84030  Biso   1.000  H
  H42      1.0000 0.35060  0.56360  0.84030  Biso   1.000  H
  H43      1.0000 0.14940  0.06360  0.65970  Biso   1.000  H
  H44      1.0000 0.64940  0.56360  0.65970  Biso   1.000  H
  H45      1.0000 0.14940  0.93640  0.15970  Biso   1.000  H
  H46      1.0000 0.64940  0.43640  0.15970  Biso   1.000  H
  H47      1.0000 0.85060  0.93640  0.34030  Biso   1.000  H
  H48      1.0000 0.35060  0.43640  0.34030  Biso   1.000  H
  C105     1.0000 0.87874  0.06350  0.72300  Biso   1.000  C
  C106     1.0000 0.37874  0.56350  0.72300  Biso   1.000  C
  C107     1.0000 0.12126  0.06350  0.77700  Biso   1.000  C
  C108     1.0000 0.62126  0.56350  0.77700  Biso   1.000  C
  C109     1.0000 0.12126  0.93650  0.27700  Biso   1.000  C
  C110     1.0000 0.62126  0.43650  0.27700  Biso   1.000  C
  C111     1.0000 0.87874  0.93650  0.22300  Biso   1.000  C
  C112     1.0000 0.37874  0.43650  0.22300  Biso   1.000  C
  H49      1.0000 0.91900  0.02360  0.74490  Biso   1.000  H
  H50      1.0000 0.41900  0.52360  0.74490  Biso   1.000  H
  H51      1.0000 0.08100  0.02360  0.75510  Biso   1.000  H
  H52      1.0000 0.58100  0.52360  0.75510  Biso   1.000  H
  H53      1.0000 0.08100  0.97640  0.25510  Biso   1.000  H
  H54      1.0000 0.58100  0.47640  0.25510  Biso   1.000  H
  H55      1.0000 0.91900  0.97640  0.24490  Biso   1.000  H
  H56      1.0000 0.41900  0.47640  0.24490  Biso   1.000  H
  C113     1.0000 0.75100  0.16880  0.88920  Biso   1.000  C
  C114     1.0000 0.25100  0.66880  0.88920  Biso   1.000  C
  C115     1.0000 0.24900  0.16880  0.61080  Biso   1.000  C
  C116     1.0000 0.74900  0.66880  0.61080  Biso   1.000  C
  C117     1.0000 0.24900  0.83120  0.11080  Biso   1.000  C
  C118     1.0000 0.74900  0.33120  0.11080  Biso   1.000  C
  C119     1.0000 0.75100  0.83120  0.38920  Biso   1.000  C
  C120     1.0000 0.25100  0.33120  0.38920  Biso   1.000  C
  H57      1.0000 0.71490  0.18880  0.91440  Biso   1.000  H
  H58      1.0000 0.21490  0.68880  0.91440  Biso   1.000  H
  H59      1.0000 0.28510  0.18880  0.58560  Biso   1.000  H
  H60      1.0000 0.78510  0.68880  0.58560  Biso   1.000  H
  H61      1.0000 0.28510  0.81120  0.08560  Biso   1.000  H
  H62      1.0000 0.78510  0.31120  0.08560  Biso   1.000  H
  H63      1.0000 0.71490  0.81120  0.41440  Biso   1.000  H
  H64      1.0000 0.21490  0.31120  0.41440  Biso   1.000  H
  H65      1.0000 0.78160  0.25680  0.90910  Biso   1.000  H
  H66      1.0000 0.28160  0.75680  0.90910  Biso   1.000  H
  H67      1.0000 0.21840  0.25680  0.59090  Biso   1.000  H
  H68      1.0000 0.71840  0.75680  0.59090  Biso   1.000  H
  H69      1.0000 0.21840  0.74320  0.09090  Biso   1.000  H
  H70      1.0000 0.71840  0.24320  0.09090  Biso   1.000  H
  H71      1.0000 0.78160  0.74320  0.40910  Biso   1.000  H
  H72      1.0000 0.28160  0.24320  0.40910  Biso   1.000  H
  H73      1.0000 0.76820  0.05670  0.90710  Biso   1.000  H
  H74      1.0000 0.26820  0.55670  0.90710  Biso   1.000  H
  H75      1.0000 0.23180  0.05670  0.59290  Biso   1.000  H
  H76      1.0000 0.73180  0.55670  0.59290  Biso   1.000  H
  H77      1.0000 0.23180  0.94330  0.09290  Biso   1.000  H
  H78      1.0000 0.73180  0.44330  0.09290  Biso   1.000  H
  H79      1.0000 0.76820  0.94330  0.40710  Biso   1.000  H
  H80      1.0000 0.26820  0.44330  0.40710  Biso   1.000  H
  N1       1.0000 0.03890  0.23190  0.53434  Biso   1.000  N
  N2       1.0000 0.53890  0.73190  0.53434  Biso   1.000  N
  N3       1.0000 0.96110  0.23190  0.96566  Biso   1.000  N
  N4       1.0000 0.46110  0.73190  0.96566  Biso   1.000  N
  N5       1.0000 0.96110  0.76810  0.46566  Biso   1.000  N
  N6       1.0000 0.46110  0.26810  0.46566  Biso   1.000  N
  N7       1.0000 0.03890  0.76810  0.03434  Biso   1.000  N
  N8       1.0000 0.53890  0.26810  0.03434  Biso   1.000  N
  N9       1.0000 0.07111  0.46130  0.61320  Biso   1.000  N
  N10      1.0000 0.57111  0.96130  0.61320  Biso   1.000  N
  N11      1.0000 0.92889  0.46130  0.88680  Biso   1.000  N
  N12      1.0000 0.42889  0.96130  0.88680  Biso   1.000  N
  N13      1.0000 0.92889  0.53870  0.38680  Biso   1.000  N
  N14      1.0000 0.42889  0.03870  0.38680  Biso   1.000  N
  N15      1.0000 0.07111  0.53870  0.11320  Biso   1.000  N
  N16      1.0000 0.57111  0.03870  0.11320  Biso   1.000  N
  O1       1.0000 0.73375  0.17460  0.79675  Biso   1.000  O
  O2       1.0000 0.23375  0.67460  0.79675  Biso   1.000  O
  O3       1.0000 0.26625  0.17460  0.70325  Biso   1.000  O
  O4       1.0000 0.76625  0.67460  0.70325  Biso   1.000  O
  O5       1.0000 0.26625  0.82540  0.20325  Biso   1.000  O
  O6       1.0000 0.76625  0.32540  0.20325  Biso   1.000  O
  O7       1.0000 0.73375  0.82540  0.29675  Biso   1.000  O
  O8       1.0000 0.23375  0.32540  0.29675  Biso   1.000  O
  O9       1.0000 0.88617  0.11600  0.49215  Biso   1.000  O
  O10      1.0000 0.38617  0.61600  0.49215  Biso   1.000  O
  O11      1.0000 0.11383  0.11600  0.00785  Biso   1.000  O
  O12      1.0000 0.61383  0.61600  0.00785  Biso   1.000  O
  O13      1.0000 0.11383  0.88400  0.50785  Biso   1.000  O
  O14      1.0000 0.61383  0.38400  0.50785  Biso   1.000  O
  O15      1.0000 0.88617  0.88400  0.99215  Biso   1.000  O
  O16      1.0000 0.38617  0.38400  0.99215  Biso   1.000  O
  O17      1.0000 0.95746  0.00900  0.60132  Biso   1.000  O
  O18      1.0000 0.45746  0.50900  0.60132  Biso   1.000  O
  O19      1.0000 0.04254  0.00900  0.89868  Biso   1.000  O
  O20      1.0000 0.54254  0.50900  0.89868  Biso   1.000  O
  O21      1.0000 0.04254  0.99100  0.39868  Biso   1.000  O
  O22      1.0000 0.54254  0.49100  0.39868  Biso   1.000  O
  O23      1.0000 0.95746  0.99100  0.10132  Biso   1.000  O
  O24      1.0000 0.45746  0.49100  0.10132  Biso   1.000  O
  O25      1.0000 0.01580  0.51930  0.76190  Biso   1.000  O
  O26      1.0000 0.51580  0.01930  0.76190  Biso   1.000  O
  O27      1.0000 0.98420  0.51930  0.73810  Biso   1.000  O
  O28      1.0000 0.48420  0.01930  0.73810  Biso   1.000  O
  O29      1.0000 0.98420  0.48070  0.23810  Biso   1.000  O
  O30      1.0000 0.48420  0.98070  0.23810  Biso   1.000  O
  O31      1.0000 0.01580  0.48070  0.26190  Biso   1.000  O
  O32      1.0000 0.51580  0.98070  0.26190  Biso   1.000  O
