data_image0
_cell_length_a       8.61
_cell_length_b       9.871
_cell_length_c       18.892
_cell_angle_alpha    90
_cell_angle_beta     90
_cell_angle_gamma    90

_symmetry_space_group_name_H-M    "P 1"
_symmetry_int_tables_number       1

loop_
  _symmetry_equiv_pos_as_xyz
  'x, y, z'

loop_
  _atom_site_label
  _atom_site_occupancy
  _atom_site_fract_x
  _atom_site_fract_y
  _atom_site_fract_z
  _atom_site_thermal_displace_type
  _atom_site_B_iso_or_equiv
  _atom_site_type_symbol
  Cu1      1.0000 0.12936  0.14810  0.35146  Biso   1.000  Cu
  Cu2      1.0000 0.37064  0.85190  0.85146  Biso   1.000  Cu
  Cu3      1.0000 0.87064  0.64810  0.14854  Biso   1.000  Cu
  Cu4      1.0000 0.62936  0.35190  0.64854  Biso   1.000  Cu
  Cu5      1.0000 0.87064  0.85190  0.64854  Biso   1.000  Cu
  Cu6      1.0000 0.62936  0.14810  0.14854  Biso   1.000  Cu
  Cu7      1.0000 0.12936  0.35190  0.85146  Biso   1.000  Cu
  Cu8      1.0000 0.37064  0.64810  0.35146  Biso   1.000  Cu
  P1       1.0000 0.80368  0.01391  0.35635  Biso   1.000  P
  P2       1.0000 0.69632  0.98609  0.85635  Biso   1.000  P
  P3       1.0000 0.19632  0.51391  0.14365  Biso   1.000  P
  P4       1.0000 0.30368  0.48609  0.64365  Biso   1.000  P
  P5       1.0000 0.19632  0.98609  0.64365  Biso   1.000  P
  P6       1.0000 0.30368  0.01391  0.14365  Biso   1.000  P
  P7       1.0000 0.80368  0.48609  0.85635  Biso   1.000  P
  P8       1.0000 0.69632  0.51391  0.35635  Biso   1.000  P
  O1       1.0000 0.73970  0.87740  0.37296  Biso   1.000  O
  O2       1.0000 0.76030  0.12260  0.87296  Biso   1.000  O
  O3       1.0000 0.26030  0.37740  0.12704  Biso   1.000  O
  O4       1.0000 0.23970  0.62260  0.62704  Biso   1.000  O
  O5       1.0000 0.26030  0.12260  0.62704  Biso   1.000  O
  O6       1.0000 0.23970  0.87740  0.12704  Biso   1.000  O
  O7       1.0000 0.73970  0.62260  0.87296  Biso   1.000  O
  O8       1.0000 0.76030  0.37740  0.37296  Biso   1.000  O
  O9       1.0000 0.95380  0.05070  0.39423  Biso   1.000  O
  O10      1.0000 0.54620  0.94930  0.89423  Biso   1.000  O
  O11      1.0000 0.04620  0.55070  0.10577  Biso   1.000  O
  O12      1.0000 0.45380  0.44930  0.60577  Biso   1.000  O
  O13      1.0000 0.04620  0.94930  0.60577  Biso   1.000  O
  O14      1.0000 0.45380  0.05070  0.10577  Biso   1.000  O
  O15      1.0000 0.95380  0.44930  0.89423  Biso   1.000  O
  O16      1.0000 0.54620  0.55070  0.39423  Biso   1.000  O
  O17      1.0000 0.67320  0.11980  0.37279  Biso   1.000  O
  O18      1.0000 0.82680  0.88020  0.87279  Biso   1.000  O
  O19      1.0000 0.32680  0.61980  0.12721  Biso   1.000  O
  O20      1.0000 0.17320  0.38020  0.62721  Biso   1.000  O
  O21      1.0000 0.32680  0.88020  0.62721  Biso   1.000  O
  O22      1.0000 0.17320  0.11980  0.12721  Biso   1.000  O
  O23      1.0000 0.67320  0.38020  0.87279  Biso   1.000  O
  O24      1.0000 0.82680  0.61980  0.37279  Biso   1.000  O
  H1       1.0000 0.71000  0.19640  0.37170  Biso   1.000  H
  H2       1.0000 0.79000  0.80360  0.87170  Biso   1.000  H
  H3       1.0000 0.29000  0.69640  0.12830  Biso   1.000  H
  H4       1.0000 0.21000  0.30360  0.62830  Biso   1.000  H
  H5       1.0000 0.29000  0.80360  0.62830  Biso   1.000  H
  H6       1.0000 0.21000  0.19640  0.12830  Biso   1.000  H
  H7       1.0000 0.71000  0.30360  0.87170  Biso   1.000  H
  H8       1.0000 0.79000  0.69640  0.37170  Biso   1.000  H
  O25      1.0000 0.71120  0.98900  0.22203  Biso   1.000  O
  O26      1.0000 0.78880  0.01100  0.72203  Biso   1.000  O
  O27      1.0000 0.28880  0.48900  0.27797  Biso   1.000  O
  O28      1.0000 0.21120  0.51100  0.77797  Biso   1.000  O
  O29      1.0000 0.28880  0.01100  0.77797  Biso   1.000  O
  O30      1.0000 0.21120  0.98900  0.27797  Biso   1.000  O
  O31      1.0000 0.71120  0.51100  0.72203  Biso   1.000  O
  O32      1.0000 0.78880  0.48900  0.22203  Biso   1.000  O
  H9       1.0000 0.71110  0.90680  0.21560  Biso   1.000  H
  H10      1.0000 0.78890  0.09320  0.71560  Biso   1.000  H
  H11      1.0000 0.28890  0.40680  0.28440  Biso   1.000  H
  H12      1.0000 0.21110  0.59320  0.78440  Biso   1.000  H
  H13      1.0000 0.28890  0.09320  0.78440  Biso   1.000  H
  H14      1.0000 0.21110  0.90680  0.28440  Biso   1.000  H
  H15      1.0000 0.71110  0.59320  0.71560  Biso   1.000  H
  H16      1.0000 0.78890  0.40680  0.21560  Biso   1.000  H
  O33      1.0000 0.00100  0.22480  0.27486  Biso   1.000  O
  O34      1.0000 0.49900  0.77520  0.77486  Biso   1.000  O
  O35      1.0000 0.99900  0.72480  0.22514  Biso   1.000  O
  O36      1.0000 0.50100  0.27520  0.72514  Biso   1.000  O
  O37      1.0000 0.99900  0.77520  0.72514  Biso   1.000  O
  O38      1.0000 0.50100  0.22480  0.22514  Biso   1.000  O
  O39      1.0000 0.00100  0.27520  0.77486  Biso   1.000  O
  O40      1.0000 0.49900  0.72480  0.27486  Biso   1.000  O
  O41      1.0000 0.81400  0.23090  0.19528  Biso   1.000  O
  O42      1.0000 0.68600  0.76910  0.69528  Biso   1.000  O
  O43      1.0000 0.18600  0.73090  0.30472  Biso   1.000  O
  O44      1.0000 0.31400  0.26910  0.80472  Biso   1.000  O
  O45      1.0000 0.18600  0.76910  0.80472  Biso   1.000  O
  O46      1.0000 0.31400  0.23090  0.30472  Biso   1.000  O
  O47      1.0000 0.81400  0.26910  0.69528  Biso   1.000  O
  O48      1.0000 0.68600  0.73090  0.19528  Biso   1.000  O
  O49      1.0000 0.25790  0.09540  0.43328  Biso   1.000  O
  O50      1.0000 0.24210  0.90460  0.93328  Biso   1.000  O
  O51      1.0000 0.74210  0.59540  0.06672  Biso   1.000  O
  O52      1.0000 0.75790  0.40460  0.56672  Biso   1.000  O
  O53      1.0000 0.74210  0.90460  0.56672  Biso   1.000  O
  O54      1.0000 0.75790  0.09540  0.06672  Biso   1.000  O
  O55      1.0000 0.25790  0.40460  0.93328  Biso   1.000  O
  O56      1.0000 0.24210  0.59540  0.43328  Biso   1.000  O
  H17      1.0000 0.31200  0.02400  0.43000  Biso   1.000  H
  H18      1.0000 0.18800  0.97600  0.93000  Biso   1.000  H
  H19      1.0000 0.68800  0.52400  0.07000  Biso   1.000  H
  H20      1.0000 0.81200  0.47600  0.57000  Biso   1.000  H
  H21      1.0000 0.68800  0.97600  0.57000  Biso   1.000  H
  H22      1.0000 0.81200  0.02400  0.07000  Biso   1.000  H
  H23      1.0000 0.31200  0.47600  0.93000  Biso   1.000  H
  H24      1.0000 0.18800  0.52400  0.43000  Biso   1.000  H
  H25      1.0000 0.31700  0.16200  0.44200  Biso   1.000  H
  H26      1.0000 0.18300  0.83800  0.94200  Biso   1.000  H
  H27      1.0000 0.68300  0.66200  0.05800  Biso   1.000  H
  H28      1.0000 0.81700  0.33800  0.55800  Biso   1.000  H
  H29      1.0000 0.68300  0.83800  0.55800  Biso   1.000  H
  H30      1.0000 0.81700  0.16200  0.05800  Biso   1.000  H
  H31      1.0000 0.31700  0.33800  0.94200  Biso   1.000  H
  H32      1.0000 0.18300  0.66200  0.44200  Biso   1.000  H
  O57      1.0000 0.07080  0.35780  0.41515  Biso   1.000  O
  O58      1.0000 0.42920  0.64220  0.91515  Biso   1.000  O
  O59      1.0000 0.92920  0.85780  0.08485  Biso   1.000  O
  O60      1.0000 0.57080  0.14220  0.58485  Biso   1.000  O
  O61      1.0000 0.92920  0.64220  0.58485  Biso   1.000  O
  O62      1.0000 0.57080  0.35780  0.08485  Biso   1.000  O
  O63      1.0000 0.07080  0.14220  0.91515  Biso   1.000  O
  O64      1.0000 0.42920  0.85780  0.41515  Biso   1.000  O
  H33      1.0000 0.97900  0.37700  0.40200  Biso   1.000  H
  H34      1.0000 0.52100  0.62300  0.90200  Biso   1.000  H
  H35      1.0000 0.02100  0.87700  0.09800  Biso   1.000  H
  H36      1.0000 0.47900  0.12300  0.59800  Biso   1.000  H
  H37      1.0000 0.02100  0.62300  0.59800  Biso   1.000  H
  H38      1.0000 0.47900  0.37700  0.09800  Biso   1.000  H
  H39      1.0000 0.97900  0.12300  0.90200  Biso   1.000  H
  H40      1.0000 0.52100  0.87700  0.40200  Biso   1.000  H
  H41      1.0000 0.41600  0.35600  0.50730  Biso   1.000  H
  H42      1.0000 0.08400  0.64400  0.00730  Biso   1.000  H
  H43      1.0000 0.58400  0.85600  0.99270  Biso   1.000  H
  H44      1.0000 0.91600  0.14400  0.49270  Biso   1.000  H
  H45      1.0000 0.58400  0.64400  0.49270  Biso   1.000  H
  H46      1.0000 0.91600  0.35600  0.99270  Biso   1.000  H
  H47      1.0000 0.41600  0.14400  0.00730  Biso   1.000  H
  H48      1.0000 0.08400  0.85600  0.50730  Biso   1.000  H
  O65      1.0000 0.44390  0.30370  0.47445  Biso   1.000  O
  O66      1.0000 0.05610  0.69630  0.97445  Biso   1.000  O
  O67      1.0000 0.55610  0.80370  0.02555  Biso   1.000  O
  O68      1.0000 0.94390  0.19630  0.52555  Biso   1.000  O
  O69      1.0000 0.55610  0.69630  0.52555  Biso   1.000  O
  O70      1.0000 0.94390  0.30370  0.02555  Biso   1.000  O
  O71      1.0000 0.44390  0.19630  0.97445  Biso   1.000  O
  O72      1.0000 0.05610  0.80370  0.47445  Biso   1.000  O
  H49      1.0000 0.05700  0.32600  0.45610  Biso   1.000  H
  H50      1.0000 0.44300  0.67400  0.95610  Biso   1.000  H
  H51      1.0000 0.94300  0.82600  0.04390  Biso   1.000  H
  H52      1.0000 0.55700  0.17400  0.54390  Biso   1.000  H
  H53      1.0000 0.94300  0.67400  0.54390  Biso   1.000  H
  H54      1.0000 0.55700  0.32600  0.04390  Biso   1.000  H
  H55      1.0000 0.05700  0.17400  0.95610  Biso   1.000  H
  H56      1.0000 0.44300  0.82600  0.45610  Biso   1.000  H
  H57      1.0000 0.48700  0.35500  0.44400  Biso   1.000  H
  H58      1.0000 0.01300  0.64500  0.94400  Biso   1.000  H
  H59      1.0000 0.51300  0.85500  0.05600  Biso   1.000  H
  H60      1.0000 0.98700  0.14500  0.55600  Biso   1.000  H
  H61      1.0000 0.51300  0.64500  0.55600  Biso   1.000  H
  H62      1.0000 0.98700  0.35500  0.05600  Biso   1.000  H
  H63      1.0000 0.48700  0.14500  0.94400  Biso   1.000  H
  H64      1.0000 0.01300  0.85500  0.44400  Biso   1.000  H
  C1       1.0000 0.84440  0.02600  0.26200  Biso   1.000  C
  C2       1.0000 0.65560  0.97400  0.76200  Biso   1.000  C
  C3       1.0000 0.15560  0.52600  0.23800  Biso   1.000  C
  C4       1.0000 0.34440  0.47400  0.73800  Biso   1.000  C
  C5       1.0000 0.15560  0.97400  0.73800  Biso   1.000  C
  C6       1.0000 0.34440  0.02600  0.23800  Biso   1.000  C
  C7       1.0000 0.84440  0.47400  0.76200  Biso   1.000  C
  C8       1.0000 0.65560  0.52600  0.26200  Biso   1.000  C
  H65      1.0000 0.92990  0.96440  0.25030  Biso   1.000  H
  H66      1.0000 0.57010  0.03560  0.75030  Biso   1.000  H
  H67      1.0000 0.07010  0.46440  0.24970  Biso   1.000  H
  H68      1.0000 0.42990  0.53560  0.74970  Biso   1.000  H
  H69      1.0000 0.07010  0.03560  0.74970  Biso   1.000  H
  H70      1.0000 0.42990  0.96440  0.24970  Biso   1.000  H
  H71      1.0000 0.92990  0.53560  0.75030  Biso   1.000  H
  H72      1.0000 0.57010  0.46440  0.25030  Biso   1.000  H
  C9       1.0000 0.89080  0.16960  0.24230  Biso   1.000  C
  C10      1.0000 0.60920  0.83040  0.74230  Biso   1.000  C
  C11      1.0000 0.10920  0.66960  0.25770  Biso   1.000  C
  C12      1.0000 0.39080  0.33040  0.75770  Biso   1.000  C
  C13      1.0000 0.10920  0.83040  0.75770  Biso   1.000  C
  C14      1.0000 0.39080  0.16960  0.25770  Biso   1.000  C
  C15      1.0000 0.89080  0.33040  0.74230  Biso   1.000  C
  C16      1.0000 0.60920  0.66960  0.24230  Biso   1.000  C
