data_image0
_cell_length_a       8.623
_cell_length_b       9.893
_cell_length_c       18.924
_cell_angle_alpha    90
_cell_angle_beta     90
_cell_angle_gamma    90

_symmetry_space_group_name_H-M    "P 1"
_symmetry_int_tables_number       1

loop_
  _symmetry_equiv_pos_as_xyz
  'x, y, z'

loop_
  _atom_site_label
  _atom_site_occupancy
  _atom_site_fract_x
  _atom_site_fract_y
  _atom_site_fract_z
  _atom_site_thermal_displace_type
  _atom_site_B_iso_or_equiv
  _atom_site_type_symbol
  Cu1      1.0000 0.12942  0.14794  0.35146  Biso   1.000  Cu
  Cu2      1.0000 0.37058  0.85206  0.85146  Biso   1.000  Cu
  Cu3      1.0000 0.87058  0.64794  0.14855  Biso   1.000  Cu
  Cu4      1.0000 0.62942  0.35206  0.64855  Biso   1.000  Cu
  Cu5      1.0000 0.87058  0.85206  0.64855  Biso   1.000  Cu
  Cu6      1.0000 0.62942  0.14794  0.14855  Biso   1.000  Cu
  Cu7      1.0000 0.12942  0.35206  0.85146  Biso   1.000  Cu
  Cu8      1.0000 0.37058  0.64794  0.35146  Biso   1.000  Cu
  P1       1.0000 0.30373  0.01399  0.14347  Biso   1.000  P
  P2       1.0000 0.19627  0.98601  0.64347  Biso   1.000  P
  P3       1.0000 0.69627  0.51399  0.35653  Biso   1.000  P
  P4       1.0000 0.80373  0.48601  0.85653  Biso   1.000  P
  P5       1.0000 0.69627  0.98601  0.85653  Biso   1.000  P
  P6       1.0000 0.80373  0.01399  0.35653  Biso   1.000  P
  P7       1.0000 0.30373  0.48601  0.64347  Biso   1.000  P
  P8       1.0000 0.19627  0.51399  0.14347  Biso   1.000  P
  C1       1.0000 0.34440  0.02600  0.23832  Biso   1.000  C
  C2       1.0000 0.15560  0.97400  0.73832  Biso   1.000  C
  C3       1.0000 0.65560  0.52600  0.26168  Biso   1.000  C
  C4       1.0000 0.84440  0.47400  0.76168  Biso   1.000  C
  C5       1.0000 0.65560  0.97400  0.76168  Biso   1.000  C
  C6       1.0000 0.84440  0.02600  0.26168  Biso   1.000  C
  C7       1.0000 0.34440  0.47400  0.73832  Biso   1.000  C
  C8       1.0000 0.15560  0.52600  0.23832  Biso   1.000  C
  H1       1.0000 0.42980  0.96470  0.25010  Biso   1.000  H
  H2       1.0000 0.07020  0.03530  0.75010  Biso   1.000  H
  H3       1.0000 0.57020  0.46470  0.24990  Biso   1.000  H
  H4       1.0000 0.92980  0.53530  0.74990  Biso   1.000  H
  H5       1.0000 0.57020  0.03530  0.74990  Biso   1.000  H
  H6       1.0000 0.92980  0.96470  0.24990  Biso   1.000  H
  H7       1.0000 0.42980  0.53530  0.75010  Biso   1.000  H
  H8       1.0000 0.07020  0.46470  0.25010  Biso   1.000  H
  C9       1.0000 0.39100  0.16970  0.25754  Biso   1.000  C
  C10      1.0000 0.10900  0.83030  0.75754  Biso   1.000  C
  C11      1.0000 0.60900  0.66970  0.24246  Biso   1.000  C
  C12      1.0000 0.89100  0.33030  0.74246  Biso   1.000  C
  C13      1.0000 0.60900  0.83030  0.74246  Biso   1.000  C
  C14      1.0000 0.89100  0.16970  0.24246  Biso   1.000  C
  C15      1.0000 0.39100  0.33030  0.75754  Biso   1.000  C
  C16      1.0000 0.10900  0.66970  0.25754  Biso   1.000  C
  O1       1.0000 0.21180  0.98927  0.27818  Biso   1.000  O
  O2       1.0000 0.28820  0.01073  0.77818  Biso   1.000  O
  O3       1.0000 0.78820  0.48927  0.22182  Biso   1.000  O
  O4       1.0000 0.71180  0.51073  0.72182  Biso   1.000  O
  O5       1.0000 0.78820  0.01073  0.72182  Biso   1.000  O
  O6       1.0000 0.71180  0.98927  0.22182  Biso   1.000  O
  O7       1.0000 0.21180  0.51073  0.77818  Biso   1.000  O
  O8       1.0000 0.28820  0.48927  0.27818  Biso   1.000  O
  H9       1.0000 0.21160  0.90730  0.28450  Biso   1.000  H
  H10      1.0000 0.28840  0.09270  0.78450  Biso   1.000  H
  H11      1.0000 0.78840  0.40730  0.21550  Biso   1.000  H
  H12      1.0000 0.71160  0.59270  0.71550  Biso   1.000  H
  H13      1.0000 0.78840  0.09270  0.71550  Biso   1.000  H
  H14      1.0000 0.71160  0.90730  0.21550  Biso   1.000  H
  H15      1.0000 0.21160  0.59270  0.78450  Biso   1.000  H
  H16      1.0000 0.28840  0.40730  0.28450  Biso   1.000  H
  O9       1.0000 0.31411  0.23080  0.30487  Biso   1.000  O
  O10      1.0000 0.18589  0.76920  0.80487  Biso   1.000  O
  O11      1.0000 0.68589  0.73080  0.19513  Biso   1.000  O
  O12      1.0000 0.81411  0.26920  0.69513  Biso   1.000  O
  O13      1.0000 0.68589  0.76920  0.69513  Biso   1.000  O
  O14      1.0000 0.81411  0.23080  0.19513  Biso   1.000  O
  O15      1.0000 0.31411  0.26920  0.80487  Biso   1.000  O
  O16      1.0000 0.18589  0.73080  0.30487  Biso   1.000  O
  O17      1.0000 0.50089  0.22468  0.22513  Biso   1.000  O
  O18      1.0000 0.99911  0.77532  0.72513  Biso   1.000  O
  O19      1.0000 0.49911  0.72468  0.27487  Biso   1.000  O
  O20      1.0000 0.00089  0.27532  0.77487  Biso   1.000  O
  O21      1.0000 0.49911  0.77532  0.77487  Biso   1.000  O
  O22      1.0000 0.00089  0.22468  0.27487  Biso   1.000  O
  O23      1.0000 0.50089  0.27532  0.72513  Biso   1.000  O
  O24      1.0000 0.99911  0.72468  0.22513  Biso   1.000  O
  O25      1.0000 0.24000  0.87733  0.12682  Biso   1.000  O
  O26      1.0000 0.26000  0.12267  0.62682  Biso   1.000  O
  O27      1.0000 0.76000  0.37733  0.37318  Biso   1.000  O
  O28      1.0000 0.74000  0.62267  0.87318  Biso   1.000  O
  O29      1.0000 0.76000  0.12267  0.87318  Biso   1.000  O
  O30      1.0000 0.74000  0.87733  0.37318  Biso   1.000  O
  O31      1.0000 0.24000  0.62267  0.62682  Biso   1.000  O
  O32      1.0000 0.26000  0.37733  0.12682  Biso   1.000  O
  O33      1.0000 0.17360  0.12007  0.12740  Biso   1.000  O
  O34      1.0000 0.32640  0.87993  0.62740  Biso   1.000  O
  O35      1.0000 0.82640  0.62007  0.37260  Biso   1.000  O
  O36      1.0000 0.67360  0.37993  0.87260  Biso   1.000  O
  O37      1.0000 0.82640  0.87993  0.87260  Biso   1.000  O
  O38      1.0000 0.67360  0.12007  0.37260  Biso   1.000  O
  O39      1.0000 0.17360  0.37993  0.62740  Biso   1.000  O
  O40      1.0000 0.32640  0.62007  0.12740  Biso   1.000  O
  H17      1.0000 0.21060  0.19640  0.12830  Biso   1.000  H
  H18      1.0000 0.28940  0.80360  0.62830  Biso   1.000  H
  H19      1.0000 0.78940  0.69640  0.37170  Biso   1.000  H
  H20      1.0000 0.71060  0.30360  0.87170  Biso   1.000  H
  H21      1.0000 0.78940  0.80360  0.87170  Biso   1.000  H
  H22      1.0000 0.71060  0.19640  0.37170  Biso   1.000  H
  H23      1.0000 0.21060  0.30360  0.62830  Biso   1.000  H
  H24      1.0000 0.28940  0.69640  0.12830  Biso   1.000  H
  O41      1.0000 0.45380  0.05066  0.10577  Biso   1.000  O
  O42      1.0000 0.04620  0.94934  0.60577  Biso   1.000  O
  O43      1.0000 0.54620  0.55066  0.39423  Biso   1.000  O
  O44      1.0000 0.95380  0.44934  0.89423  Biso   1.000  O
  O45      1.0000 0.54620  0.94934  0.89423  Biso   1.000  O
  O46      1.0000 0.95380  0.05066  0.39423  Biso   1.000  O
  O47      1.0000 0.45380  0.44934  0.60577  Biso   1.000  O
  O48      1.0000 0.04620  0.55066  0.10577  Biso   1.000  O
  O49      1.0000 0.25810  0.09570  0.43315  Biso   1.000  O
  O50      1.0000 0.24190  0.90430  0.93315  Biso   1.000  O
  O51      1.0000 0.74190  0.59570  0.06685  Biso   1.000  O
  O52      1.0000 0.75810  0.40430  0.56685  Biso   1.000  O
  O53      1.0000 0.74190  0.90430  0.56685  Biso   1.000  O
  O54      1.0000 0.75810  0.09570  0.06685  Biso   1.000  O
  O55      1.0000 0.25810  0.40430  0.93315  Biso   1.000  O
  O56      1.0000 0.24190  0.59570  0.43315  Biso   1.000  O
  H25      1.0000 0.31290  0.15960  0.44480  Biso   1.000  H
  H26      1.0000 0.18710  0.84040  0.94480  Biso   1.000  H
  H27      1.0000 0.68710  0.65960  0.05520  Biso   1.000  H
  H28      1.0000 0.81290  0.34040  0.55520  Biso   1.000  H
  H29      1.0000 0.68710  0.84040  0.55520  Biso   1.000  H
  H30      1.0000 0.81290  0.15960  0.05520  Biso   1.000  H
  H31      1.0000 0.31290  0.34040  0.94480  Biso   1.000  H
  H32      1.0000 0.18710  0.65960  0.44480  Biso   1.000  H
  O57      1.0000 0.07170  0.35830  0.41525  Biso   1.000  O
  O58      1.0000 0.42830  0.64170  0.91525  Biso   1.000  O
  O59      1.0000 0.92830  0.85830  0.08475  Biso   1.000  O
  O60      1.0000 0.57170  0.14170  0.58475  Biso   1.000  O
  O61      1.0000 0.92830  0.64170  0.58475  Biso   1.000  O
  O62      1.0000 0.57170  0.35830  0.08475  Biso   1.000  O
  O63      1.0000 0.07170  0.14170  0.91525  Biso   1.000  O
  O64      1.0000 0.42830  0.85830  0.41525  Biso   1.000  O
  O65      1.0000 0.44380  0.30400  0.47415  Biso   1.000  O
  O66      1.0000 0.05620  0.69600  0.97415  Biso   1.000  O
  O67      1.0000 0.55620  0.80400  0.02585  Biso   1.000  O
  O68      1.0000 0.94380  0.19600  0.52585  Biso   1.000  O
  O69      1.0000 0.55620  0.69600  0.52585  Biso   1.000  O
  O70      1.0000 0.94380  0.30400  0.02585  Biso   1.000  O
  O71      1.0000 0.44380  0.19600  0.97415  Biso   1.000  O
  O72      1.0000 0.05620  0.80400  0.47415  Biso   1.000  O
  H33      1.0000 0.98900  0.37500  0.40300  Biso   1.000  H
  H34      1.0000 0.51100  0.62500  0.90300  Biso   1.000  H
  H35      1.0000 0.01100  0.87500  0.09700  Biso   1.000  H
  H36      1.0000 0.48900  0.12500  0.59700  Biso   1.000  H
  H37      1.0000 0.01100  0.62500  0.59700  Biso   1.000  H
  H38      1.0000 0.48900  0.37500  0.09700  Biso   1.000  H
  H39      1.0000 0.98900  0.12500  0.90300  Biso   1.000  H
  H40      1.0000 0.51100  0.87500  0.40300  Biso   1.000  H
  H41      1.0000 0.43200  0.35100  0.50800  Biso   1.000  H
  H42      1.0000 0.06800  0.64900  0.00800  Biso   1.000  H
  H43      1.0000 0.56800  0.85100  0.99200  Biso   1.000  H
  H44      1.0000 0.93200  0.14900  0.49200  Biso   1.000  H
  H45      1.0000 0.56800  0.64900  0.49200  Biso   1.000  H
  H46      1.0000 0.93200  0.35100  0.99200  Biso   1.000  H
  H47      1.0000 0.43200  0.14900  0.00800  Biso   1.000  H
  H48      1.0000 0.06800  0.85100  0.50800  Biso   1.000  H
  H49      1.0000 0.05100  0.33400  0.45000  Biso   1.000  H
  H50      1.0000 0.44900  0.66600  0.95000  Biso   1.000  H
  H51      1.0000 0.94900  0.83400  0.05000  Biso   1.000  H
  H52      1.0000 0.55100  0.16600  0.55000  Biso   1.000  H
  H53      1.0000 0.94900  0.66600  0.55000  Biso   1.000  H
  H54      1.0000 0.55100  0.33400  0.05000  Biso   1.000  H
  H55      1.0000 0.05100  0.16600  0.95000  Biso   1.000  H
  H56      1.0000 0.44900  0.83400  0.45000  Biso   1.000  H
  H57      1.0000 0.30400  0.03500  0.42900  Biso   1.000  H
  H58      1.0000 0.19600  0.96500  0.92900  Biso   1.000  H
  H59      1.0000 0.69600  0.53500  0.07100  Biso   1.000  H
  H60      1.0000 0.80400  0.46500  0.57100  Biso   1.000  H
  H61      1.0000 0.69600  0.96500  0.57100  Biso   1.000  H
  H62      1.0000 0.80400  0.03500  0.07100  Biso   1.000  H
  H63      1.0000 0.30400  0.46500  0.92900  Biso   1.000  H
  H64      1.0000 0.19600  0.53500  0.42900  Biso   1.000  H
  H65      1.0000 0.47800  0.34900  0.44800  Biso   1.000  H
  H66      1.0000 0.02200  0.65100  0.94800  Biso   1.000  H
  H67      1.0000 0.52200  0.84900  0.05200  Biso   1.000  H
  H68      1.0000 0.97800  0.15100  0.55200  Biso   1.000  H
  H69      1.0000 0.52200  0.65100  0.55200  Biso   1.000  H
  H70      1.0000 0.97800  0.34900  0.05200  Biso   1.000  H
  H71      1.0000 0.47800  0.15100  0.94800  Biso   1.000  H
  H72      1.0000 0.02200  0.84900  0.44800  Biso   1.000  H
