data_image0
_cell_length_a       22.1648
_cell_length_b       12.9513
_cell_length_c       9.1479
_cell_angle_alpha    90
_cell_angle_beta     90
_cell_angle_gamma    90

_symmetry_space_group_name_H-M    "P 1"
_symmetry_int_tables_number       1

loop_
  _symmetry_equiv_pos_as_xyz
  'x, y, z'

loop_
  _atom_site_label
  _atom_site_occupancy
  _atom_site_fract_x
  _atom_site_fract_y
  _atom_site_fract_z
  _atom_site_thermal_displace_type
  _atom_site_B_iso_or_equiv
  _atom_site_type_symbol
  Cu1      1.0000 0.00983  0.25000  0.71546  Biso   1.000  Cu
  Cu2      1.0000 0.49017  0.75000  0.21546  Biso   1.000  Cu
  Cu3      1.0000 0.50983  0.25000  0.78454  Biso   1.000  Cu
  Cu4      1.0000 0.99017  0.75000  0.28454  Biso   1.000  Cu
  N1       1.0000 0.10090  0.25000  0.72620  Biso   1.000  N
  N2       1.0000 0.39910  0.75000  0.22620  Biso   1.000  N
  N3       1.0000 0.60090  0.25000  0.77380  Biso   1.000  N
  N4       1.0000 0.89910  0.75000  0.27380  Biso   1.000  N
  N5       1.0000 0.41860  0.25000  0.78000  Biso   1.000  N
  N6       1.0000 0.08140  0.75000  0.28000  Biso   1.000  N
  N7       1.0000 0.91860  0.25000  0.72000  Biso   1.000  N
  N8       1.0000 0.58140  0.75000  0.22000  Biso   1.000  N
  O1       1.0000 0.98095  0.93180  0.66490  Biso   1.000  O
  O2       1.0000 0.51905  0.06820  0.16490  Biso   1.000  O
  O3       1.0000 0.48095  0.56820  0.83510  Biso   1.000  O
  O4       1.0000 0.01905  0.43180  0.33510  Biso   1.000  O
  O5       1.0000 0.01905  0.06820  0.33510  Biso   1.000  O
  O6       1.0000 0.48095  0.93180  0.83510  Biso   1.000  O
  O7       1.0000 0.51905  0.43180  0.16490  Biso   1.000  O
  O8       1.0000 0.98095  0.56820  0.66490  Biso   1.000  O
  O9       1.0000 0.00630  0.25000  0.47800  Biso   1.000  O
  O10      1.0000 0.49370  0.75000  0.97800  Biso   1.000  O
  O11      1.0000 0.50630  0.25000  0.02200  Biso   1.000  O
  O12      1.0000 0.99370  0.75000  0.52200  Biso   1.000  O
  H1       1.0000 0.01090  0.19360  0.42680  Biso   1.000  H
  H2       1.0000 0.48910  0.80640  0.92680  Biso   1.000  H
  H3       1.0000 0.51090  0.30640  0.07320  Biso   1.000  H
  H4       1.0000 0.98910  0.69360  0.57320  Biso   1.000  H
  H5       1.0000 0.98910  0.80640  0.57320  Biso   1.000  H
  H6       1.0000 0.51090  0.19360  0.07320  Biso   1.000  H
  H7       1.0000 0.48910  0.69360  0.92680  Biso   1.000  H
  H8       1.0000 0.01090  0.30640  0.42680  Biso   1.000  H
  H9       1.0000 0.03190  0.25000  0.46250  Biso   1.000  H
  H10      1.0000 0.46810  0.75000  0.96250  Biso   1.000  H
  H11      1.0000 0.53190  0.25000  0.03750  Biso   1.000  H
  H12      1.0000 0.96810  0.75000  0.53750  Biso   1.000  H
  O13      1.0000 0.00900  0.10510  0.76950  Biso   1.000  O
  O14      1.0000 0.49100  0.89490  0.26950  Biso   1.000  O
  O15      1.0000 0.50900  0.39490  0.73050  Biso   1.000  O
  O16      1.0000 0.99100  0.60510  0.23050  Biso   1.000  O
  O17      1.0000 0.99100  0.89490  0.23050  Biso   1.000  O
  O18      1.0000 0.50900  0.10510  0.73050  Biso   1.000  O
  O19      1.0000 0.49100  0.60510  0.26950  Biso   1.000  O
  O20      1.0000 0.00900  0.39490  0.76950  Biso   1.000  O
  O21      1.0000 0.07723  0.01740  0.58500  Biso   1.000  O
  O22      1.0000 0.42277  0.98260  0.08500  Biso   1.000  O
  O23      1.0000 0.57723  0.48260  0.91500  Biso   1.000  O
  O24      1.0000 0.92277  0.51740  0.41500  Biso   1.000  O
  O25      1.0000 0.92277  0.98260  0.41500  Biso   1.000  O
  O26      1.0000 0.57723  0.01740  0.91500  Biso   1.000  O
  O27      1.0000 0.42277  0.51740  0.08500  Biso   1.000  O
  O28      1.0000 0.07723  0.48260  0.58500  Biso   1.000  O
  H13      1.0000 0.05880  0.03280  0.51040  Biso   1.000  H
  H14      1.0000 0.44120  0.96720  0.01040  Biso   1.000  H
  H15      1.0000 0.55880  0.46720  0.98960  Biso   1.000  H
  H16      1.0000 0.94120  0.53280  0.48960  Biso   1.000  H
  H17      1.0000 0.94120  0.96720  0.48960  Biso   1.000  H
  H18      1.0000 0.55880  0.03280  0.98960  Biso   1.000  H
  H19      1.0000 0.44120  0.53280  0.01040  Biso   1.000  H
  H20      1.0000 0.05880  0.46720  0.51040  Biso   1.000  H
  P1       1.0000 0.03121  0.00252  0.71471  Biso   1.000  P
  P2       1.0000 0.46879  0.99748  0.21471  Biso   1.000  P
  P3       1.0000 0.53121  0.49748  0.78529  Biso   1.000  P
  P4       1.0000 0.96879  0.50252  0.28529  Biso   1.000  P
  P5       1.0000 0.96879  0.99748  0.28529  Biso   1.000  P
  P6       1.0000 0.53121  0.00252  0.78529  Biso   1.000  P
  P7       1.0000 0.46879  0.50252  0.21471  Biso   1.000  P
  P8       1.0000 0.03121  0.49748  0.71471  Biso   1.000  P
  C1       1.0000 0.20190  0.94240  0.75260  Biso   1.000  C
  C2       1.0000 0.29810  0.05760  0.25260  Biso   1.000  C
  C3       1.0000 0.70190  0.55760  0.74740  Biso   1.000  C
  C4       1.0000 0.79810  0.44240  0.24740  Biso   1.000  C
  C5       1.0000 0.79810  0.05760  0.24740  Biso   1.000  C
  C6       1.0000 0.70190  0.94240  0.74740  Biso   1.000  C
  C7       1.0000 0.29810  0.44240  0.25260  Biso   1.000  C
  C8       1.0000 0.20190  0.55760  0.75260  Biso   1.000  C
  H21      1.0000 0.24200  0.92550  0.72080  Biso   1.000  H
  H22      1.0000 0.25800  0.07450  0.22080  Biso   1.000  H
  H23      1.0000 0.74200  0.57450  0.77920  Biso   1.000  H
  H24      1.0000 0.75800  0.42550  0.27920  Biso   1.000  H
  H25      1.0000 0.75800  0.07450  0.27920  Biso   1.000  H
  H26      1.0000 0.74200  0.92550  0.77920  Biso   1.000  H
  H27      1.0000 0.25800  0.42550  0.22080  Biso   1.000  H
  H28      1.0000 0.24200  0.57450  0.72080  Biso   1.000  H
  H29      1.0000 0.20400  0.98200  0.84130  Biso   1.000  H
  H30      1.0000 0.29600  0.01800  0.34130  Biso   1.000  H
  H31      1.0000 0.70400  0.51800  0.65870  Biso   1.000  H
  H32      1.0000 0.79600  0.48200  0.15870  Biso   1.000  H
  H33      1.0000 0.79600  0.01800  0.15870  Biso   1.000  H
  H34      1.0000 0.70400  0.98200  0.65870  Biso   1.000  H
  H35      1.0000 0.29600  0.48200  0.34130  Biso   1.000  H
  H36      1.0000 0.20400  0.51800  0.84130  Biso   1.000  H
  H37      1.0000 0.18200  0.98220  0.67840  Biso   1.000  H
  H38      1.0000 0.31800  0.01780  0.17840  Biso   1.000  H
  H39      1.0000 0.68200  0.51780  0.82160  Biso   1.000  H
  H40      1.0000 0.81800  0.48220  0.32160  Biso   1.000  H
  H41      1.0000 0.81800  0.01780  0.32160  Biso   1.000  H
  H42      1.0000 0.68200  0.98220  0.82160  Biso   1.000  H
  H43      1.0000 0.31800  0.48220  0.17840  Biso   1.000  H
  H44      1.0000 0.18200  0.51780  0.67840  Biso   1.000  H
  C9       1.0000 0.16680  0.84390  0.78020  Biso   1.000  C
  C10      1.0000 0.33320  0.15610  0.28020  Biso   1.000  C
  C11      1.0000 0.66680  0.65610  0.71980  Biso   1.000  C
  C12      1.0000 0.83320  0.34390  0.21980  Biso   1.000  C
  C13      1.0000 0.83320  0.15610  0.21980  Biso   1.000  C
  C14      1.0000 0.66680  0.84390  0.71980  Biso   1.000  C
  C15      1.0000 0.33320  0.34390  0.28020  Biso   1.000  C
  C16      1.0000 0.16680  0.65610  0.78020  Biso   1.000  C
  C17      1.0000 0.19500  0.75000  0.75820  Biso   1.000  C
  C18      1.0000 0.30500  0.25000  0.25820  Biso   1.000  C
  C19      1.0000 0.69500  0.75000  0.74180  Biso   1.000  C
  C20      1.0000 0.80500  0.25000  0.24180  Biso   1.000  C
  H45      1.0000 0.23490  0.75000  0.72690  Biso   1.000  H
  H46      1.0000 0.26510  0.25000  0.22690  Biso   1.000  H
  H47      1.0000 0.73490  0.75000  0.77310  Biso   1.000  H
  H48      1.0000 0.76510  0.25000  0.27310  Biso   1.000  H
  C21      1.0000 0.10690  0.84420  0.82640  Biso   1.000  C
  C22      1.0000 0.39310  0.15580  0.32640  Biso   1.000  C
  C23      1.0000 0.60690  0.65580  0.67360  Biso   1.000  C
  C24      1.0000 0.89310  0.34420  0.17360  Biso   1.000  C
  C25      1.0000 0.89310  0.15580  0.17360  Biso   1.000  C
  C26      1.0000 0.60690  0.84420  0.67360  Biso   1.000  C
  C27      1.0000 0.39310  0.34420  0.32640  Biso   1.000  C
  C28      1.0000 0.10690  0.65580  0.82640  Biso   1.000  C
  C29      1.0000 0.07630  0.75000  0.85090  Biso   1.000  C
  C30      1.0000 0.42370  0.25000  0.35090  Biso   1.000  C
  C31      1.0000 0.57630  0.75000  0.64910  Biso   1.000  C
  C32      1.0000 0.92370  0.25000  0.14910  Biso   1.000  C
  C33      1.0000 0.01230  0.75000  0.90660  Biso   1.000  C
  C34      1.0000 0.48770  0.25000  0.40660  Biso   1.000  C
  C35      1.0000 0.51230  0.75000  0.59340  Biso   1.000  C
  C36      1.0000 0.98770  0.25000  0.09340  Biso   1.000  C
  C37      1.0000 0.07520  0.94650  0.85850  Biso   1.000  C
  C38      1.0000 0.42480  0.05350  0.35850  Biso   1.000  C
  C39      1.0000 0.57520  0.55350  0.64150  Biso   1.000  C
  C40      1.0000 0.92480  0.44650  0.14150  Biso   1.000  C
  C41      1.0000 0.92480  0.05350  0.14150  Biso   1.000  C
  C42      1.0000 0.57520  0.94650  0.64150  Biso   1.000  C
  C43      1.0000 0.42480  0.44650  0.35850  Biso   1.000  C
  C44      1.0000 0.07520  0.55350  0.85850  Biso   1.000  C
  H49      1.0000 0.10570  0.99630  0.88720  Biso   1.000  H
  H50      1.0000 0.39430  0.00370  0.38720  Biso   1.000  H
  H51      1.0000 0.60570  0.50370  0.61280  Biso   1.000  H
  H52      1.0000 0.89430  0.49630  0.11280  Biso   1.000  H
  H53      1.0000 0.89430  0.00370  0.11280  Biso   1.000  H
  H54      1.0000 0.60570  0.99630  0.61280  Biso   1.000  H
  H55      1.0000 0.39430  0.49630  0.38720  Biso   1.000  H
  H56      1.0000 0.10570  0.50370  0.88720  Biso   1.000  H
  H57      1.0000 0.04890  0.93620  0.94210  Biso   1.000  H
  H58      1.0000 0.45110  0.06380  0.44210  Biso   1.000  H
  H59      1.0000 0.54890  0.56380  0.55790  Biso   1.000  H
  H60      1.0000 0.95110  0.43620  0.05790  Biso   1.000  H
  H61      1.0000 0.95110  0.06380  0.05790  Biso   1.000  H
  H62      1.0000 0.54890  0.93620  0.55790  Biso   1.000  H
  H63      1.0000 0.45110  0.43620  0.44210  Biso   1.000  H
  H64      1.0000 0.04890  0.56380  0.94210  Biso   1.000  H
  C45      1.0000 0.12790  0.25000  0.85560  Biso   1.000  C
  C46      1.0000 0.37210  0.75000  0.35560  Biso   1.000  C
  C47      1.0000 0.62790  0.25000  0.64440  Biso   1.000  C
  C48      1.0000 0.87210  0.75000  0.14440  Biso   1.000  C
  H65      1.0000 0.10420  0.25000  0.93950  Biso   1.000  H
  H66      1.0000 0.39580  0.75000  0.43950  Biso   1.000  H
  H67      1.0000 0.60420  0.25000  0.56050  Biso   1.000  H
  H68      1.0000 0.89580  0.75000  0.06050  Biso   1.000  H
  C49      1.0000 0.18960  0.25000  0.87030  Biso   1.000  C
  C50      1.0000 0.31040  0.75000  0.37030  Biso   1.000  C
  C51      1.0000 0.68960  0.25000  0.62970  Biso   1.000  C
  C52      1.0000 0.81040  0.75000  0.12970  Biso   1.000  C
  H69      1.0000 0.20660  0.25000  0.96330  Biso   1.000  H
  H70      1.0000 0.29340  0.75000  0.46330  Biso   1.000  H
  H71      1.0000 0.70660  0.25000  0.53670  Biso   1.000  H
  H72      1.0000 0.79340  0.75000  0.03670  Biso   1.000  H
  C53      1.0000 0.22610  0.25000  0.75170  Biso   1.000  C
  C54      1.0000 0.27390  0.75000  0.25170  Biso   1.000  C
  C55      1.0000 0.72610  0.25000  0.74830  Biso   1.000  C
  C56      1.0000 0.77390  0.75000  0.24830  Biso   1.000  C
  C57      1.0000 0.19740  0.25000  0.61880  Biso   1.000  C
  C58      1.0000 0.30260  0.75000  0.11880  Biso   1.000  C
  C59      1.0000 0.69740  0.25000  0.88120  Biso   1.000  C
  C60      1.0000 0.80260  0.75000  0.38120  Biso   1.000  C
  H73      1.0000 0.22000  0.25000  0.53320  Biso   1.000  H
  H74      1.0000 0.28000  0.75000  0.03320  Biso   1.000  H
  H75      1.0000 0.72000  0.25000  0.96680  Biso   1.000  H
  H76      1.0000 0.78000  0.75000  0.46680  Biso   1.000  H
  C61      1.0000 0.13600  0.25000  0.61160  Biso   1.000  C
  C62      1.0000 0.36400  0.75000  0.11160  Biso   1.000  C
  C63      1.0000 0.63600  0.25000  0.88840  Biso   1.000  C
  C64      1.0000 0.86400  0.75000  0.38840  Biso   1.000  C
  H77      1.0000 0.11800  0.25000  0.51970  Biso   1.000  H
  H78      1.0000 0.38200  0.75000  0.01970  Biso   1.000  H
  H79      1.0000 0.61800  0.25000  0.98030  Biso   1.000  H
  H80      1.0000 0.88200  0.75000  0.48030  Biso   1.000  H
  C65      1.0000 0.29300  0.25000  0.76320  Biso   1.000  C
  C66      1.0000 0.20700  0.75000  0.26320  Biso   1.000  C
  C67      1.0000 0.79300  0.25000  0.73680  Biso   1.000  C
  C68      1.0000 0.70700  0.75000  0.23680  Biso   1.000  C
  C69      1.0000 0.32640  0.17420  0.69320  Biso   1.000  C
  C70      1.0000 0.17360  0.82580  0.19320  Biso   1.000  C
  C71      1.0000 0.82640  0.32580  0.80680  Biso   1.000  C
  C72      1.0000 0.67360  0.67420  0.30680  Biso   1.000  C
  C73      1.0000 0.67360  0.82580  0.30680  Biso   1.000  C
  C74      1.0000 0.82640  0.17420  0.80680  Biso   1.000  C
  C75      1.0000 0.17360  0.67420  0.19320  Biso   1.000  C
  C76      1.0000 0.32640  0.32580  0.69320  Biso   1.000  C
  H81      1.0000 0.30710  0.12390  0.63780  Biso   1.000  H
  H82      1.0000 0.19290  0.87610  0.13780  Biso   1.000  H
  H83      1.0000 0.80710  0.37610  0.86220  Biso   1.000  H
  H84      1.0000 0.69290  0.62390  0.36220  Biso   1.000  H
  H85      1.0000 0.69290  0.87610  0.36220  Biso   1.000  H
  H86      1.0000 0.80710  0.12390  0.86220  Biso   1.000  H
  H87      1.0000 0.19290  0.62390  0.13780  Biso   1.000  H
  H88      1.0000 0.30710  0.37610  0.63780  Biso   1.000  H
  C77      1.0000 0.38790  0.17370  0.70600  Biso   1.000  C
  C78      1.0000 0.11210  0.82630  0.20600  Biso   1.000  C
  C79      1.0000 0.88790  0.32630  0.79400  Biso   1.000  C
  C80      1.0000 0.61210  0.67370  0.29400  Biso   1.000  C
  C81      1.0000 0.61210  0.82630  0.29400  Biso   1.000  C
  C82      1.0000 0.88790  0.17370  0.79400  Biso   1.000  C
  C83      1.0000 0.11210  0.67370  0.20600  Biso   1.000  C
  C84      1.0000 0.38790  0.32630  0.70600  Biso   1.000  C
  H89      1.0000 0.40970  0.12020  0.66340  Biso   1.000  H
  H90      1.0000 0.09030  0.87980  0.16340  Biso   1.000  H
  H91      1.0000 0.90970  0.37980  0.83660  Biso   1.000  H
  H92      1.0000 0.59030  0.62020  0.33660  Biso   1.000  H
  H93      1.0000 0.59030  0.87980  0.33660  Biso   1.000  H
  H94      1.0000 0.90970  0.12020  0.83660  Biso   1.000  H
  H95      1.0000 0.09030  0.62020  0.16340  Biso   1.000  H
  H96      1.0000 0.40970  0.37980  0.66340  Biso   1.000  H
  O29      1.0000 0.86690  0.86730  0.78700  Biso   1.000  O
  O30      1.0000 0.63310  0.13270  0.28700  Biso   1.000  O
  O31      1.0000 0.36690  0.63270  0.71300  Biso   1.000  O
  O32      1.0000 0.13310  0.36730  0.21300  Biso   1.000  O
  O33      1.0000 0.13310  0.13270  0.21300  Biso   1.000  O
  O34      1.0000 0.36690  0.86730  0.71300  Biso   1.000  O
  O35      1.0000 0.63310  0.36730  0.28700  Biso   1.000  O
  O36      1.0000 0.86690  0.63270  0.78700  Biso   1.000  O
  H97      1.0000 0.90200  0.87470  0.75080  Biso   1.000  H
  H98      1.0000 0.59800  0.12530  0.25080  Biso   1.000  H
  H99      1.0000 0.40200  0.62530  0.74920  Biso   1.000  H
  H100     1.0000 0.09800  0.37470  0.24920  Biso   1.000  H
  H101     1.0000 0.09800  0.12530  0.24920  Biso   1.000  H
  H102     1.0000 0.40200  0.87470  0.74920  Biso   1.000  H
  H103     1.0000 0.59800  0.37470  0.25080  Biso   1.000  H
  H104     1.0000 0.90200  0.62530  0.75080  Biso   1.000  H
  H105     1.0000 0.83920  0.90030  0.74300  Biso   1.000  H
  H106     1.0000 0.66080  0.09970  0.24300  Biso   1.000  H
  H107     1.0000 0.33920  0.59970  0.75700  Biso   1.000  H
  H108     1.0000 0.16080  0.40030  0.25700  Biso   1.000  H
  H109     1.0000 0.16080  0.09970  0.25700  Biso   1.000  H
  H110     1.0000 0.33920  0.90030  0.75700  Biso   1.000  H
  H111     1.0000 0.66080  0.40030  0.24300  Biso   1.000  H
  H112     1.0000 0.83920  0.59970  0.74300  Biso   1.000  H
  H113     1.0000 0.30390  0.13060  0.89940  Biso   1.000  H
  H114     1.0000 0.19610  0.86940  0.39940  Biso   1.000  H
  H115     1.0000 0.80390  0.36940  0.60060  Biso   1.000  H
  H116     1.0000 0.69610  0.63060  0.10060  Biso   1.000  H
  H117     1.0000 0.69610  0.86940  0.10060  Biso   1.000  H
  H118     1.0000 0.80390  0.13060  0.60060  Biso   1.000  H
  H119     1.0000 0.19610  0.63060  0.39940  Biso   1.000  H
  H120     1.0000 0.30390  0.36940  0.89940  Biso   1.000  H
  H121     1.0000 0.40540  0.13840  0.91660  Biso   1.000  H
  H122     1.0000 0.09460  0.86160  0.41660  Biso   1.000  H
  H123     1.0000 0.90540  0.36160  0.58340  Biso   1.000  H
  H124     1.0000 0.59460  0.63840  0.08340  Biso   1.000  H
  H125     1.0000 0.59460  0.86160  0.08340  Biso   1.000  H
  H126     1.0000 0.90540  0.13840  0.58340  Biso   1.000  H
  H127     1.0000 0.09460  0.63840  0.41660  Biso   1.000  H
  H128     1.0000 0.40540  0.36160  0.91660  Biso   1.000  H
  H129     1.0000 0.99860  0.68010  0.91730  Biso   1.000  H
  H130     1.0000 0.50140  0.31990  0.41730  Biso   1.000  H
  H131     1.0000 0.49860  0.81990  0.58270  Biso   1.000  H
  H132     1.0000 0.00140  0.18010  0.08270  Biso   1.000  H
  H133     1.0000 0.00140  0.31990  0.08270  Biso   1.000  H
  H134     1.0000 0.49860  0.68010  0.58270  Biso   1.000  H
  H135     1.0000 0.50140  0.18010  0.41730  Biso   1.000  H
  H136     1.0000 0.99860  0.81990  0.91730  Biso   1.000  H
  H137     1.0000 0.98690  0.78560  0.83830  Biso   1.000  H
  H138     1.0000 0.51310  0.21440  0.33830  Biso   1.000  H
  H139     1.0000 0.48690  0.71440  0.66170  Biso   1.000  H
  H140     1.0000 0.01310  0.28560  0.16170  Biso   1.000  H
  H141     1.0000 0.01310  0.21440  0.16170  Biso   1.000  H
  H142     1.0000 0.48690  0.78560  0.66170  Biso   1.000  H
  H143     1.0000 0.51310  0.28560  0.33830  Biso   1.000  H
  H144     1.0000 0.98690  0.71440  0.83830  Biso   1.000  H
  H145     1.0000 0.01080  0.78430  0.99950  Biso   1.000  H
  H146     1.0000 0.48920  0.21570  0.49950  Biso   1.000  H
  H147     1.0000 0.51080  0.71570  0.50050  Biso   1.000  H
  H148     1.0000 0.98920  0.28430  0.00050  Biso   1.000  H
  H149     1.0000 0.98920  0.21570  0.00050  Biso   1.000  H
  H150     1.0000 0.51080  0.78430  0.50050  Biso   1.000  H
  H151     1.0000 0.48920  0.28430  0.49950  Biso   1.000  H
  H152     1.0000 0.01080  0.71570  0.99950  Biso   1.000  H
  C85      1.0000 0.32470  0.18090  0.84710  Biso   1.000  C
  C86      1.0000 0.17530  0.81910  0.34710  Biso   1.000  C
  C87      1.0000 0.82470  0.31910  0.65290  Biso   1.000  C
  C88      1.0000 0.67530  0.68090  0.15290  Biso   1.000  C
  C89      1.0000 0.67530  0.81910  0.15290  Biso   1.000  C
  C90      1.0000 0.82470  0.18090  0.65290  Biso   1.000  C
  C91      1.0000 0.17530  0.68090  0.34710  Biso   1.000  C
  C92      1.0000 0.32470  0.31910  0.84710  Biso   1.000  C
  C93      1.0000 0.38580  0.18460  0.85490  Biso   1.000  C
  C94      1.0000 0.11420  0.81540  0.35490  Biso   1.000  C
  C95      1.0000 0.88580  0.31540  0.64510  Biso   1.000  C
  C96      1.0000 0.61420  0.68460  0.14510  Biso   1.000  C
  C97      1.0000 0.61420  0.81540  0.14510  Biso   1.000  C
  C98      1.0000 0.88580  0.18460  0.64510  Biso   1.000  C
  C99      1.0000 0.11420  0.68460  0.35490  Biso   1.000  C
  C100     1.0000 0.38580  0.31540  0.85490  Biso   1.000  C
