data_image0
_cell_length_a       4.761
_cell_length_b       12.242
_cell_length_c       19.337
_cell_angle_alpha    90
_cell_angle_beta     90
_cell_angle_gamma    90

_symmetry_space_group_name_H-M    "P 1"
_symmetry_int_tables_number       1

loop_
  _symmetry_equiv_pos_as_xyz
  'x, y, z'

loop_
  _atom_site_label
  _atom_site_occupancy
  _atom_site_fract_x
  _atom_site_fract_y
  _atom_site_fract_z
  _atom_site_thermal_displace_type
  _atom_site_B_iso_or_equiv
  _atom_site_type_symbol
  Cu1      1.0000 0.20310  0.81250  0.22770  Biso   1.000  Cu
  Cu2      1.0000 0.29690  0.18750  0.72770  Biso   1.000  Cu
  Cu3      1.0000 0.70310  0.68750  0.77230  Biso   1.000  Cu
  Cu4      1.0000 0.79690  0.31250  0.27230  Biso   1.000  Cu
  N1       1.0000 0.05490  0.94760  0.26310  Biso   1.000  N
  N2       1.0000 0.44510  0.05240  0.76310  Biso   1.000  N
  N3       1.0000 0.55490  0.55240  0.73690  Biso   1.000  N
  N4       1.0000 0.94510  0.44760  0.23690  Biso   1.000  N
  C1       1.0000 0.09550  0.98620  0.32390  Biso   1.000  C
  C2       1.0000 0.40450  0.01380  0.82390  Biso   1.000  C
  C3       1.0000 0.59550  0.51380  0.67610  Biso   1.000  C
  C4       1.0000 0.90450  0.48620  0.17610  Biso   1.000  C
  C5       1.0000 0.28580  0.94250  0.37340  Biso   1.000  C
  C6       1.0000 0.21420  0.05750  0.87340  Biso   1.000  C
  C7       1.0000 0.78580  0.55750  0.62660  Biso   1.000  C
  C8       1.0000 0.71420  0.44250  0.12660  Biso   1.000  C
  C9       1.0000 0.30300  0.99660  0.43650  Biso   1.000  C
  C10      1.0000 0.19700  0.00340  0.93650  Biso   1.000  C
  C11      1.0000 0.80300  0.50340  0.56350  Biso   1.000  C
  C12      1.0000 0.69700  0.49660  0.06350  Biso   1.000  C
  C13      1.0000 0.48740  0.96440  0.48810  Biso   1.000  C
  C14      1.0000 0.01260  0.03560  0.98810  Biso   1.000  C
  C15      1.0000 0.98740  0.53560  0.51190  Biso   1.000  C
  C16      1.0000 0.51260  0.46440  0.01190  Biso   1.000  C
  C17      1.0000 0.65460  0.87330  0.47660  Biso   1.000  C
  C18      1.0000 0.84540  0.12670  0.97660  Biso   1.000  C
  C19      1.0000 0.15460  0.62670  0.52340  Biso   1.000  C
  C20      1.0000 0.34540  0.37330  0.02340  Biso   1.000  C
  C21      1.0000 0.64170  0.81690  0.41440  Biso   1.000  C
  C22      1.0000 0.85830  0.18310  0.91440  Biso   1.000  C
  C23      1.0000 0.14170  0.68310  0.58560  Biso   1.000  C
  C24      1.0000 0.35830  0.31690  0.08560  Biso   1.000  C
  C25      1.0000 0.46320  0.85070  0.36090  Biso   1.000  C
  C26      1.0000 0.03680  0.14930  0.86090  Biso   1.000  C
  C27      1.0000 0.96320  0.64930  0.63910  Biso   1.000  C
  C28      1.0000 0.53680  0.35070  0.13910  Biso   1.000  C
  O1       1.0000 0.46460  0.79570  0.30200  Biso   1.000  O
  O2       1.0000 0.03540  0.20430  0.80200  Biso   1.000  O
  O3       1.0000 0.96460  0.70430  0.69800  Biso   1.000  O
  O4       1.0000 0.53540  0.29570  0.19800  Biso   1.000  O
  C29      1.0000 0.86600  0.00250  0.21630  Biso   1.000  C
  C30      1.0000 0.63400  0.99750  0.71630  Biso   1.000  C
  C31      1.0000 0.36600  0.49750  0.78370  Biso   1.000  C
  C32      1.0000 0.13400  0.50250  0.28370  Biso   1.000  C
  C33      1.0000 0.01560  0.09650  0.17870  Biso   1.000  C
  C34      1.0000 0.48440  0.90350  0.67870  Biso   1.000  C
  C35      1.0000 0.51560  0.40350  0.82130  Biso   1.000  C
  C36      1.0000 0.98440  0.59650  0.32130  Biso   1.000  C
  O5       1.0000 0.09310  0.17740  0.22930  Biso   1.000  O
  O6       1.0000 0.40690  0.82260  0.72930  Biso   1.000  O
  O7       1.0000 0.59310  0.32260  0.77070  Biso   1.000  O
  O8       1.0000 0.90690  0.67740  0.27070  Biso   1.000  O
  C37      1.0000 0.77400  0.91990  0.16030  Biso   1.000  C
  C38      1.0000 0.72600  0.08010  0.66030  Biso   1.000  C
  C39      1.0000 0.27400  0.58010  0.83970  Biso   1.000  C
  C40      1.0000 0.22600  0.41990  0.33970  Biso   1.000  C
  O9       1.0000 0.57720  0.94240  0.12310  Biso   1.000  O
  O10      1.0000 0.92280  0.05760  0.62310  Biso   1.000  O
  O11      1.0000 0.07720  0.55760  0.87690  Biso   1.000  O
  O12      1.0000 0.42280  0.44240  0.37690  Biso   1.000  O
  O13      1.0000 0.91870  0.83300  0.15580  Biso   1.000  O
  O14      1.0000 0.58130  0.16700  0.65580  Biso   1.000  O
  O15      1.0000 0.41870  0.66700  0.84420  Biso   1.000  O
  O16      1.0000 0.08130  0.33300  0.34420  Biso   1.000  O
  O17      1.0000 0.40370  0.70010  0.17060  Biso   1.000  O
  O18      1.0000 0.09630  0.29990  0.67060  Biso   1.000  O
  O19      1.0000 0.90370  0.79990  0.82940  Biso   1.000  O
  O20      1.0000 0.59630  0.20010  0.32940  Biso   1.000  O
  O21      1.0000 0.57660  0.27400  0.46320  Biso   1.000  O
  O22      1.0000 0.92340  0.72600  0.96320  Biso   1.000  O
  O23      1.0000 0.07660  0.22600  0.53680  Biso   1.000  O
  O24      1.0000 0.42340  0.77400  0.03680  Biso   1.000  O
  H1       1.0000 0.00200  0.04770  0.34350  Biso   1.000  H
  H2       1.0000 0.49800  0.95230  0.84350  Biso   1.000  H
  H3       1.0000 0.50200  0.45230  0.65650  Biso   1.000  H
  H4       1.0000 0.99800  0.54770  0.15650  Biso   1.000  H
  H5       1.0000 0.17900  0.05650  0.44020  Biso   1.000  H
  H6       1.0000 0.32100  0.94350  0.94020  Biso   1.000  H
  H7       1.0000 0.67900  0.44350  0.55980  Biso   1.000  H
  H8       1.0000 0.82100  0.55650  0.05980  Biso   1.000  H
  H9       1.0000 0.50200  0.98360  0.53580  Biso   1.000  H
  H10      1.0000 0.99800  0.01640  0.03580  Biso   1.000  H
  H11      1.0000 0.00200  0.51640  0.46420  Biso   1.000  H
  H12      1.0000 0.49800  0.48360  0.96420  Biso   1.000  H
  H13      1.0000 0.79700  0.84720  0.51180  Biso   1.000  H
  H14      1.0000 0.70300  0.15280  0.01180  Biso   1.000  H
  H15      1.0000 0.29700  0.65280  0.48820  Biso   1.000  H
  H16      1.0000 0.20300  0.34720  0.98820  Biso   1.000  H
  H17      1.0000 0.76700  0.76030  0.40080  Biso   1.000  H
  H18      1.0000 0.73300  0.23970  0.90080  Biso   1.000  H
  H19      1.0000 0.26700  0.73970  0.59920  Biso   1.000  H
  H20      1.0000 0.23300  0.26030  0.09920  Biso   1.000  H
  H21      1.0000 0.67900  0.02550  0.22440  Biso   1.000  H
  H22      1.0000 0.82100  0.97450  0.72440  Biso   1.000  H
  H23      1.0000 0.17900  0.47450  0.77560  Biso   1.000  H
  H24      1.0000 0.32100  0.52550  0.27560  Biso   1.000  H
  H25      1.0000 0.16400  0.06520  0.15340  Biso   1.000  H
  H26      1.0000 0.33600  0.93480  0.65340  Biso   1.000  H
  H27      1.0000 0.66400  0.43480  0.84660  Biso   1.000  H
  H28      1.0000 0.83600  0.56520  0.34660  Biso   1.000  H
  H29      1.0000 0.90300  0.12540  0.14580  Biso   1.000  H
  H30      1.0000 0.59700  0.87460  0.64580  Biso   1.000  H
  H31      1.0000 0.40300  0.37460  0.85420  Biso   1.000  H
  H32      1.0000 0.09700  0.62540  0.35420  Biso   1.000  H
  H33      1.0000 0.24900  0.21300  0.20900  Biso   1.000  H
  H34      1.0000 0.25100  0.78700  0.70900  Biso   1.000  H
  H35      1.0000 0.74900  0.28700  0.79100  Biso   1.000  H
  H36      1.0000 0.75100  0.71300  0.29100  Biso   1.000  H
  H37      1.0000 0.41400  0.71400  0.12250  Biso   1.000  H
  H38      1.0000 0.08600  0.28600  0.62250  Biso   1.000  H
  H39      1.0000 0.91400  0.78600  0.87750  Biso   1.000  H
  H40      1.0000 0.58600  0.21400  0.37750  Biso   1.000  H
  H41      1.0000 0.59360  0.68900  0.18240  Biso   1.000  H
  H42      1.0000 0.90640  0.31100  0.68240  Biso   1.000  H
  H43      1.0000 0.09360  0.81100  0.81760  Biso   1.000  H
  H44      1.0000 0.40640  0.18900  0.31760  Biso   1.000  H
  H45      1.0000 0.59000  0.34630  0.44630  Biso   1.000  H
  H46      1.0000 0.91000  0.65370  0.94630  Biso   1.000  H
  H47      1.0000 0.09000  0.15370  0.55370  Biso   1.000  H
  H48      1.0000 0.41000  0.84630  0.05370  Biso   1.000  H
  H49      1.0000 0.41500  0.26600  0.49100  Biso   1.000  H
  H50      1.0000 0.08500  0.73400  0.99100  Biso   1.000  H
  H51      1.0000 0.91500  0.23400  0.50900  Biso   1.000  H
  H52      1.0000 0.58500  0.76600  0.00900  Biso   1.000  H
