data_image0
_cell_length_a       7.5792
_cell_length_b       10.8066
_cell_length_c       16.7901
_cell_angle_alpha    90
_cell_angle_beta     96.868
_cell_angle_gamma    90

_symmetry_space_group_name_H-M    "P 1"
_symmetry_int_tables_number       1

loop_
  _symmetry_equiv_pos_as_xyz
  'x, y, z'

loop_
  _atom_site_label
  _atom_site_occupancy
  _atom_site_fract_x
  _atom_site_fract_y
  _atom_site_fract_z
  _atom_site_thermal_displace_type
  _atom_site_B_iso_or_equiv
  _atom_site_type_symbol
  Cu1      1.0000 0.00000  0.50000  0.50000  Biso   1.000  Cu
  Cu2      1.0000 0.50000  0.00000  0.00000  Biso   1.000  Cu
  O1       1.0000 0.12370  0.64618  0.39151  Biso   1.000  O
  O2       1.0000 0.37630  0.14618  0.10849  Biso   1.000  O
  O3       1.0000 0.87630  0.35382  0.60849  Biso   1.000  O
  O4       1.0000 0.62370  0.85382  0.89151  Biso   1.000  O
  N1       1.0000 0.76410  0.57579  0.46583  Biso   1.000  N
  N2       1.0000 0.73590  0.07579  0.03417  Biso   1.000  N
  N3       1.0000 0.23590  0.42421  0.53417  Biso   1.000  N
  N4       1.0000 0.26410  0.92421  0.96583  Biso   1.000  N
  O5       1.0000 0.97570  0.39549  0.40023  Biso   1.000  O
  O6       1.0000 0.52430  0.89549  0.09977  Biso   1.000  O
  O7       1.0000 0.02430  0.60451  0.59977  Biso   1.000  O
  O8       1.0000 0.47570  0.10451  0.90023  Biso   1.000  O
  N5       1.0000 0.22350  0.83856  0.36324  Biso   1.000  N
  N6       1.0000 0.27650  0.33856  0.13676  Biso   1.000  N
  N7       1.0000 0.77650  0.16144  0.63676  Biso   1.000  N
  N8       1.0000 0.72350  0.66144  0.86324  Biso   1.000  N
  N9       1.0000 0.93720  0.28130  0.39413  Biso   1.000  N
  N10      1.0000 0.56280  0.78130  0.10587  Biso   1.000  N
  N11      1.0000 0.06280  0.71870  0.60587  Biso   1.000  N
  N12      1.0000 0.43720  0.21870  0.89413  Biso   1.000  N
  C1       1.0000 0.43110  0.67839  0.41766  Biso   1.000  C
  C2       1.0000 0.06890  0.17839  0.08234  Biso   1.000  C
  C3       1.0000 0.56890  0.32161  0.58234  Biso   1.000  C
  C4       1.0000 0.93110  0.82161  0.91766  Biso   1.000  C
  O9       1.0000 0.97600  0.22469  0.33624  Biso   1.000  O
  O10      1.0000 0.52400  0.72469  0.16376  Biso   1.000  O
  O11      1.0000 0.02400  0.77531  0.66376  Biso   1.000  O
  O12      1.0000 0.47600  0.27531  0.83624  Biso   1.000  O
  C5       1.0000 0.24530  0.72220  0.39026  Biso   1.000  C
  C6       1.0000 0.25470  0.22220  0.10974  Biso   1.000  C
  C7       1.0000 0.75470  0.27780  0.60974  Biso   1.000  C
  C8       1.0000 0.74530  0.77780  0.89026  Biso   1.000  C
  C9       1.0000 0.70280  0.58811  0.38770  Biso   1.000  C
  C10      1.0000 0.79720  0.08811  0.11230  Biso   1.000  C
  C11      1.0000 0.29720  0.41189  0.61230  Biso   1.000  C
  C12      1.0000 0.20280  0.91189  0.88770  Biso   1.000  C
  H1       1.0000 0.77381  0.56121  0.34964  Biso   1.000  H
  H2       1.0000 0.72619  0.06121  0.15036  Biso   1.000  H
  H3       1.0000 0.22619  0.43879  0.65036  Biso   1.000  H
  H4       1.0000 0.27381  0.93879  0.84964  Biso   1.000  H
  C13      1.0000 0.54000  0.63868  0.36174  Biso   1.000  C
  C14      1.0000 0.96000  0.13868  0.13826  Biso   1.000  C
  C15      1.0000 0.46000  0.36132  0.63826  Biso   1.000  C
  C16      1.0000 0.04000  0.86132  0.86174  Biso   1.000  C
  H5       1.0000 0.50270  0.64631  0.30715  Biso   1.000  H
  H6       1.0000 0.99730  0.14631  0.19285  Biso   1.000  H
  H7       1.0000 0.49730  0.35369  0.69285  Biso   1.000  H
  H8       1.0000 0.00270  0.85369  0.80715  Biso   1.000  H
  C17      1.0000 0.65930  0.61552  0.51941  Biso   1.000  C
  C18      1.0000 0.84070  0.11552  0.98059  Biso   1.000  C
  C19      1.0000 0.34070  0.38448  0.48059  Biso   1.000  C
  C20      1.0000 0.15930  0.88448  0.01941  Biso   1.000  C
  H9       1.0000 0.70015  0.60849  0.57369  Biso   1.000  H
  H10      1.0000 0.79985  0.10849  0.92631  Biso   1.000  H
  H11      1.0000 0.29985  0.39151  0.42631  Biso   1.000  H
  H12      1.0000 0.20015  0.89151  0.07369  Biso   1.000  H
  C21      1.0000 0.49450  0.66610  0.49785  Biso   1.000  C
  C22      1.0000 0.00550  0.16610  0.00215  Biso   1.000  C
  C23      1.0000 0.50550  0.33390  0.50215  Biso   1.000  C
  C24      1.0000 0.99450  0.83390  0.99785  Biso   1.000  C
  H13      1.0000 0.42576  0.69201  0.53706  Biso   1.000  H
  H14      1.0000 0.07424  0.19201  0.96294  Biso   1.000  H
  H15      1.0000 0.57424  0.30799  0.46294  Biso   1.000  H
  H16      1.0000 0.92576  0.80799  0.03706  Biso   1.000  H
  C25      1.0000 0.37120  0.92919  0.37021  Biso   1.000  C
  C26      1.0000 0.12880  0.42919  0.12979  Biso   1.000  C
  C27      1.0000 0.62880  0.07081  0.62979  Biso   1.000  C
  C28      1.0000 0.87120  0.57081  0.87021  Biso   1.000  C
  H17      1.0000 0.47657  0.88723  0.39709  Biso   1.000  H
  H18      1.0000 0.02343  0.38723  0.10291  Biso   1.000  H
  H19      1.0000 0.52343  0.11277  0.60291  Biso   1.000  H
  H20      1.0000 0.97657  0.61277  0.89709  Biso   1.000  H
  C29      1.0000 0.04590  0.88440  0.32802  Biso   1.000  C
  C30      1.0000 0.45410  0.38440  0.17198  Biso   1.000  C
  C31      1.0000 0.95410  0.11560  0.67198  Biso   1.000  C
  C32      1.0000 0.54590  0.61560  0.82802  Biso   1.000  C
  H21      1.0000 0.06367  0.96952  0.31059  Biso   1.000  H
  H22      1.0000 0.43633  0.46952  0.18941  Biso   1.000  H
  H23      1.0000 0.93633  0.03048  0.68941  Biso   1.000  H
  H24      1.0000 0.56367  0.53048  0.81059  Biso   1.000  H
  O13      1.0000 0.86080  0.23170  0.44326  Biso   1.000  O
  O14      1.0000 0.63920  0.73170  0.05674  Biso   1.000  O
  O15      1.0000 0.13920  0.76830  0.55674  Biso   1.000  O
  O16      1.0000 0.36080  0.26830  0.94326  Biso   1.000  O
  C33      1.0000 0.91480  0.89140  0.38949  Biso   1.000  C
  C34      1.0000 0.58520  0.39140  0.11051  Biso   1.000  C
  C35      1.0000 0.08520  0.10860  0.61051  Biso   1.000  C
  C36      1.0000 0.41480  0.60860  0.88949  Biso   1.000  C
  H25      1.0000 0.80254  0.92131  0.36418  Biso   1.000  H
  H26      1.0000 0.69746  0.42131  0.13582  Biso   1.000  H
  H27      1.0000 0.19746  0.07869  0.63582  Biso   1.000  H
  H28      1.0000 0.30254  0.57869  0.86418  Biso   1.000  H
  H29      1.0000 0.89935  0.81061  0.41134  Biso   1.000  H
  H30      1.0000 0.60065  0.31061  0.08866  Biso   1.000  H
  H31      1.0000 0.10065  0.18939  0.58866  Biso   1.000  H
  H32      1.0000 0.39935  0.68939  0.91134  Biso   1.000  H
  H33      1.0000 0.95944  0.94690  0.43183  Biso   1.000  H
  H34      1.0000 0.54056  0.44690  0.06817  Biso   1.000  H
  H35      1.0000 0.04056  0.05310  0.56817  Biso   1.000  H
  H36      1.0000 0.45944  0.55310  0.93183  Biso   1.000  H
  C37      1.0000 0.33210  0.03830  0.42252  Biso   1.000  C
  C38      1.0000 0.16790  0.53830  0.07748  Biso   1.000  C
  C39      1.0000 0.66790  0.96170  0.57748  Biso   1.000  C
  C40      1.0000 0.83210  0.46170  0.92252  Biso   1.000  C
  H37      1.0000 0.42966  0.09547  0.42607  Biso   1.000  H
  H38      1.0000 0.07034  0.59547  0.07393  Biso   1.000  H
  H39      1.0000 0.57034  0.90453  0.57393  Biso   1.000  H
  H40      1.0000 0.92966  0.40453  0.92607  Biso   1.000  H
  H41      1.0000 0.22568  0.07899  0.39930  Biso   1.000  H
  H42      1.0000 0.27432  0.57899  0.10070  Biso   1.000  H
  H43      1.0000 0.77432  0.92101  0.60070  Biso   1.000  H
  H44      1.0000 0.72568  0.42101  0.89930  Biso   1.000  H
  H45      1.0000 0.31639  0.00918  0.47524  Biso   1.000  H
  H46      1.0000 0.18361  0.50918  0.02476  Biso   1.000  H
  H47      1.0000 0.68361  0.99082  0.52476  Biso   1.000  H
  H48      1.0000 0.81639  0.49082  0.97524  Biso   1.000  H
  C41      1.0000 0.97780  0.81270  0.25355  Biso   1.000  C
  C42      1.0000 0.52220  0.31270  0.24645  Biso   1.000  C
  C43      1.0000 0.02220  0.18730  0.74645  Biso   1.000  C
  C44      1.0000 0.47780  0.68730  0.75355  Biso   1.000  C
  H49      1.0000 0.86339  0.84400  0.23212  Biso   1.000  H
  H50      1.0000 0.63661  0.34400  0.26788  Biso   1.000  H
  H51      1.0000 0.13661  0.15600  0.76788  Biso   1.000  H
  H52      1.0000 0.36339  0.65600  0.73212  Biso   1.000  H
  H53      1.0000 0.05923  0.82158  0.21430  Biso   1.000  H
  H54      1.0000 0.44077  0.32158  0.28570  Biso   1.000  H
  H55      1.0000 0.94077  0.17842  0.78570  Biso   1.000  H
  H56      1.0000 0.55923  0.67842  0.71430  Biso   1.000  H
  H57      1.0000 0.96752  0.72676  0.26683  Biso   1.000  H
  H58      1.0000 0.53248  0.22676  0.23317  Biso   1.000  H
  H59      1.0000 0.03248  0.27324  0.73317  Biso   1.000  H
  H60      1.0000 0.46752  0.77324  0.76683  Biso   1.000  H
  C45      1.0000 0.41480  0.96960  0.28867  Biso   1.000  C
  C46      1.0000 0.08520  0.46960  0.21133  Biso   1.000  C
  C47      1.0000 0.58520  0.03040  0.71133  Biso   1.000  C
  C48      1.0000 0.91480  0.53040  0.78867  Biso   1.000  C
  H61      1.0000 0.51075  0.02814  0.29510  Biso   1.000  H
  H62      1.0000 0.98925  0.52814  0.20490  Biso   1.000  H
  H63      1.0000 0.48925  0.97186  0.70490  Biso   1.000  H
  H64      1.0000 0.01075  0.47186  0.79510  Biso   1.000  H
  H65      1.0000 0.44924  0.89890  0.25956  Biso   1.000  H
  H66      1.0000 0.05076  0.39890  0.24044  Biso   1.000  H
  H67      1.0000 0.55076  0.10110  0.74044  Biso   1.000  H
  H68      1.0000 0.94924  0.60110  0.75956  Biso   1.000  H
  H69      1.0000 0.31212  0.00750  0.25954  Biso   1.000  H
  H70      1.0000 0.18788  0.50750  0.24046  Biso   1.000  H
  H71      1.0000 0.68788  0.99250  0.74046  Biso   1.000  H
  H72      1.0000 0.81212  0.49250  0.75954  Biso   1.000  H
