data_image0
_cell_length_a       6.296
_cell_length_b       6.8703
_cell_length_c       22.9826
_cell_angle_alpha    90
_cell_angle_beta     90
_cell_angle_gamma    90

_symmetry_space_group_name_H-M    "P 1"
_symmetry_int_tables_number       1

loop_
  _symmetry_equiv_pos_as_xyz
  'x, y, z'

loop_
  _atom_site_label
  _atom_site_occupancy
  _atom_site_fract_x
  _atom_site_fract_y
  _atom_site_fract_z
  _atom_site_thermal_displace_type
  _atom_site_B_iso_or_equiv
  _atom_site_type_symbol
  C1       1.0000 0.75000  0.00000  0.10560  Biso   1.000  C
  C2       1.0000 0.25000  0.50000  0.39440  Biso   1.000  C
  C3       1.0000 0.25000  0.00000  0.89440  Biso   1.000  C
  C4       1.0000 0.75000  0.50000  0.60560  Biso   1.000  C
  C5       1.0000 0.75000  0.00000  0.16820  Biso   1.000  C
  C6       1.0000 0.25000  0.50000  0.33180  Biso   1.000  C
  C7       1.0000 0.25000  0.00000  0.83180  Biso   1.000  C
  C8       1.0000 0.75000  0.50000  0.66820  Biso   1.000  C
  C9       1.0000 0.92470  0.93140  0.26140  Biso   1.000  C
  C10      1.0000 0.57530  0.06860  0.26140  Biso   1.000  C
  C11      1.0000 0.42470  0.56860  0.23860  Biso   1.000  C
  C12      1.0000 0.07530  0.43140  0.23860  Biso   1.000  C
  C13      1.0000 0.07530  0.06860  0.73860  Biso   1.000  C
  C14      1.0000 0.42470  0.93140  0.73860  Biso   1.000  C
  C15      1.0000 0.57530  0.43140  0.76140  Biso   1.000  C
  C16      1.0000 0.92470  0.56860  0.76140  Biso   1.000  C
  C17      1.0000 0.92650  0.94080  0.20180  Biso   1.000  C
  C18      1.0000 0.57350  0.05920  0.20180  Biso   1.000  C
  C19      1.0000 0.42650  0.55920  0.29820  Biso   1.000  C
  C20      1.0000 0.07350  0.44080  0.29820  Biso   1.000  C
  C21      1.0000 0.07350  0.05920  0.79820  Biso   1.000  C
  C22      1.0000 0.42650  0.94080  0.79820  Biso   1.000  C
  C23      1.0000 0.57350  0.44080  0.70180  Biso   1.000  C
  C24      1.0000 0.92650  0.55920  0.70180  Biso   1.000  C
  C25      1.0000 0.75000  0.00000  0.28940  Biso   1.000  C
  C26      1.0000 0.25000  0.50000  0.21060  Biso   1.000  C
  C27      1.0000 0.25000  0.00000  0.71060  Biso   1.000  C
  C28      1.0000 0.75000  0.50000  0.78940  Biso   1.000  C
  C29      1.0000 0.75000  0.00000  0.35820  Biso   1.000  C
  C30      1.0000 0.25000  0.50000  0.14180  Biso   1.000  C
  C31      1.0000 0.25000  0.00000  0.64180  Biso   1.000  C
  C32      1.0000 0.75000  0.50000  0.85820  Biso   1.000  C
  O1       1.0000 0.89470  0.90300  0.38310  Biso   1.000  O
  O2       1.0000 0.60530  0.09700  0.38310  Biso   1.000  O
  O3       1.0000 0.39470  0.59700  0.11690  Biso   1.000  O
  O4       1.0000 0.10530  0.40300  0.11690  Biso   1.000  O
  O5       1.0000 0.10530  0.09700  0.61690  Biso   1.000  O
  O6       1.0000 0.39470  0.90300  0.61690  Biso   1.000  O
  O7       1.0000 0.60530  0.40300  0.88310  Biso   1.000  O
  O8       1.0000 0.89470  0.59700  0.88310  Biso   1.000  O
  H1       1.0000 0.04800  0.89300  0.18400  Biso   1.000  H
  H2       1.0000 0.45200  0.10700  0.18400  Biso   1.000  H
  H3       1.0000 0.54800  0.60700  0.31600  Biso   1.000  H
  H4       1.0000 0.95200  0.39300  0.31600  Biso   1.000  H
  H5       1.0000 0.95200  0.10700  0.81600  Biso   1.000  H
  H6       1.0000 0.54800  0.89300  0.81600  Biso   1.000  H
  H7       1.0000 0.45200  0.39300  0.68400  Biso   1.000  H
  H8       1.0000 0.04800  0.60700  0.68400  Biso   1.000  H
  H9       1.0000 0.06700  0.88000  0.27700  Biso   1.000  H
  H10      1.0000 0.43300  0.12000  0.27700  Biso   1.000  H
  H11      1.0000 0.56700  0.62000  0.22300  Biso   1.000  H
  H12      1.0000 0.93300  0.38000  0.22300  Biso   1.000  H
  H13      1.0000 0.93300  0.12000  0.72300  Biso   1.000  H
  H14      1.0000 0.56700  0.88000  0.72300  Biso   1.000  H
  H15      1.0000 0.43300  0.38000  0.77700  Biso   1.000  H
  H16      1.0000 0.06700  0.62000  0.77700  Biso   1.000  H
  H17      1.0000 0.20100  0.29700  0.99400  Biso   1.000  H
  H18      1.0000 0.29900  0.70300  0.99400  Biso   1.000  H
  H19      1.0000 0.70100  0.20300  0.50600  Biso   1.000  H
  H20      1.0000 0.79900  0.79700  0.50600  Biso   1.000  H
  H21      1.0000 0.79900  0.70300  0.00600  Biso   1.000  H
  H22      1.0000 0.70100  0.29700  0.00600  Biso   1.000  H
  H23      1.0000 0.29900  0.79700  0.49400  Biso   1.000  H
  H24      1.0000 0.20100  0.20300  0.49400  Biso   1.000  H
  H25      1.0000 0.17500  0.23800  0.04600  Biso   1.000  H
  H26      1.0000 0.32500  0.76200  0.04600  Biso   1.000  H
  H27      1.0000 0.67500  0.26200  0.45400  Biso   1.000  H
  H28      1.0000 0.82500  0.73800  0.45400  Biso   1.000  H
  H29      1.0000 0.82500  0.76200  0.95400  Biso   1.000  H
  H30      1.0000 0.67500  0.23800  0.95400  Biso   1.000  H
  H31      1.0000 0.32500  0.73800  0.54600  Biso   1.000  H
  H32      1.0000 0.17500  0.26200  0.54600  Biso   1.000  H
  Cu1      1.0000 0.00000  0.00000  0.00000  Biso   1.000  Cu
  Cu2      1.0000 0.50000  0.00000  0.00000  Biso   1.000  Cu
  Cu3      1.0000 0.50000  0.50000  0.50000  Biso   1.000  Cu
  Cu4      1.0000 0.00000  0.50000  0.50000  Biso   1.000  Cu
  O9       1.0000 0.93310  0.97340  0.08110  Biso   1.000  O
  O10      1.0000 0.56690  0.02660  0.08110  Biso   1.000  O
  O11      1.0000 0.43310  0.52660  0.41890  Biso   1.000  O
  O12      1.0000 0.06690  0.47340  0.41890  Biso   1.000  O
  O13      1.0000 0.06690  0.02660  0.91890  Biso   1.000  O
  O14      1.0000 0.43310  0.97340  0.91890  Biso   1.000  O
  O15      1.0000 0.56690  0.47340  0.58110  Biso   1.000  O
  O16      1.0000 0.93310  0.52660  0.58110  Biso   1.000  O
  O17      1.0000 0.19690  0.21840  0.01980  Biso   1.000  O
  O18      1.0000 0.30310  0.78160  0.01980  Biso   1.000  O
  O19      1.0000 0.69690  0.28160  0.48020  Biso   1.000  O
  O20      1.0000 0.80310  0.71840  0.48020  Biso   1.000  O
  O21      1.0000 0.80310  0.78160  0.98020  Biso   1.000  O
  O22      1.0000 0.69690  0.21840  0.98020  Biso   1.000  O
  O23      1.0000 0.30310  0.71840  0.51980  Biso   1.000  O
  O24      1.0000 0.19690  0.28160  0.51980  Biso   1.000  O
