data_image0
_cell_length_a       15.036
_cell_length_b       14.407
_cell_length_c       12.944
_cell_angle_alpha    90
_cell_angle_beta     101.948
_cell_angle_gamma    90

_symmetry_space_group_name_H-M    "P 1"
_symmetry_int_tables_number       1

loop_
  _symmetry_equiv_pos_as_xyz
  'x, y, z'

loop_
  _atom_site_label
  _atom_site_occupancy
  _atom_site_fract_x
  _atom_site_fract_y
  _atom_site_fract_z
  _atom_site_thermal_displace_type
  _atom_site_B_iso_or_equiv
  _atom_site_type_symbol
  Cu1      1.0000 0.51969  0.11258  0.40924  Biso   1.000  Cu
  Cu2      1.0000 0.48031  0.11258  0.09076  Biso   1.000  Cu
  Cu3      1.0000 0.01969  0.61258  0.40924  Biso   1.000  Cu
  Cu4      1.0000 0.98031  0.61258  0.09076  Biso   1.000  Cu
  Cu5      1.0000 0.48031  0.88742  0.59076  Biso   1.000  Cu
  Cu6      1.0000 0.51969  0.88742  0.90924  Biso   1.000  Cu
  Cu7      1.0000 0.98031  0.38742  0.59076  Biso   1.000  Cu
  Cu8      1.0000 0.01969  0.38742  0.90924  Biso   1.000  Cu
  N1       1.0000 0.45360  0.11390  0.52610  Biso   1.000  N
  N2       1.0000 0.54640  0.11390  0.97390  Biso   1.000  N
  N3       1.0000 0.95360  0.61390  0.52610  Biso   1.000  N
  N4       1.0000 0.04640  0.61390  0.97390  Biso   1.000  N
  N5       1.0000 0.54640  0.88610  0.47390  Biso   1.000  N
  N6       1.0000 0.45360  0.88610  0.02610  Biso   1.000  N
  N7       1.0000 0.04640  0.38610  0.47390  Biso   1.000  N
  N8       1.0000 0.95360  0.38610  0.02610  Biso   1.000  N
  N9       1.0000 0.44340  0.04470  0.59230  Biso   1.000  N
  N10      1.0000 0.55660  0.04470  0.90770  Biso   1.000  N
  N11      1.0000 0.94340  0.54470  0.59230  Biso   1.000  N
  N12      1.0000 0.05660  0.54470  0.90770  Biso   1.000  N
  N13      1.0000 0.55660  0.95530  0.40770  Biso   1.000  N
  N14      1.0000 0.44340  0.95530  0.09230  Biso   1.000  N
  N15      1.0000 0.05660  0.45530  0.40770  Biso   1.000  N
  N16      1.0000 0.94340  0.45530  0.09230  Biso   1.000  N
  N17      1.0000 0.39620  0.07640  0.65970  Biso   1.000  N
  N18      1.0000 0.60380  0.07640  0.84030  Biso   1.000  N
  N19      1.0000 0.89620  0.57640  0.65970  Biso   1.000  N
  N20      1.0000 0.10380  0.57640  0.84030  Biso   1.000  N
  N21      1.0000 0.60380  0.92360  0.34030  Biso   1.000  N
  N22      1.0000 0.39620  0.92360  0.15970  Biso   1.000  N
  N23      1.0000 0.10380  0.42360  0.34030  Biso   1.000  N
  N24      1.0000 0.89620  0.42360  0.15970  Biso   1.000  N
  N25      1.0000 0.37450  0.16650  0.63830  Biso   1.000  N
  N26      1.0000 0.62550  0.16650  0.86170  Biso   1.000  N
  N27      1.0000 0.87450  0.66650  0.63830  Biso   1.000  N
  N28      1.0000 0.12550  0.66650  0.86170  Biso   1.000  N
  N29      1.0000 0.62550  0.83350  0.36170  Biso   1.000  N
  N30      1.0000 0.37450  0.83350  0.13830  Biso   1.000  N
  N31      1.0000 0.12550  0.33350  0.36170  Biso   1.000  N
  N32      1.0000 0.87450  0.33350  0.13830  Biso   1.000  N
  C1       1.0000 0.46350  0.37140  0.38990  Biso   1.000  C
  C2       1.0000 0.53650  0.37140  0.11010  Biso   1.000  C
  C3       1.0000 0.96350  0.87140  0.38990  Biso   1.000  C
  C4       1.0000 0.03650  0.87140  0.11010  Biso   1.000  C
  C5       1.0000 0.53650  0.62860  0.61010  Biso   1.000  C
  C6       1.0000 0.46350  0.62860  0.88990  Biso   1.000  C
  C7       1.0000 0.03650  0.12860  0.61010  Biso   1.000  C
  C8       1.0000 0.96350  0.12860  0.88990  Biso   1.000  C
  H1       1.0000 0.50140  0.38150  0.34270  Biso   1.000  H
  H2       1.0000 0.49860  0.38150  0.15730  Biso   1.000  H
  H3       1.0000 0.00140  0.88150  0.34270  Biso   1.000  H
  H4       1.0000 0.99860  0.88150  0.15730  Biso   1.000  H
  H5       1.0000 0.49860  0.61850  0.65730  Biso   1.000  H
  H6       1.0000 0.50140  0.61850  0.84270  Biso   1.000  H
  H7       1.0000 0.99860  0.11850  0.65730  Biso   1.000  H
  H8       1.0000 0.00140  0.11850  0.84270  Biso   1.000  H
  C9       1.0000 0.34980  0.34910  0.52170  Biso   1.000  C
  C10      1.0000 0.65020  0.34910  0.97830  Biso   1.000  C
  C11      1.0000 0.84980  0.84910  0.52170  Biso   1.000  C
  C12      1.0000 0.15020  0.84910  0.97830  Biso   1.000  C
  C13      1.0000 0.65020  0.65090  0.47830  Biso   1.000  C
  C14      1.0000 0.34980  0.65090  0.02170  Biso   1.000  C
  C15      1.0000 0.15020  0.15090  0.47830  Biso   1.000  C
  C16      1.0000 0.84980  0.15090  0.02170  Biso   1.000  C
  H9       1.0000 0.31050  0.33840  0.56730  Biso   1.000  H
  H10      1.0000 0.68950  0.33840  0.93270  Biso   1.000  H
  H11      1.0000 0.81050  0.83840  0.56730  Biso   1.000  H
  H12      1.0000 0.18950  0.83840  0.93270  Biso   1.000  H
  H13      1.0000 0.68950  0.66160  0.43270  Biso   1.000  H
  H14      1.0000 0.31050  0.66160  0.06730  Biso   1.000  H
  H15      1.0000 0.18950  0.16160  0.43270  Biso   1.000  H
  H16      1.0000 0.81050  0.16160  0.06730  Biso   1.000  H
  N33      1.0000 0.60030  0.12590  0.30500  Biso   1.000  N
  N34      1.0000 0.39970  0.12590  0.19500  Biso   1.000  N
  N35      1.0000 0.10030  0.62590  0.30500  Biso   1.000  N
  N36      1.0000 0.89970  0.62590  0.19500  Biso   1.000  N
  N37      1.0000 0.39970  0.87410  0.69500  Biso   1.000  N
  N38      1.0000 0.60030  0.87410  0.80500  Biso   1.000  N
  N39      1.0000 0.89970  0.37410  0.69500  Biso   1.000  N
  N40      1.0000 0.10030  0.37410  0.80500  Biso   1.000  N
  N41      1.0000 0.59570  0.11580  0.20060  Biso   1.000  N
  N42      1.0000 0.40430  0.11580  0.29940  Biso   1.000  N
  N43      1.0000 0.09570  0.61580  0.20060  Biso   1.000  N
  N44      1.0000 0.90430  0.61580  0.29940  Biso   1.000  N
  N45      1.0000 0.40430  0.88420  0.79940  Biso   1.000  N
  N46      1.0000 0.59570  0.88420  0.70060  Biso   1.000  N
  N47      1.0000 0.90430  0.38420  0.79940  Biso   1.000  N
  N48      1.0000 0.09570  0.38420  0.70060  Biso   1.000  N
  N49      1.0000 0.67920  0.11230  0.18230  Biso   1.000  N
  N50      1.0000 0.32080  0.11230  0.31770  Biso   1.000  N
  N51      1.0000 0.17920  0.61230  0.18230  Biso   1.000  N
  N52      1.0000 0.82080  0.61230  0.31770  Biso   1.000  N
  N53      1.0000 0.32080  0.88770  0.81770  Biso   1.000  N
  N54      1.0000 0.67920  0.88770  0.68230  Biso   1.000  N
  N55      1.0000 0.82080  0.38770  0.81770  Biso   1.000  N
  N56      1.0000 0.17920  0.38770  0.68230  Biso   1.000  N
  N57      1.0000 0.73860  0.11850  0.27540  Biso   1.000  N
  N58      1.0000 0.26140  0.11850  0.22460  Biso   1.000  N
  N59      1.0000 0.23860  0.61850  0.27540  Biso   1.000  N
  N60      1.0000 0.76140  0.61850  0.22460  Biso   1.000  N
  N61      1.0000 0.26140  0.88150  0.72460  Biso   1.000  N
  N62      1.0000 0.73860  0.88150  0.77540  Biso   1.000  N
  N63      1.0000 0.76140  0.38150  0.72460  Biso   1.000  N
  N64      1.0000 0.23860  0.38150  0.77540  Biso   1.000  N
  N65      1.0000 0.82330  0.14200  0.62730  Biso   1.000  N
  N66      1.0000 0.17670  0.14200  0.87270  Biso   1.000  N
  N67      1.0000 0.32330  0.64200  0.62730  Biso   1.000  N
  N68      1.0000 0.67670  0.64200  0.87270  Biso   1.000  N
  N69      1.0000 0.17670  0.85800  0.37270  Biso   1.000  N
  N70      1.0000 0.82330  0.85800  0.12730  Biso   1.000  N
  N71      1.0000 0.67670  0.35800  0.37270  Biso   1.000  N
  N72      1.0000 0.32330  0.35800  0.12730  Biso   1.000  N
  N73      1.0000 0.64440  0.12840  0.51130  Biso   1.000  N
  N74      1.0000 0.35560  0.12840  0.98870  Biso   1.000  N
  N75      1.0000 0.14440  0.62840  0.51130  Biso   1.000  N
  N76      1.0000 0.85560  0.62840  0.98870  Biso   1.000  N
  N77      1.0000 0.35560  0.87160  0.48870  Biso   1.000  N
  N78      1.0000 0.64440  0.87160  0.01130  Biso   1.000  N
  N79      1.0000 0.85560  0.37160  0.48870  Biso   1.000  N
  N80      1.0000 0.14440  0.37160  0.01130  Biso   1.000  N
  C17      1.0000 0.40780  0.27770  0.50350  Biso   1.000  C
  C18      1.0000 0.59220  0.27770  0.99650  Biso   1.000  C
  C19      1.0000 0.90780  0.77770  0.50350  Biso   1.000  C
  C20      1.0000 0.09220  0.77770  0.99650  Biso   1.000  C
  C21      1.0000 0.59220  0.72230  0.49650  Biso   1.000  C
  C22      1.0000 0.40780  0.72230  0.00350  Biso   1.000  C
  C23      1.0000 0.09220  0.22230  0.49650  Biso   1.000  C
  C24      1.0000 0.90780  0.22230  0.00350  Biso   1.000  C
  N81      1.0000 0.46470  0.28830  0.43710  Biso   1.000  N
  N82      1.0000 0.53530  0.28830  0.06290  Biso   1.000  N
  N83      1.0000 0.96470  0.78830  0.43710  Biso   1.000  N
  N84      1.0000 0.03530  0.78830  0.06290  Biso   1.000  N
  N85      1.0000 0.53530  0.71170  0.56290  Biso   1.000  N
  N86      1.0000 0.46470  0.71170  0.93710  Biso   1.000  N
  N87      1.0000 0.03530  0.21170  0.56290  Biso   1.000  N
  N88      1.0000 0.96470  0.21170  0.93710  Biso   1.000  N
  C25      1.0000 0.40710  0.44250  0.41000  Biso   1.000  C
  C26      1.0000 0.59290  0.44250  0.09000  Biso   1.000  C
  C27      1.0000 0.90710  0.94250  0.41000  Biso   1.000  C
  C28      1.0000 0.09290  0.94250  0.09000  Biso   1.000  C
  C29      1.0000 0.59290  0.55750  0.59000  Biso   1.000  C
  C30      1.0000 0.40710  0.55750  0.91000  Biso   1.000  C
  C31      1.0000 0.09290  0.05750  0.59000  Biso   1.000  C
  C32      1.0000 0.90710  0.05750  0.91000  Biso   1.000  C
  H17      1.0000 0.40960  0.49950  0.37690  Biso   1.000  H
  H18      1.0000 0.59040  0.49950  0.12310  Biso   1.000  H
  H19      1.0000 0.90960  0.99950  0.37690  Biso   1.000  H
  H20      1.0000 0.09040  0.99950  0.12310  Biso   1.000  H
  H21      1.0000 0.59040  0.50050  0.62310  Biso   1.000  H
  H22      1.0000 0.40960  0.50050  0.87690  Biso   1.000  H
  H23      1.0000 0.09040  0.00050  0.62310  Biso   1.000  H
  H24      1.0000 0.90960  0.00050  0.87690  Biso   1.000  H
  N89      1.0000 0.34910  0.43240  0.47550  Biso   1.000  N
  N90      1.0000 0.65090  0.43240  0.02450  Biso   1.000  N
  N91      1.0000 0.84910  0.93240  0.47550  Biso   1.000  N
  N92      1.0000 0.15090  0.93240  0.02450  Biso   1.000  N
  N93      1.0000 0.65090  0.56760  0.52450  Biso   1.000  N
  N94      1.0000 0.34910  0.56760  0.97550  Biso   1.000  N
  N95      1.0000 0.15090  0.06760  0.52450  Biso   1.000  N
  N96      1.0000 0.84910  0.06760  0.97550  Biso   1.000  N
  C33      1.0000 0.41050  0.18790  0.55610  Biso   1.000  C
  C34      1.0000 0.58950  0.18790  0.94390  Biso   1.000  C
  C35      1.0000 0.91050  0.68790  0.55610  Biso   1.000  C
  C36      1.0000 0.08950  0.68790  0.94390  Biso   1.000  C
  C37      1.0000 0.58950  0.81210  0.44390  Biso   1.000  C
  C38      1.0000 0.41050  0.81210  0.05610  Biso   1.000  C
  C39      1.0000 0.08950  0.31210  0.44390  Biso   1.000  C
  C40      1.0000 0.91050  0.31210  0.05610  Biso   1.000  C
  C41      1.0000 0.71610  0.13120  0.46240  Biso   1.000  C
  C42      1.0000 0.28390  0.13120  0.03760  Biso   1.000  C
  C43      1.0000 0.21610  0.63120  0.46240  Biso   1.000  C
  C44      1.0000 0.78390  0.63120  0.03760  Biso   1.000  C
  C45      1.0000 0.28390  0.86880  0.53760  Biso   1.000  C
  C46      1.0000 0.71610  0.86880  0.96240  Biso   1.000  C
  C47      1.0000 0.78390  0.36880  0.53760  Biso   1.000  C
  C48      1.0000 0.21610  0.36880  0.96240  Biso   1.000  C
  C49      1.0000 0.80380  0.13840  0.52040  Biso   1.000  C
  C50      1.0000 0.19620  0.13840  0.97960  Biso   1.000  C
  C51      1.0000 0.30380  0.63840  0.52040  Biso   1.000  C
  C52      1.0000 0.69620  0.63840  0.97960  Biso   1.000  C
  C53      1.0000 0.19620  0.86160  0.47960  Biso   1.000  C
  C54      1.0000 0.80380  0.86160  0.02040  Biso   1.000  C
  C55      1.0000 0.69620  0.36160  0.47960  Biso   1.000  C
  C56      1.0000 0.30380  0.36160  0.02040  Biso   1.000  C
  H25      1.0000 0.85140  0.14100  0.48470  Biso   1.000  H
  H26      1.0000 0.14860  0.14100  0.01530  Biso   1.000  H
  H27      1.0000 0.35140  0.64100  0.48470  Biso   1.000  H
  H28      1.0000 0.64860  0.64100  0.01530  Biso   1.000  H
  H29      1.0000 0.14860  0.85900  0.51530  Biso   1.000  H
  H30      1.0000 0.85140  0.85900  0.98470  Biso   1.000  H
  H31      1.0000 0.64860  0.35900  0.51530  Biso   1.000  H
  H32      1.0000 0.35140  0.35900  0.98470  Biso   1.000  H
  C57      1.0000 0.75160  0.13740  0.67260  Biso   1.000  C
  C58      1.0000 0.24840  0.13740  0.82740  Biso   1.000  C
  C59      1.0000 0.25160  0.63740  0.67260  Biso   1.000  C
  C60      1.0000 0.74840  0.63740  0.82740  Biso   1.000  C
  C61      1.0000 0.24840  0.86260  0.32740  Biso   1.000  C
  C62      1.0000 0.75160  0.86260  0.17260  Biso   1.000  C
  C63      1.0000 0.74840  0.36260  0.32740  Biso   1.000  C
  C64      1.0000 0.25160  0.36260  0.17260  Biso   1.000  C
  H33      1.0000 0.76180  0.13870  0.74590  Biso   1.000  H
  H34      1.0000 0.23820  0.13870  0.75410  Biso   1.000  H
  H35      1.0000 0.26180  0.63870  0.74590  Biso   1.000  H
  H36      1.0000 0.73820  0.63870  0.75410  Biso   1.000  H
  H37      1.0000 0.23820  0.86130  0.25410  Biso   1.000  H
  H38      1.0000 0.76180  0.86130  0.24590  Biso   1.000  H
  H39      1.0000 0.73820  0.36130  0.25410  Biso   1.000  H
  H40      1.0000 0.26180  0.36130  0.24590  Biso   1.000  H
  C65      1.0000 0.66250  0.13070  0.61680  Biso   1.000  C
  C66      1.0000 0.33750  0.13070  0.88320  Biso   1.000  C
  C67      1.0000 0.16250  0.63070  0.61680  Biso   1.000  C
  C68      1.0000 0.83750  0.63070  0.88320  Biso   1.000  C
  C69      1.0000 0.33750  0.86930  0.38320  Biso   1.000  C
  C70      1.0000 0.66250  0.86930  0.11680  Biso   1.000  C
  C71      1.0000 0.83750  0.36930  0.38320  Biso   1.000  C
  C72      1.0000 0.16250  0.36930  0.11680  Biso   1.000  C
  H41      1.0000 0.61510  0.12770  0.65290  Biso   1.000  H
  H42      1.0000 0.38490  0.12770  0.84710  Biso   1.000  H
  H43      1.0000 0.11510  0.62770  0.65290  Biso   1.000  H
  H44      1.0000 0.88490  0.62770  0.84710  Biso   1.000  H
  H45      1.0000 0.38490  0.87230  0.34710  Biso   1.000  H
  H46      1.0000 0.61510  0.87230  0.15290  Biso   1.000  H
  H47      1.0000 0.88490  0.37230  0.34710  Biso   1.000  H
  H48      1.0000 0.11510  0.37230  0.15290  Biso   1.000  H
  C73      1.0000 0.68890  0.12630  0.34800  Biso   1.000  C
  C74      1.0000 0.31110  0.12630  0.15200  Biso   1.000  C
  C75      1.0000 0.18890  0.62630  0.34800  Biso   1.000  C
  C76      1.0000 0.81110  0.62630  0.15200  Biso   1.000  C
  C77      1.0000 0.31110  0.87370  0.65200  Biso   1.000  C
  C78      1.0000 0.68890  0.87370  0.84800  Biso   1.000  C
  C79      1.0000 0.81110  0.37370  0.65200  Biso   1.000  C
  C80      1.0000 0.18890  0.37370  0.84800  Biso   1.000  C
  O1       1.0000 0.06910  0.16620  0.18810  Biso   1.000  O
  O2       1.0000 0.93090  0.16620  0.31190  Biso   1.000  O
  O3       1.0000 0.56910  0.66620  0.18810  Biso   1.000  O
  O4       1.0000 0.43090  0.66620  0.31190  Biso   1.000  O
  O5       1.0000 0.93090  0.83380  0.81190  Biso   1.000  O
  O6       1.0000 0.06910  0.83380  0.68810  Biso   1.000  O
  O7       1.0000 0.43090  0.33380  0.81190  Biso   1.000  O
  O8       1.0000 0.56910  0.33380  0.68810  Biso   1.000  O
  H49      1.0000 0.13000  0.14500  0.20100  Biso   1.000  H
  H50      1.0000 0.87000  0.14500  0.29900  Biso   1.000  H
  H51      1.0000 0.63000  0.64500  0.20100  Biso   1.000  H
  H52      1.0000 0.37000  0.64500  0.29900  Biso   1.000  H
  H53      1.0000 0.87000  0.85500  0.79900  Biso   1.000  H
  H54      1.0000 0.13000  0.85500  0.70100  Biso   1.000  H
  H55      1.0000 0.37000  0.35500  0.79900  Biso   1.000  H
  H56      1.0000 0.63000  0.35500  0.70100  Biso   1.000  H
  H57      1.0000 0.07700  0.20600  0.23700  Biso   1.000  H
  H58      1.0000 0.92300  0.20600  0.26300  Biso   1.000  H
  H59      1.0000 0.57700  0.70600  0.23700  Biso   1.000  H
  H60      1.0000 0.42300  0.70600  0.26300  Biso   1.000  H
  H61      1.0000 0.92300  0.79400  0.76300  Biso   1.000  H
  H62      1.0000 0.07700  0.79400  0.73700  Biso   1.000  H
  H63      1.0000 0.42300  0.29400  0.76300  Biso   1.000  H
  H64      1.0000 0.57700  0.29400  0.73700  Biso   1.000  H
