data_image0
_cell_length_a       16.0209
_cell_length_b       9.3823
_cell_length_c       16.6801
_cell_angle_alpha    90
_cell_angle_beta     99.563
_cell_angle_gamma    90

_symmetry_space_group_name_H-M    "P 1"
_symmetry_int_tables_number       1

loop_
  _symmetry_equiv_pos_as_xyz
  'x, y, z'

loop_
  _atom_site_label
  _atom_site_occupancy
  _atom_site_fract_x
  _atom_site_fract_y
  _atom_site_fract_z
  _atom_site_thermal_displace_type
  _atom_site_B_iso_or_equiv
  _atom_site_type_symbol
  C1       1.0000 0.18324  0.07740  0.01355  Biso   1.000  C
  C2       1.0000 0.31676  0.57740  0.48645  Biso   1.000  C
  C3       1.0000 0.81676  0.92260  0.98645  Biso   1.000  C
  C4       1.0000 0.68324  0.42260  0.51355  Biso   1.000  C
  C5       1.0000 0.24690  0.17500  0.98602  Biso   1.000  C
  C6       1.0000 0.25310  0.67500  0.51398  Biso   1.000  C
  C7       1.0000 0.75310  0.82500  0.01398  Biso   1.000  C
  C8       1.0000 0.74690  0.32500  0.48602  Biso   1.000  C
  C9       1.0000 0.33151  0.17160  0.02163  Biso   1.000  C
  C10      1.0000 0.16849  0.67160  0.47837  Biso   1.000  C
  C11      1.0000 0.66849  0.82840  0.97837  Biso   1.000  C
  C12      1.0000 0.83151  0.32840  0.52163  Biso   1.000  C
  H1       1.0000 0.34986  0.10411  0.06149  Biso   1.000  H
  H2       1.0000 0.15014  0.60411  0.43851  Biso   1.000  H
  H3       1.0000 0.65014  0.89589  0.93851  Biso   1.000  H
  H4       1.0000 0.84986  0.39589  0.56149  Biso   1.000  H
  C13      1.0000 0.38880  0.26680  0.99886  Biso   1.000  C
  C14      1.0000 0.11120  0.76680  0.50114  Biso   1.000  C
  C15      1.0000 0.61120  0.73320  0.00114  Biso   1.000  C
  C16      1.0000 0.88880  0.23320  0.49886  Biso   1.000  C
  H5       1.0000 0.44525  0.26416  0.02360  Biso   1.000  H
  H6       1.0000 0.05475  0.76416  0.47640  Biso   1.000  H
  H7       1.0000 0.55475  0.73584  0.97640  Biso   1.000  H
  H8       1.0000 0.94525  0.23584  0.52360  Biso   1.000  H
  C17      1.0000 0.36171  0.36620  0.93898  Biso   1.000  C
  C18      1.0000 0.13829  0.86620  0.56102  Biso   1.000  C
  C19      1.0000 0.63829  0.63380  0.06102  Biso   1.000  C
  C20      1.0000 0.86171  0.13380  0.43898  Biso   1.000  C
  C21      1.0000 0.27904  0.36790  0.90058  Biso   1.000  C
  C22      1.0000 0.22096  0.86790  0.59942  Biso   1.000  C
  C23      1.0000 0.72096  0.63210  0.09942  Biso   1.000  C
  C24      1.0000 0.77904  0.13210  0.40058  Biso   1.000  C
  H9       1.0000 0.26159  0.43215  0.85869  Biso   1.000  H
  H10      1.0000 0.23841  0.93215  0.64131  Biso   1.000  H
  H11      1.0000 0.73841  0.56785  0.14131  Biso   1.000  H
  H12      1.0000 0.76159  0.06785  0.35869  Biso   1.000  H
  C25      1.0000 0.22201  0.27330  0.92469  Biso   1.000  C
  C26      1.0000 0.27799  0.77330  0.57531  Biso   1.000  C
  C27      1.0000 0.77799  0.72670  0.07531  Biso   1.000  C
  C28      1.0000 0.72201  0.22670  0.42469  Biso   1.000  C
  H13      1.0000 0.16578  0.27560  0.89926  Biso   1.000  H
  H14      1.0000 0.33422  0.77560  0.60074  Biso   1.000  H
  H15      1.0000 0.83422  0.72440  0.10074  Biso   1.000  H
  H16      1.0000 0.66578  0.22440  0.39926  Biso   1.000  H
  C29      1.0000 0.39593  0.59310  0.88995  Biso   1.000  C
  C30      1.0000 0.10407  0.09310  0.61005  Biso   1.000  C
  C31      1.0000 0.60407  0.40690  0.11005  Biso   1.000  C
  C32      1.0000 0.89593  0.90690  0.38995  Biso   1.000  C
  C33      1.0000 0.36030  0.68540  0.93787  Biso   1.000  C
  C34      1.0000 0.13970  0.18540  0.56213  Biso   1.000  C
  C35      1.0000 0.63970  0.31460  0.06213  Biso   1.000  C
  C36      1.0000 0.86030  0.81460  0.43787  Biso   1.000  C
  H17      1.0000 0.35010  0.65609  0.98863  Biso   1.000  H
  H18      1.0000 0.14990  0.15609  0.51137  Biso   1.000  H
  H19      1.0000 0.64990  0.34391  0.01137  Biso   1.000  H
  H20      1.0000 0.85010  0.84391  0.48863  Biso   1.000  H
  C37      1.0000 0.33940  0.82180  0.91110  Biso   1.000  C
  C38      1.0000 0.16060  0.32180  0.58890  Biso   1.000  C
  C39      1.0000 0.66060  0.17820  0.08890  Biso   1.000  C
  C40      1.0000 0.83940  0.67820  0.41110  Biso   1.000  C
  H21      1.0000 0.31453  0.88429  0.94344  Biso   1.000  H
  H22      1.0000 0.18547  0.38429  0.55656  Biso   1.000  H
  H23      1.0000 0.68547  0.11571  0.05656  Biso   1.000  H
  H24      1.0000 0.81453  0.61571  0.44344  Biso   1.000  H
  C41      1.0000 0.35553  0.86480  0.83670  Biso   1.000  C
  C42      1.0000 0.14447  0.36480  0.66330  Biso   1.000  C
  C43      1.0000 0.64447  0.13520  0.16330  Biso   1.000  C
  C44      1.0000 0.85553  0.63520  0.33670  Biso   1.000  C
  C45      1.0000 0.39126  0.77280  0.78954  Biso   1.000  C
  C46      1.0000 0.10874  0.27280  0.71046  Biso   1.000  C
  C47      1.0000 0.60874  0.22720  0.21046  Biso   1.000  C
  C48      1.0000 0.89126  0.72720  0.28954  Biso   1.000  C
  H25      1.0000 0.40207  0.80244  0.73906  Biso   1.000  H
  H26      1.0000 0.09793  0.30244  0.76094  Biso   1.000  H
  H27      1.0000 0.59793  0.19756  0.26094  Biso   1.000  H
  H28      1.0000 0.90207  0.69756  0.23906  Biso   1.000  H
  C49      1.0000 0.41185  0.63480  0.81586  Biso   1.000  C
  C50      1.0000 0.08815  0.13480  0.68414  Biso   1.000  C
  C51      1.0000 0.58815  0.36520  0.18414  Biso   1.000  C
  C52      1.0000 0.91185  0.86520  0.31586  Biso   1.000  C
  H29      1.0000 0.43615  0.57184  0.78331  Biso   1.000  H
  H30      1.0000 0.06385  0.07184  0.71669  Biso   1.000  H
  H31      1.0000 0.56385  0.42816  0.21669  Biso   1.000  H
  H32      1.0000 0.93615  0.92816  0.28331  Biso   1.000  H
  C53      1.0000 0.39051  0.08960  0.78470  Biso   1.000  C
  C54      1.0000 0.10949  0.58960  0.71530  Biso   1.000  C
  C55      1.0000 0.60949  0.91040  0.21530  Biso   1.000  C
  C56      1.0000 0.89051  0.41040  0.28470  Biso   1.000  C
  C57      1.0000 0.47144  0.09640  0.82751  Biso   1.000  C
  C58      1.0000 0.02856  0.59640  0.67249  Biso   1.000  C
  C59      1.0000 0.52856  0.90360  0.17249  Biso   1.000  C
  C60      1.0000 0.97144  0.40360  0.32751  Biso   1.000  C
  H33      1.0000 0.48822  0.03561  0.87124  Biso   1.000  H
  H34      1.0000 0.01178  0.53561  0.62876  Biso   1.000  H
  H35      1.0000 0.51178  0.96439  0.12876  Biso   1.000  H
  H36      1.0000 0.98822  0.46439  0.37124  Biso   1.000  H
  C61      1.0000 0.52757  0.19420  0.80513  Biso   1.000  C
  C62      1.0000 0.97243  0.69420  0.69487  Biso   1.000  C
  C63      1.0000 0.47243  0.80580  0.19487  Biso   1.000  C
  C64      1.0000 0.02757  0.30580  0.30513  Biso   1.000  C
  H37      1.0000 0.58217  0.19943  0.83447  Biso   1.000  H
  H38      1.0000 0.91783  0.69943  0.66553  Biso   1.000  H
  H39      1.0000 0.41783  0.80057  0.16553  Biso   1.000  H
  H40      1.0000 0.08217  0.30057  0.33447  Biso   1.000  H
  C65      1.0000 0.50400  0.28510  0.73956  Biso   1.000  C
  C66      1.0000 0.99600  0.78510  0.76044  Biso   1.000  C
  C67      1.0000 0.49600  0.71490  0.26044  Biso   1.000  C
  C68      1.0000 0.00400  0.21490  0.23956  Biso   1.000  C
  C69      1.0000 0.42259  0.27430  0.69608  Biso   1.000  C
  C70      1.0000 0.07741  0.77430  0.80392  Biso   1.000  C
  C71      1.0000 0.57741  0.72570  0.30392  Biso   1.000  C
  C72      1.0000 0.92259  0.22570  0.19608  Biso   1.000  C
  H41      1.0000 0.40605  0.33240  0.65109  Biso   1.000  H
  H42      1.0000 0.09395  0.83240  0.84891  Biso   1.000  H
  H43      1.0000 0.59395  0.66760  0.34891  Biso   1.000  H
  H44      1.0000 0.90605  0.16760  0.15109  Biso   1.000  H
  C73      1.0000 0.36588  0.17780  0.71910  Biso   1.000  C
  C74      1.0000 0.13412  0.67780  0.78090  Biso   1.000  C
  C75      1.0000 0.63412  0.82220  0.28090  Biso   1.000  C
  C76      1.0000 0.86588  0.32220  0.21910  Biso   1.000  C
  H45      1.0000 0.31105  0.17247  0.69026  Biso   1.000  H
  H46      1.0000 0.18895  0.67247  0.80974  Biso   1.000  H
  H47      1.0000 0.68895  0.82753  0.30974  Biso   1.000  H
  H48      1.0000 0.81105  0.32753  0.19026  Biso   1.000  H
  C77      1.0000 0.56334  0.39790  0.71788  Biso   1.000  C
  C78      1.0000 0.93666  0.89790  0.78212  Biso   1.000  C
  C79      1.0000 0.43666  0.60210  0.28212  Biso   1.000  C
  C80      1.0000 0.06334  0.10210  0.21788  Biso   1.000  C
  C81      1.0000 0.01573  0.69160  0.01918  Biso   1.000  C
  C82      1.0000 0.48427  0.19160  0.48082  Biso   1.000  C
  C83      1.0000 0.98427  0.30840  0.98082  Biso   1.000  C
  C84      1.0000 0.51573  0.80840  0.51918  Biso   1.000  C
  H49      1.0000 0.04357  0.61469  0.99508  Biso   1.000  H
  H50      1.0000 0.45643  0.11469  0.50492  Biso   1.000  H
  H51      1.0000 0.95643  0.38531  0.00492  Biso   1.000  H
  H52      1.0000 0.54357  0.88531  0.49508  Biso   1.000  H
  H53      1.0000 0.95863  0.70106  0.98936  Biso   1.000  H
  H54      1.0000 0.54137  0.20106  0.51064  Biso   1.000  H
  H55      1.0000 0.04137  0.29894  0.01064  Biso   1.000  H
  H56      1.0000 0.45863  0.79894  0.48936  Biso   1.000  H
  C85      1.0000 0.01309  0.65880  0.10755  Biso   1.000  C
  C86      1.0000 0.48691  0.15880  0.39245  Biso   1.000  C
  C87      1.0000 0.98691  0.34120  0.89245  Biso   1.000  C
  C88      1.0000 0.51309  0.84120  0.60755  Biso   1.000  C
  H57      1.0000 0.97882  0.72910  0.12973  Biso   1.000  H
  H58      1.0000 0.52118  0.22910  0.37027  Biso   1.000  H
  H59      1.0000 0.02118  0.27090  0.87027  Biso   1.000  H
  H60      1.0000 0.47882  0.77090  0.62973  Biso   1.000  H
  H61      1.0000 0.98824  0.56557  0.11237  Biso   1.000  H
  H62      1.0000 0.51176  0.06557  0.38763  Biso   1.000  H
  H63      1.0000 0.01176  0.43443  0.88763  Biso   1.000  H
  H64      1.0000 0.48824  0.93443  0.61237  Biso   1.000  H
  C89      1.0000 0.20838  0.55090  0.07865  Biso   1.000  C
  C90      1.0000 0.29162  0.05090  0.42135  Biso   1.000  C
  C91      1.0000 0.79162  0.44910  0.92135  Biso   1.000  C
  C92      1.0000 0.70838  0.94910  0.57865  Biso   1.000  C
  H65      1.0000 0.24354  0.46683  0.07829  Biso   1.000  H
  H66      1.0000 0.25646  0.96683  0.42171  Biso   1.000  H
  H67      1.0000 0.75646  0.53317  0.92171  Biso   1.000  H
  H68      1.0000 0.74354  0.03317  0.57829  Biso   1.000  H
  H69      1.0000 0.17532  0.56182  0.02475  Biso   1.000  H
  H70      1.0000 0.32468  0.06182  0.47525  Biso   1.000  H
  H71      1.0000 0.82468  0.43818  0.97525  Biso   1.000  H
  H72      1.0000 0.67532  0.93818  0.52475  Biso   1.000  H
  C93      1.0000 0.14915  0.53050  0.13979  Biso   1.000  C
  C94      1.0000 0.35085  0.03050  0.36021  Biso   1.000  C
  C95      1.0000 0.85085  0.46950  0.86021  Biso   1.000  C
  C96      1.0000 0.64915  0.96950  0.63979  Biso   1.000  C
  H73      1.0000 0.10941  0.45487  0.12097  Biso   1.000  H
  H74      1.0000 0.39059  0.95487  0.37903  Biso   1.000  H
  H75      1.0000 0.89059  0.54513  0.87903  Biso   1.000  H
  H76      1.0000 0.60941  0.04513  0.62097  Biso   1.000  H
  H77      1.0000 0.18189  0.50072  0.19128  Biso   1.000  H
  H78      1.0000 0.31811  0.00072  0.30872  Biso   1.000  H
  H79      1.0000 0.81811  0.49928  0.80872  Biso   1.000  H
  H80      1.0000 0.68189  0.99928  0.69128  Biso   1.000  H
  C97      1.0000 0.19032  0.75370  0.27490  Biso   1.000  C
  C98      1.0000 0.30968  0.25370  0.22510  Biso   1.000  C
  C99      1.0000 0.80968  0.24630  0.72510  Biso   1.000  C
  C100     1.0000 0.69032  0.74630  0.77490  Biso   1.000  C
  H81      1.0000 0.19016  0.78774  0.32979  Biso   1.000  H
  H82      1.0000 0.30984  0.28774  0.17021  Biso   1.000  H
  H83      1.0000 0.80984  0.21226  0.67021  Biso   1.000  H
  H84      1.0000 0.69016  0.71226  0.82979  Biso   1.000  H
  H85      1.0000 0.23384  0.68135  0.27682  Biso   1.000  H
  H86      1.0000 0.26616  0.18135  0.22318  Biso   1.000  H
  H87      1.0000 0.76616  0.31865  0.72318  Biso   1.000  H
  H88      1.0000 0.73384  0.81865  0.77682  Biso   1.000  H
  C101     1.0000 0.10503  0.69090  0.24084  Biso   1.000  C
  C102     1.0000 0.39497  0.19090  0.25916  Biso   1.000  C
  C103     1.0000 0.89497  0.30910  0.75916  Biso   1.000  C
  C104     1.0000 0.60503  0.80910  0.74084  Biso   1.000  C
  H89      1.0000 0.09660  0.60310  0.26917  Biso   1.000  H
  H90      1.0000 0.40340  0.10310  0.23083  Biso   1.000  H
  H91      1.0000 0.90340  0.39690  0.73083  Biso   1.000  H
  H92      1.0000 0.59660  0.89690  0.76917  Biso   1.000  H
  H93      1.0000 0.06054  0.75703  0.24864  Biso   1.000  H
  H94      1.0000 0.43946  0.25703  0.25136  Biso   1.000  H
  H95      1.0000 0.93946  0.24297  0.75136  Biso   1.000  H
  H96      1.0000 0.56054  0.74297  0.74864  Biso   1.000  H
  N1       1.0000 0.10109  0.66180  0.15290  Biso   1.000  N
  N2       1.0000 0.39891  0.16180  0.34710  Biso   1.000  N
  N3       1.0000 0.89891  0.33820  0.84710  Biso   1.000  N
  N4       1.0000 0.60109  0.83820  0.65290  Biso   1.000  N
  O1       1.0000 0.54262  0.47290  0.65667  Biso   1.000  O
  O2       1.0000 0.95738  0.97290  0.84333  Biso   1.000  O
  O3       1.0000 0.45738  0.52710  0.34333  Biso   1.000  O
  O4       1.0000 0.04262  0.02710  0.15667  Biso   1.000  O
  O5       1.0000 0.63265  0.41400  0.76686  Biso   1.000  O
  O6       1.0000 0.86735  0.91400  0.73314  Biso   1.000  O
  O7       1.0000 0.36735  0.58600  0.23314  Biso   1.000  O
  O8       1.0000 0.13265  0.08600  0.26686  Biso   1.000  O
  O9       1.0000 0.21127  0.99101  0.06932  Biso   1.000  O
  O10      1.0000 0.28873  0.49101  0.43068  Biso   1.000  O
  O11      1.0000 0.78873  0.00899  0.93068  Biso   1.000  O
  O12      1.0000 0.71127  0.50899  0.56932  Biso   1.000  O
  O13      1.0000 0.10735  0.08938  0.98016  Biso   1.000  O
  O14      1.0000 0.39265  0.58938  0.51984  Biso   1.000  O
  O15      1.0000 0.89265  0.91062  0.01984  Biso   1.000  O
  O16      1.0000 0.60735  0.41062  0.48016  Biso   1.000  O
  O17      1.0000 0.06080  0.82053  0.01500  Biso   1.000  O
  O18      1.0000 0.43920  0.32053  0.48500  Biso   1.000  O
  O19      1.0000 0.93920  0.17947  0.98500  Biso   1.000  O
  O20      1.0000 0.56080  0.67947  0.51500  Biso   1.000  O
  O21      1.0000 0.26060  0.67170  0.09719  Biso   1.000  O
  O22      1.0000 0.23940  0.17170  0.40281  Biso   1.000  O
  O23      1.0000 0.73940  0.32830  0.90281  Biso   1.000  O
  O24      1.0000 0.76060  0.82830  0.59719  Biso   1.000  O
  O25      1.0000 0.20793  0.86973  0.22409  Biso   1.000  O
  O26      1.0000 0.29207  0.36973  0.27591  Biso   1.000  O
  O27      1.0000 0.79207  0.13027  0.77591  Biso   1.000  O
  O28      1.0000 0.70793  0.63027  0.72409  Biso   1.000  O
  O29      1.0000 0.42226  0.45680  0.91758  Biso   1.000  O
  O30      1.0000 0.07774  0.95680  0.58242  Biso   1.000  O
  O31      1.0000 0.57774  0.54320  0.08242  Biso   1.000  O
  O32      1.0000 0.92226  0.04320  0.41758  Biso   1.000  O
  O33      1.0000 0.32960  0.00020  0.80841  Biso   1.000  O
  O34      1.0000 0.17040  0.50020  0.69159  Biso   1.000  O
  O35      1.0000 0.67040  0.99980  0.19159  Biso   1.000  O
  O36      1.0000 0.82960  0.49980  0.30841  Biso   1.000  O
  Cu1      1.0000 0.00000  0.00000  0.00000  Biso   1.000  Cu
  Cu2      1.0000 0.50000  0.50000  0.50000  Biso   1.000  Cu
  Cu3      1.0000 0.14976  0.83934  0.10911  Biso   1.000  Cu
  Cu4      1.0000 0.35024  0.33934  0.39089  Biso   1.000  Cu
  Cu5      1.0000 0.85024  0.16066  0.89089  Biso   1.000  Cu
  Cu6      1.0000 0.64976  0.66066  0.60911  Biso   1.000  Cu
  H97      1.0000 0.17960  0.94800  0.23430  Biso   1.000  H
  H98      1.0000 0.32040  0.44800  0.26570  Biso   1.000  H
  H99      1.0000 0.82040  0.05200  0.76570  Biso   1.000  H
  H100     1.0000 0.67960  0.55200  0.73430  Biso   1.000  H
  H101     1.0000 0.29930  0.65300  0.14090  Biso   1.000  H
  H102     1.0000 0.20070  0.15300  0.35910  Biso   1.000  H
  H103     1.0000 0.70070  0.34700  0.85910  Biso   1.000  H
  H104     1.0000 0.79930  0.84700  0.64090  Biso   1.000  H
