data_image0
_cell_length_a       11.1485
_cell_length_b       10.8671
_cell_length_c       13.2125
_cell_angle_alpha    90
_cell_angle_beta     107.631
_cell_angle_gamma    90

_symmetry_space_group_name_H-M    "P 1"
_symmetry_int_tables_number       1

loop_
  _symmetry_equiv_pos_as_xyz
  'x, y, z'

loop_
  _atom_site_label
  _atom_site_occupancy
  _atom_site_fract_x
  _atom_site_fract_y
  _atom_site_fract_z
  _atom_site_thermal_displace_type
  _atom_site_B_iso_or_equiv
  _atom_site_type_symbol
  C1       1.0000 0.73010  0.42660  0.55330  Biso   1.000  C
  C2       1.0000 0.76990  0.92660  0.94670  Biso   1.000  C
  C3       1.0000 0.26990  0.57340  0.44670  Biso   1.000  C
  C4       1.0000 0.23010  0.07340  0.05330  Biso   1.000  C
  C5       1.0000 0.69420  0.32240  0.47650  Biso   1.000  C
  C6       1.0000 0.80580  0.82240  0.02350  Biso   1.000  C
  C7       1.0000 0.30580  0.67760  0.52350  Biso   1.000  C
  C8       1.0000 0.19420  0.17760  0.97650  Biso   1.000  C
  C9       1.0000 0.70600  0.33850  0.37450  Biso   1.000  C
  C10      1.0000 0.79400  0.83850  0.12550  Biso   1.000  C
  C11      1.0000 0.29400  0.66150  0.62550  Biso   1.000  C
  C12      1.0000 0.20600  0.16150  0.87450  Biso   1.000  C
  H1       1.0000 0.73827  0.41179  0.35725  Biso   1.000  H
  H2       1.0000 0.76173  0.91179  0.14275  Biso   1.000  H
  H3       1.0000 0.26173  0.58821  0.64275  Biso   1.000  H
  H4       1.0000 0.23827  0.08821  0.85725  Biso   1.000  H
  C13      1.0000 0.66990  0.24670  0.30000  Biso   1.000  C
  C14      1.0000 0.83010  0.74670  0.20000  Biso   1.000  C
  C15      1.0000 0.33010  0.75330  0.70000  Biso   1.000  C
  C16      1.0000 0.16990  0.25330  0.80000  Biso   1.000  C
  H5       1.0000 0.67884  0.25822  0.23293  Biso   1.000  H
  H6       1.0000 0.82116  0.75822  0.26707  Biso   1.000  H
  H7       1.0000 0.32116  0.74178  0.76707  Biso   1.000  H
  H8       1.0000 0.17884  0.24178  0.73293  Biso   1.000  H
  C17      1.0000 0.62020  0.13650  0.32340  Biso   1.000  C
  C18      1.0000 0.87980  0.63650  0.17660  Biso   1.000  C
  C19      1.0000 0.37980  0.86350  0.67660  Biso   1.000  C
  C20      1.0000 0.12020  0.36350  0.82340  Biso   1.000  C
  C21      1.0000 0.61200  0.11850  0.42580  Biso   1.000  C
  C22      1.0000 0.88800  0.61850  0.07420  Biso   1.000  C
  C23      1.0000 0.38800  0.88150  0.57420  Biso   1.000  C
  C24      1.0000 0.11200  0.38150  0.92580  Biso   1.000  C
  H9       1.0000 0.58191  0.04420  0.44328  Biso   1.000  H
  H10      1.0000 0.91809  0.54420  0.05672  Biso   1.000  H
  H11      1.0000 0.41809  0.95580  0.55672  Biso   1.000  H
  H12      1.0000 0.08191  0.45580  0.94328  Biso   1.000  H
  C25      1.0000 0.64840  0.21040  0.50160  Biso   1.000  C
  C26      1.0000 0.85160  0.71040  0.99840  Biso   1.000  C
  C27      1.0000 0.35160  0.78960  0.49840  Biso   1.000  C
  C28      1.0000 0.14840  0.28960  0.00160  Biso   1.000  C
  H13      1.0000 0.64241  0.19748  0.56951  Biso   1.000  H
  H14      1.0000 0.85759  0.69748  0.93049  Biso   1.000  H
  H15      1.0000 0.35759  0.80252  0.43049  Biso   1.000  H
  H16      1.0000 0.14241  0.30252  0.06951  Biso   1.000  H
  C29      1.0000 0.56740  0.04450  0.23730  Biso   1.000  C
  C30      1.0000 0.93260  0.54450  0.26270  Biso   1.000  C
  C31      1.0000 0.43260  0.95550  0.76270  Biso   1.000  C
  C32      1.0000 0.06740  0.45550  0.73730  Biso   1.000  C
  C33      1.0000 0.48950  0.72870  0.99780  Biso   1.000  C
  C34      1.0000 0.01050  0.22870  0.50220  Biso   1.000  C
  C35      1.0000 0.51050  0.27130  0.00220  Biso   1.000  C
  C36      1.0000 0.98950  0.77130  0.49780  Biso   1.000  C
  H17      1.0000 0.54085  0.66059  0.03423  Biso   1.000  H
  H18      1.0000 0.95915  0.16059  0.46577  Biso   1.000  H
  H19      1.0000 0.45915  0.33941  0.96577  Biso   1.000  H
  H20      1.0000 0.04085  0.83941  0.53423  Biso   1.000  H
  H21      1.0000 0.50892  0.74375  0.93208  Biso   1.000  H
  H22      1.0000 0.99108  0.24375  0.56792  Biso   1.000  H
  H23      1.0000 0.49108  0.25625  0.06792  Biso   1.000  H
  H24      1.0000 0.00892  0.75625  0.43208  Biso   1.000  H
  C37      1.0000 0.35140  0.69740  0.97410  Biso   1.000  C
  C38      1.0000 0.14860  0.19740  0.52590  Biso   1.000  C
  C39      1.0000 0.64860  0.30260  0.02590  Biso   1.000  C
  C40      1.0000 0.85140  0.80260  0.47410  Biso   1.000  C
  H25      1.0000 0.30029  0.75939  0.92783  Biso   1.000  H
  H26      1.0000 0.19971  0.25939  0.57217  Biso   1.000  H
  H27      1.0000 0.69971  0.24061  0.07217  Biso   1.000  H
  H28      1.0000 0.80029  0.74061  0.42783  Biso   1.000  H
  H29      1.0000 0.33397  0.61848  0.93838  Biso   1.000  H
  H30      1.0000 0.16603  0.11848  0.56162  Biso   1.000  H
  H31      1.0000 0.66603  0.38152  0.06162  Biso   1.000  H
  H32      1.0000 0.83397  0.88152  0.43838  Biso   1.000  H
  C41      1.0000 0.35620  0.57180  0.13140  Biso   1.000  C
  C42      1.0000 0.14380  0.07180  0.36860  Biso   1.000  C
  C43      1.0000 0.64380  0.42820  0.86860  Biso   1.000  C
  C44      1.0000 0.85620  0.92820  0.63140  Biso   1.000  C
  H33      1.0000 0.35894  0.51010  0.07906  Biso   1.000  H
  H34      1.0000 0.14106  0.01010  0.42094  Biso   1.000  H
  H35      1.0000 0.64106  0.48990  0.92094  Biso   1.000  H
  H36      1.0000 0.85894  0.98990  0.57906  Biso   1.000  H
  H37      1.0000 0.29165  0.54741  0.16278  Biso   1.000  H
  H38      1.0000 0.20835  0.04741  0.33722  Biso   1.000  H
  H39      1.0000 0.70835  0.45259  0.83722  Biso   1.000  H
  H40      1.0000 0.79165  0.95259  0.66278  Biso   1.000  H
  C45      1.0000 0.48210  0.57380  0.21730  Biso   1.000  C
  C46      1.0000 0.01790  0.07380  0.28270  Biso   1.000  C
  C47      1.0000 0.51790  0.42620  0.78270  Biso   1.000  C
  C48      1.0000 0.98210  0.92620  0.71730  Biso   1.000  C
  H41      1.0000 0.49426  0.49663  0.25596  Biso   1.000  H
  H42      1.0000 0.00574  0.99663  0.24404  Biso   1.000  H
  H43      1.0000 0.50574  0.50337  0.74404  Biso   1.000  H
  H44      1.0000 0.99426  0.00337  0.75596  Biso   1.000  H
  H45      1.0000 0.54897  0.58210  0.18490  Biso   1.000  H
  H46      1.0000 0.95103  0.08210  0.31510  Biso   1.000  H
  H47      1.0000 0.45103  0.41790  0.81510  Biso   1.000  H
  H48      1.0000 0.04897  0.91790  0.68490  Biso   1.000  H
  C49      1.0000 0.18560  0.72250  0.06150  Biso   1.000  C
  C50      1.0000 0.31440  0.22250  0.43850  Biso   1.000  C
  C51      1.0000 0.81440  0.27750  0.93850  Biso   1.000  C
  C52      1.0000 0.68560  0.77750  0.56150  Biso   1.000  C
  H49      1.0000 0.13379  0.65068  0.03550  Biso   1.000  H
  H50      1.0000 0.36621  0.15068  0.46450  Biso   1.000  H
  H51      1.0000 0.86621  0.34932  0.96450  Biso   1.000  H
  H52      1.0000 0.63379  0.84932  0.53550  Biso   1.000  H
  H53      1.0000 0.15851  0.78777  0.00947  Biso   1.000  H
  H54      1.0000 0.34149  0.28777  0.49053  Biso   1.000  H
  H55      1.0000 0.84149  0.21223  0.99053  Biso   1.000  H
  H56      1.0000 0.65851  0.71223  0.50947  Biso   1.000  H
  C53      1.0000 0.17020  0.76340  0.16710  Biso   1.000  C
  C54      1.0000 0.32980  0.26340  0.33290  Biso   1.000  C
  C55      1.0000 0.82980  0.23660  0.83290  Biso   1.000  C
  C56      1.0000 0.67020  0.73660  0.66710  Biso   1.000  C
  H57      1.0000 0.08678  0.79767  0.15543  Biso   1.000  H
  H58      1.0000 0.41322  0.29767  0.34457  Biso   1.000  H
  H59      1.0000 0.91322  0.20233  0.84457  Biso   1.000  H
  H60      1.0000 0.58678  0.70233  0.65543  Biso   1.000  H
  H61      1.0000 0.17901  0.69292  0.21383  Biso   1.000  H
  H62      1.0000 0.32099  0.19292  0.28617  Biso   1.000  H
  H63      1.0000 0.82099  0.30708  0.78617  Biso   1.000  H
  H64      1.0000 0.67901  0.80708  0.71383  Biso   1.000  H
  N1       1.0000 0.32020  0.69250  0.07650  Biso   1.000  N
  N2       1.0000 0.17980  0.19250  0.42350  Biso   1.000  N
  N3       1.0000 0.67980  0.30750  0.92350  Biso   1.000  N
  N4       1.0000 0.82020  0.80750  0.57650  Biso   1.000  N
  O1       1.0000 0.80440  0.50570  0.53823  Biso   1.000  O
  O2       1.0000 0.69560  0.00570  0.96177  Biso   1.000  O
  O3       1.0000 0.19560  0.49430  0.46177  Biso   1.000  O
  O4       1.0000 0.30440  0.99430  0.03823  Biso   1.000  O
  O5       1.0000 0.68240  0.43160  0.62940  Biso   1.000  O
  O6       1.0000 0.81760  0.93160  0.87060  Biso   1.000  O
  O7       1.0000 0.31760  0.56840  0.37060  Biso   1.000  O
  O8       1.0000 0.18240  0.06840  0.12940  Biso   1.000  O
  O9       1.0000 0.50900  0.95470  0.25975  Biso   1.000  O
  O10      1.0000 0.99100  0.45470  0.24025  Biso   1.000  O
  O11      1.0000 0.49100  0.04530  0.74025  Biso   1.000  O
  O12      1.0000 0.00900  0.54530  0.75975  Biso   1.000  O
  O13      1.0000 0.58120  0.06590  0.14744  Biso   1.000  O
  O14      1.0000 0.91880  0.56590  0.35256  Biso   1.000  O
  O15      1.0000 0.41880  0.93410  0.85256  Biso   1.000  O
  O16      1.0000 0.08120  0.43410  0.64744  Biso   1.000  O
  O17      1.0000 0.51590  0.83560  0.06271  Biso   1.000  O
  O18      1.0000 0.98410  0.33560  0.43729  Biso   1.000  O
  O19      1.0000 0.48410  0.16440  0.93729  Biso   1.000  O
  O20      1.0000 0.01590  0.66440  0.56271  Biso   1.000  O
  O21      1.0000 0.48910  0.67270  0.28930  Biso   1.000  O
  O22      1.0000 0.01090  0.17270  0.21070  Biso   1.000  O
  O23      1.0000 0.51090  0.32730  0.71070  Biso   1.000  O
  O24      1.0000 0.98910  0.82730  0.78930  Biso   1.000  O
  O25      1.0000 0.26350  0.85420  0.21591  Biso   1.000  O
  O26      1.0000 0.23650  0.35420  0.28409  Biso   1.000  O
  O27      1.0000 0.73650  0.14580  0.78409  Biso   1.000  O
  O28      1.0000 0.76350  0.64580  0.71591  Biso   1.000  O
  Cu1      1.0000 0.50000  0.00000  0.00000  Biso   1.000  Cu
  Cu2      1.0000 0.00000  0.50000  0.50000  Biso   1.000  Cu
  Cu3      1.0000 0.41651  0.83405  0.16115  Biso   1.000  Cu
  Cu4      1.0000 0.08349  0.33405  0.33885  Biso   1.000  Cu
  Cu5      1.0000 0.58349  0.16595  0.83885  Biso   1.000  Cu
  Cu6      1.0000 0.91651  0.66595  0.66115  Biso   1.000  Cu
  H65      1.0000 0.44200  0.64600  0.32900  Biso   1.000  H
  H66      1.0000 0.05800  0.14600  0.17100  Biso   1.000  H
  H67      1.0000 0.55800  0.35400  0.67100  Biso   1.000  H
  H68      1.0000 0.94200  0.85400  0.82900  Biso   1.000  H
  H69      1.0000 0.23700  0.92800  0.18800  Biso   1.000  H
  H70      1.0000 0.26300  0.42800  0.31200  Biso   1.000  H
  H71      1.0000 0.76300  0.07200  0.81200  Biso   1.000  H
  H72      1.0000 0.73700  0.57200  0.68800  Biso   1.000  H
