data_image0
_cell_length_a       16.851
_cell_length_b       19.645
_cell_length_c       20.591
_cell_angle_alpha    90
_cell_angle_beta     90
_cell_angle_gamma    90

_symmetry_space_group_name_H-M    "P 1"
_symmetry_int_tables_number       1

loop_
  _symmetry_equiv_pos_as_xyz
  'x, y, z'

loop_
  _atom_site_label
  _atom_site_occupancy
  _atom_site_fract_x
  _atom_site_fract_y
  _atom_site_fract_z
  _atom_site_thermal_displace_type
  _atom_site_B_iso_or_equiv
  _atom_site_type_symbol
  Cu1      1.0000 0.65711  0.25279  0.19648  Biso   1.000  Cu
  Cu2      1.0000 0.84289  0.74721  0.69648  Biso   1.000  Cu
  Cu3      1.0000 0.34289  0.75279  0.30352  Biso   1.000  Cu
  Cu4      1.0000 0.15711  0.24721  0.80352  Biso   1.000  Cu
  Cu5      1.0000 0.34289  0.74721  0.80352  Biso   1.000  Cu
  Cu6      1.0000 0.15711  0.25279  0.30352  Biso   1.000  Cu
  Cu7      1.0000 0.65711  0.24721  0.69648  Biso   1.000  Cu
  Cu8      1.0000 0.84289  0.75279  0.19648  Biso   1.000  Cu
  Cu9      1.0000 0.72207  0.41886  0.94608  Biso   1.000  Cu
  Cu10     1.0000 0.77793  0.58114  0.44608  Biso   1.000  Cu
  Cu11     1.0000 0.27793  0.91886  0.55392  Biso   1.000  Cu
  Cu12     1.0000 0.22207  0.08114  0.05392  Biso   1.000  Cu
  Cu13     1.0000 0.27793  0.58114  0.05392  Biso   1.000  Cu
  Cu14     1.0000 0.22207  0.41886  0.55392  Biso   1.000  Cu
  Cu15     1.0000 0.72207  0.08114  0.44608  Biso   1.000  Cu
  Cu16     1.0000 0.77793  0.91886  0.94608  Biso   1.000  Cu
  Cu17     1.0000 0.67625  0.39187  0.09833  Biso   1.000  Cu
  Cu18     1.0000 0.82375  0.60813  0.59833  Biso   1.000  Cu
  Cu19     1.0000 0.32375  0.89187  0.40167  Biso   1.000  Cu
  Cu20     1.0000 0.17625  0.10813  0.90167  Biso   1.000  Cu
  Cu21     1.0000 0.32375  0.60813  0.90167  Biso   1.000  Cu
  Cu22     1.0000 0.17625  0.39187  0.40167  Biso   1.000  Cu
  Cu23     1.0000 0.67625  0.10813  0.59833  Biso   1.000  Cu
  Cu24     1.0000 0.82375  0.89187  0.09833  Biso   1.000  Cu
  Cu25     1.0000 0.59435  0.52153  0.02092  Biso   1.000  Cu
  Cu26     1.0000 0.90565  0.47847  0.52092  Biso   1.000  Cu
  Cu27     1.0000 0.40565  0.02153  0.47908  Biso   1.000  Cu
  Cu28     1.0000 0.09435  0.97847  0.97908  Biso   1.000  Cu
  Cu29     1.0000 0.40565  0.47847  0.97908  Biso   1.000  Cu
  Cu30     1.0000 0.09435  0.52153  0.47908  Biso   1.000  Cu
  Cu31     1.0000 0.59435  0.97847  0.52092  Biso   1.000  Cu
  Cu32     1.0000 0.90565  0.02153  0.02092  Biso   1.000  Cu
  Cu33     1.0000 0.78903  0.36670  0.21544  Biso   1.000  Cu
  Cu34     1.0000 0.71097  0.63330  0.71544  Biso   1.000  Cu
  Cu35     1.0000 0.21097  0.86670  0.28456  Biso   1.000  Cu
  Cu36     1.0000 0.28903  0.13330  0.78456  Biso   1.000  Cu
  Cu37     1.0000 0.21097  0.63330  0.78456  Biso   1.000  Cu
  Cu38     1.0000 0.28903  0.36670  0.28456  Biso   1.000  Cu
  Cu39     1.0000 0.78903  0.13330  0.71544  Biso   1.000  Cu
  Cu40     1.0000 0.71097  0.86670  0.21544  Biso   1.000  Cu
  O1       1.0000 0.85280  0.44060  0.18110  Biso   1.000  O
  O2       1.0000 0.64720  0.55940  0.68110  Biso   1.000  O
  O3       1.0000 0.14720  0.94060  0.31890  Biso   1.000  O
  O4       1.0000 0.35280  0.05940  0.81890  Biso   1.000  O
  O5       1.0000 0.14720  0.55940  0.81890  Biso   1.000  O
  O6       1.0000 0.35280  0.44060  0.31890  Biso   1.000  O
  O7       1.0000 0.85280  0.05940  0.68110  Biso   1.000  O
  O8       1.0000 0.64720  0.94060  0.18110  Biso   1.000  O
  O9       1.0000 0.84380  0.55420  0.17910  Biso   1.000  O
  O10      1.0000 0.65620  0.44580  0.67910  Biso   1.000  O
  O11      1.0000 0.15620  0.05420  0.32090  Biso   1.000  O
  O12      1.0000 0.34380  0.94580  0.82090  Biso   1.000  O
  O13      1.0000 0.15620  0.44580  0.82090  Biso   1.000  O
  O14      1.0000 0.34380  0.55420  0.32090  Biso   1.000  O
  O15      1.0000 0.84380  0.94580  0.67910  Biso   1.000  O
  O16      1.0000 0.65620  0.05420  0.17910  Biso   1.000  O
  O17      1.0000 0.70020  0.42110  0.18680  Biso   1.000  O
  O18      1.0000 0.79980  0.57890  0.68680  Biso   1.000  O
  O19      1.0000 0.29980  0.92110  0.31320  Biso   1.000  O
  O20      1.0000 0.20020  0.07890  0.81320  Biso   1.000  O
  O21      1.0000 0.29980  0.57890  0.81320  Biso   1.000  O
  O22      1.0000 0.20020  0.42110  0.31320  Biso   1.000  O
  O23      1.0000 0.70020  0.07890  0.68680  Biso   1.000  O
  O24      1.0000 0.79980  0.92110  0.18680  Biso   1.000  O
  O25      1.0000 0.68120  0.48810  0.07460  Biso   1.000  O
  O26      1.0000 0.81880  0.51190  0.57460  Biso   1.000  O
  O27      1.0000 0.31880  0.98810  0.42540  Biso   1.000  O
  O28      1.0000 0.18120  0.01190  0.92540  Biso   1.000  O
  O29      1.0000 0.31880  0.51190  0.92540  Biso   1.000  O
  O30      1.0000 0.18120  0.48810  0.42540  Biso   1.000  O
  O31      1.0000 0.68120  0.01190  0.57460  Biso   1.000  O
  O32      1.0000 0.81880  0.98810  0.07460  Biso   1.000  O
  O33      1.0000 0.57600  0.56110  0.20630  Biso   1.000  O
  O34      1.0000 0.92400  0.43890  0.70630  Biso   1.000  O
  O35      1.0000 0.42400  0.06110  0.29370  Biso   1.000  O
  O36      1.0000 0.07600  0.93890  0.79370  Biso   1.000  O
  O37      1.0000 0.42400  0.43890  0.79370  Biso   1.000  O
  O38      1.0000 0.07600  0.56110  0.29370  Biso   1.000  O
  O39      1.0000 0.57600  0.93890  0.70630  Biso   1.000  O
  O40      1.0000 0.92400  0.06110  0.20630  Biso   1.000  O
  O41      1.0000 0.55090  0.55850  0.10070  Biso   1.000  O
  O42      1.0000 0.94910  0.44150  0.60070  Biso   1.000  O
  O43      1.0000 0.44910  0.05850  0.39930  Biso   1.000  O
  O44      1.0000 0.05090  0.94150  0.89930  Biso   1.000  O
  O45      1.0000 0.44910  0.44150  0.89930  Biso   1.000  O
  O46      1.0000 0.05090  0.55850  0.39930  Biso   1.000  O
  O47      1.0000 0.55090  0.94150  0.60070  Biso   1.000  O
  O48      1.0000 0.94910  0.05850  0.10070  Biso   1.000  O
  O49      1.0000 0.46660  0.60640  0.88120  Biso   1.000  O
  O50      1.0000 0.03340  0.39360  0.38120  Biso   1.000  O
  O51      1.0000 0.53340  0.10640  0.61880  Biso   1.000  O
  O52      1.0000 0.96660  0.89360  0.11880  Biso   1.000  O
  O53      1.0000 0.53340  0.39360  0.11880  Biso   1.000  O
  O54      1.0000 0.96660  0.60640  0.61880  Biso   1.000  O
  O55      1.0000 0.46660  0.89360  0.38120  Biso   1.000  O
  O56      1.0000 0.03340  0.10640  0.88120  Biso   1.000  O
  O57      1.0000 0.50620  0.56670  0.97540  Biso   1.000  O
  O58      1.0000 0.99380  0.43330  0.47540  Biso   1.000  O
  O59      1.0000 0.49380  0.06670  0.52460  Biso   1.000  O
  O60      1.0000 0.00620  0.93330  0.02460  Biso   1.000  O
  O61      1.0000 0.49380  0.43330  0.02460  Biso   1.000  O
  O62      1.0000 0.00620  0.56670  0.52460  Biso   1.000  O
  O63      1.0000 0.50620  0.93330  0.47540  Biso   1.000  O
  O64      1.0000 0.99380  0.06670  0.97540  Biso   1.000  O
  O65      1.0000 0.65610  0.61760  0.95080  Biso   1.000  O
  O66      1.0000 0.84390  0.38240  0.45080  Biso   1.000  O
  O67      1.0000 0.34390  0.11760  0.54920  Biso   1.000  O
  O68      1.0000 0.15610  0.88240  0.04920  Biso   1.000  O
  O69      1.0000 0.34390  0.38240  0.04920  Biso   1.000  O
  O70      1.0000 0.15610  0.61760  0.54920  Biso   1.000  O
  O71      1.0000 0.65610  0.88240  0.45080  Biso   1.000  O
  O72      1.0000 0.84390  0.11760  0.95080  Biso   1.000  O
  H1       1.0000 0.63340  0.64840  0.97020  Biso   1.000  H
  H2       1.0000 0.86660  0.35160  0.47020  Biso   1.000  H
  H3       1.0000 0.36660  0.14840  0.52980  Biso   1.000  H
  H4       1.0000 0.13340  0.85160  0.02980  Biso   1.000  H
  H5       1.0000 0.36660  0.35160  0.02980  Biso   1.000  H
  H6       1.0000 0.13340  0.64840  0.52980  Biso   1.000  H
  H7       1.0000 0.63340  0.85160  0.47020  Biso   1.000  H
  H8       1.0000 0.86660  0.14840  0.97020  Biso   1.000  H
  O73      1.0000 0.63190  0.47940  0.94120  Biso   1.000  O
  O74      1.0000 0.86810  0.52060  0.44120  Biso   1.000  O
  O75      1.0000 0.36810  0.97940  0.55880  Biso   1.000  O
  O76      1.0000 0.13190  0.02060  0.05880  Biso   1.000  O
  O77      1.0000 0.36810  0.52060  0.05880  Biso   1.000  O
  O78      1.0000 0.13190  0.47940  0.55880  Biso   1.000  O
  O79      1.0000 0.63190  0.02060  0.44120  Biso   1.000  O
  O80      1.0000 0.86810  0.97940  0.94120  Biso   1.000  O
  O81      1.0000 0.73990  0.56740  0.81900  Biso   1.000  O
  O82      1.0000 0.76010  0.43260  0.31900  Biso   1.000  O
  O83      1.0000 0.26010  0.06740  0.68100  Biso   1.000  O
  O84      1.0000 0.23990  0.93260  0.18100  Biso   1.000  O
  O85      1.0000 0.26010  0.43260  0.18100  Biso   1.000  O
  O86      1.0000 0.23990  0.56740  0.68100  Biso   1.000  O
  O87      1.0000 0.73990  0.93260  0.31900  Biso   1.000  O
  O88      1.0000 0.76010  0.06740  0.81900  Biso   1.000  O
  O89      1.0000 0.77020  0.48020  0.88380  Biso   1.000  O
  O90      1.0000 0.72980  0.51980  0.38380  Biso   1.000  O
  O91      1.0000 0.22980  0.98020  0.61620  Biso   1.000  O
  O92      1.0000 0.27020  0.01980  0.11620  Biso   1.000  O
  O93      1.0000 0.22980  0.51980  0.11620  Biso   1.000  O
  O94      1.0000 0.27020  0.48020  0.61620  Biso   1.000  O
  O95      1.0000 0.77020  0.01980  0.38380  Biso   1.000  O
  O96      1.0000 0.72980  0.98020  0.88380  Biso   1.000  O
  O97      1.0000 0.60200  0.18190  0.02490  Biso   1.000  O
  O98      1.0000 0.89800  0.81810  0.52490  Biso   1.000  O
  O99      1.0000 0.39800  0.68190  0.47510  Biso   1.000  O
  O100     1.0000 0.10200  0.31810  0.97510  Biso   1.000  O
  O101     1.0000 0.39800  0.81810  0.97510  Biso   1.000  O
  O102     1.0000 0.10200  0.18190  0.47510  Biso   1.000  O
  O103     1.0000 0.60200  0.31810  0.52490  Biso   1.000  O
  O104     1.0000 0.89800  0.68190  0.02490  Biso   1.000  O
  O105     1.0000 0.59700  0.20630  0.12890  Biso   1.000  O
  O106     1.0000 0.90300  0.79370  0.62890  Biso   1.000  O
  O107     1.0000 0.40300  0.70630  0.37110  Biso   1.000  O
  O108     1.0000 0.09700  0.29370  0.87110  Biso   1.000  O
  O109     1.0000 0.40300  0.79370  0.87110  Biso   1.000  O
  O110     1.0000 0.09700  0.20630  0.37110  Biso   1.000  O
  O111     1.0000 0.59700  0.29370  0.62890  Biso   1.000  O
  O112     1.0000 0.90300  0.70630  0.12890  Biso   1.000  O
  O113     1.0000 0.70570  0.30050  0.12210  Biso   1.000  O
  O114     1.0000 0.79430  0.69950  0.62210  Biso   1.000  O
  O115     1.0000 0.29430  0.80050  0.37790  Biso   1.000  O
  O116     1.0000 0.20570  0.19950  0.87790  Biso   1.000  O
  O117     1.0000 0.29430  0.69950  0.87790  Biso   1.000  O
  O118     1.0000 0.20570  0.30050  0.37790  Biso   1.000  O
  O119     1.0000 0.70570  0.19950  0.62210  Biso   1.000  O
  O120     1.0000 0.79430  0.80050  0.12210  Biso   1.000  O
  O121     1.0000 0.67190  0.35860  0.00830  Biso   1.000  O
  O122     1.0000 0.82810  0.64140  0.50830  Biso   1.000  O
  O123     1.0000 0.32810  0.85860  0.49170  Biso   1.000  O
  O124     1.0000 0.17190  0.14140  0.99170  Biso   1.000  O
  O125     1.0000 0.32810  0.64140  0.99170  Biso   1.000  O
  O126     1.0000 0.17190  0.35860  0.49170  Biso   1.000  O
  O127     1.0000 0.67190  0.14140  0.50830  Biso   1.000  O
  O128     1.0000 0.82810  0.85860  0.00830  Biso   1.000  O
  O129     1.0000 0.81380  0.36090  0.95740  Biso   1.000  O
  O130     1.0000 0.68620  0.63910  0.45740  Biso   1.000  O
  O131     1.0000 0.18620  0.86090  0.54260  Biso   1.000  O
  O132     1.0000 0.31380  0.13910  0.04260  Biso   1.000  O
  O133     1.0000 0.18620  0.63910  0.04260  Biso   1.000  O
  O134     1.0000 0.31380  0.36090  0.54260  Biso   1.000  O
  O135     1.0000 0.81380  0.13910  0.45740  Biso   1.000  O
  O136     1.0000 0.68620  0.86090  0.95740  Biso   1.000  O
  O137     1.0000 0.84490  0.25550  0.98620  Biso   1.000  O
  O138     1.0000 0.65510  0.74450  0.48620  Biso   1.000  O
  O139     1.0000 0.15510  0.75550  0.51380  Biso   1.000  O
  O140     1.0000 0.34490  0.24450  0.01380  Biso   1.000  O
  O141     1.0000 0.15510  0.74450  0.01380  Biso   1.000  O
  O142     1.0000 0.34490  0.25550  0.51380  Biso   1.000  O
  O143     1.0000 0.84490  0.24450  0.48620  Biso   1.000  O
  O144     1.0000 0.65510  0.75550  0.98620  Biso   1.000  O
  O145     1.0000 0.91890  0.22250  0.29120  Biso   1.000  O
  O146     1.0000 0.58110  0.77750  0.79120  Biso   1.000  O
  O147     1.0000 0.08110  0.72250  0.20880  Biso   1.000  O
  O148     1.0000 0.41890  0.27750  0.70880  Biso   1.000  O
  O149     1.0000 0.08110  0.77750  0.70880  Biso   1.000  O
  O150     1.0000 0.41890  0.22250  0.20880  Biso   1.000  O
  O151     1.0000 0.91890  0.27750  0.79120  Biso   1.000  O
  O152     1.0000 0.58110  0.72250  0.29120  Biso   1.000  O
  O153     1.0000 0.87940  0.31100  0.23470  Biso   1.000  O
  O154     1.0000 0.62060  0.68900  0.73470  Biso   1.000  O
  O155     1.0000 0.12060  0.81100  0.26530  Biso   1.000  O
  O156     1.0000 0.37940  0.18900  0.76530  Biso   1.000  O
  O157     1.0000 0.12060  0.68900  0.76530  Biso   1.000  O
  O158     1.0000 0.37940  0.31100  0.26530  Biso   1.000  O
  O159     1.0000 0.87940  0.18900  0.73470  Biso   1.000  O
  O160     1.0000 0.62060  0.81100  0.23470  Biso   1.000  O
  O161     1.0000 0.72740  0.29730  0.25940  Biso   1.000  O
  O162     1.0000 0.77260  0.70270  0.75940  Biso   1.000  O
  O163     1.0000 0.27260  0.79730  0.24060  Biso   1.000  O
  O164     1.0000 0.22740  0.20270  0.74060  Biso   1.000  O
  O165     1.0000 0.27260  0.70270  0.74060  Biso   1.000  O
  O166     1.0000 0.22740  0.29730  0.24060  Biso   1.000  O
  O167     1.0000 0.72740  0.20270  0.75940  Biso   1.000  O
  O168     1.0000 0.77260  0.79730  0.25940  Biso   1.000  O
  O169     1.0000 0.75760  0.16420  0.21590  Biso   1.000  O
  O170     1.0000 0.74240  0.83580  0.71590  Biso   1.000  O
  O171     1.0000 0.24240  0.66420  0.28410  Biso   1.000  O
  O172     1.0000 0.25760  0.33580  0.78410  Biso   1.000  O
  O173     1.0000 0.24240  0.83580  0.78410  Biso   1.000  O
  O174     1.0000 0.25760  0.16420  0.28410  Biso   1.000  O
  O175     1.0000 0.75760  0.33580  0.71590  Biso   1.000  O
  O176     1.0000 0.74240  0.66420  0.21590  Biso   1.000  O
  H9       1.0000 0.71780  0.14380  0.20370  Biso   1.000  H
  H10      1.0000 0.78220  0.85620  0.70370  Biso   1.000  H
  H11      1.0000 0.28220  0.64380  0.29630  Biso   1.000  H
  H12      1.0000 0.21780  0.35620  0.79630  Biso   1.000  H
  H13      1.0000 0.28220  0.85620  0.79630  Biso   1.000  H
  H14      1.0000 0.21780  0.14380  0.29630  Biso   1.000  H
  H15      1.0000 0.71780  0.35620  0.70370  Biso   1.000  H
  H16      1.0000 0.78220  0.64380  0.20370  Biso   1.000  H
  O177     1.0000 0.65370  0.15040  0.36290  Biso   1.000  O
  O178     1.0000 0.84630  0.84960  0.86290  Biso   1.000  O
  O179     1.0000 0.34630  0.65040  0.13710  Biso   1.000  O
  O180     1.0000 0.15370  0.34960  0.63710  Biso   1.000  O
  O181     1.0000 0.34630  0.84960  0.63710  Biso   1.000  O
  O182     1.0000 0.15370  0.15040  0.13710  Biso   1.000  O
  O183     1.0000 0.65370  0.34960  0.86290  Biso   1.000  O
  O184     1.0000 0.84630  0.65040  0.36290  Biso   1.000  O
  O185     1.0000 0.61440  0.19260  0.26850  Biso   1.000  O
  O186     1.0000 0.88560  0.80740  0.76850  Biso   1.000  O
  O187     1.0000 0.38560  0.69260  0.23150  Biso   1.000  O
  O188     1.0000 0.11440  0.30740  0.73150  Biso   1.000  O
  O189     1.0000 0.38560  0.80740  0.73150  Biso   1.000  O
  O190     1.0000 0.11440  0.19260  0.23150  Biso   1.000  O
  O191     1.0000 0.61440  0.30740  0.76850  Biso   1.000  O
  O192     1.0000 0.88560  0.69260  0.26850  Biso   1.000  O
  C1       1.0000 0.81380  0.49600  0.18200  Biso   1.000  C
  C2       1.0000 0.68620  0.50400  0.68200  Biso   1.000  C
  C3       1.0000 0.18620  0.99600  0.31800  Biso   1.000  C
  C4       1.0000 0.31380  0.00400  0.81800  Biso   1.000  C
  C5       1.0000 0.18620  0.50400  0.81800  Biso   1.000  C
  C6       1.0000 0.31380  0.49600  0.31800  Biso   1.000  C
  C7       1.0000 0.81380  0.00400  0.68200  Biso   1.000  C
  C8       1.0000 0.68620  0.99600  0.18200  Biso   1.000  C
  C9       1.0000 0.72380  0.49070  0.18750  Biso   1.000  C
  C10      1.0000 0.77620  0.50930  0.68750  Biso   1.000  C
  C11      1.0000 0.27620  0.99070  0.31250  Biso   1.000  C
  C12      1.0000 0.22380  0.00930  0.81250  Biso   1.000  C
  C13      1.0000 0.27620  0.50930  0.81250  Biso   1.000  C
  C14      1.0000 0.22380  0.49070  0.31250  Biso   1.000  C
  C15      1.0000 0.72380  0.00930  0.68750  Biso   1.000  C
  C16      1.0000 0.77620  0.99070  0.18750  Biso   1.000  C
  H17      1.0000 0.70740  0.51090  0.22880  Biso   1.000  H
  H18      1.0000 0.79260  0.48910  0.72880  Biso   1.000  H
  H19      1.0000 0.29260  0.01090  0.27120  Biso   1.000  H
  H20      1.0000 0.20740  0.98910  0.77120  Biso   1.000  H
  H21      1.0000 0.29260  0.48910  0.77120  Biso   1.000  H
  H22      1.0000 0.20740  0.51090  0.27120  Biso   1.000  H
  H23      1.0000 0.70740  0.98910  0.72880  Biso   1.000  H
  H24      1.0000 0.79260  0.01090  0.22880  Biso   1.000  H
  C17      1.0000 0.68100  0.52830  0.13210  Biso   1.000  C
  C18      1.0000 0.81900  0.47170  0.63210  Biso   1.000  C
  C19      1.0000 0.31900  0.02830  0.36790  Biso   1.000  C
  C20      1.0000 0.18100  0.97170  0.86790  Biso   1.000  C
  C21      1.0000 0.31900  0.47170  0.86790  Biso   1.000  C
  C22      1.0000 0.18100  0.52830  0.36790  Biso   1.000  C
  C23      1.0000 0.68100  0.97170  0.63210  Biso   1.000  C
  C24      1.0000 0.81900  0.02830  0.13210  Biso   1.000  C
  H25      1.0000 0.71150  0.56960  0.12280  Biso   1.000  H
  H26      1.0000 0.78850  0.43040  0.62280  Biso   1.000  H
  H27      1.0000 0.28850  0.06960  0.37720  Biso   1.000  H
  H28      1.0000 0.21150  0.93040  0.87720  Biso   1.000  H
  H29      1.0000 0.28850  0.43040  0.87720  Biso   1.000  H
  H30      1.0000 0.21150  0.56960  0.37720  Biso   1.000  H
  H31      1.0000 0.71150  0.93040  0.62280  Biso   1.000  H
  H32      1.0000 0.78850  0.06960  0.12280  Biso   1.000  H
  C25      1.0000 0.59700  0.55030  0.14860  Biso   1.000  C
  C26      1.0000 0.90300  0.44970  0.64860  Biso   1.000  C
  C27      1.0000 0.40300  0.05030  0.35140  Biso   1.000  C
  C28      1.0000 0.09700  0.94970  0.85140  Biso   1.000  C
  C29      1.0000 0.40300  0.44970  0.85140  Biso   1.000  C
  C30      1.0000 0.09700  0.55030  0.35140  Biso   1.000  C
  C31      1.0000 0.59700  0.94970  0.64860  Biso   1.000  C
  C32      1.0000 0.90300  0.05030  0.14860  Biso   1.000  C
  C33      1.0000 0.51930  0.59020  0.92000  Biso   1.000  C
  C34      1.0000 0.98070  0.40980  0.42000  Biso   1.000  C
  C35      1.0000 0.48070  0.09020  0.58000  Biso   1.000  C
  C36      1.0000 0.01930  0.90980  0.08000  Biso   1.000  C
  C37      1.0000 0.48070  0.40980  0.08000  Biso   1.000  C
  C38      1.0000 0.01930  0.59020  0.58000  Biso   1.000  C
  C39      1.0000 0.51930  0.90980  0.42000  Biso   1.000  C
  C40      1.0000 0.98070  0.09020  0.92000  Biso   1.000  C
  C41      1.0000 0.60650  0.59310  0.89990  Biso   1.000  C
  C42      1.0000 0.89350  0.40690  0.39990  Biso   1.000  C
  C43      1.0000 0.39350  0.09310  0.60010  Biso   1.000  C
  C44      1.0000 0.10650  0.90690  0.10010  Biso   1.000  C
  C45      1.0000 0.39350  0.40690  0.10010  Biso   1.000  C
  C46      1.0000 0.10650  0.59310  0.60010  Biso   1.000  C
  C47      1.0000 0.60650  0.90690  0.39990  Biso   1.000  C
  C48      1.0000 0.89350  0.09310  0.89990  Biso   1.000  C
  H33      1.0000 0.61250  0.62210  0.86140  Biso   1.000  H
  H34      1.0000 0.88750  0.37790  0.36140  Biso   1.000  H
  H35      1.0000 0.38750  0.12210  0.63860  Biso   1.000  H
  H36      1.0000 0.11250  0.87790  0.13860  Biso   1.000  H
  H37      1.0000 0.38750  0.37790  0.13860  Biso   1.000  H
  H38      1.0000 0.11250  0.62210  0.63860  Biso   1.000  H
  H39      1.0000 0.61250  0.87790  0.36140  Biso   1.000  H
  H40      1.0000 0.88750  0.12210  0.86140  Biso   1.000  H
  C49      1.0000 0.63640  0.52210  0.88530  Biso   1.000  C
  C50      1.0000 0.86360  0.47790  0.38530  Biso   1.000  C
  C51      1.0000 0.36360  0.02210  0.61470  Biso   1.000  C
  C52      1.0000 0.13640  0.97790  0.11470  Biso   1.000  C
  C53      1.0000 0.36360  0.47790  0.11470  Biso   1.000  C
  C54      1.0000 0.13640  0.52210  0.61470  Biso   1.000  C
  C55      1.0000 0.63640  0.97790  0.38530  Biso   1.000  C
  C56      1.0000 0.86360  0.02210  0.88530  Biso   1.000  C
  H41      1.0000 0.60270  0.50240  0.85130  Biso   1.000  H
  H42      1.0000 0.89730  0.49760  0.35130  Biso   1.000  H
  H43      1.0000 0.39730  0.00240  0.64870  Biso   1.000  H
  H44      1.0000 0.10270  0.99760  0.14870  Biso   1.000  H
  H45      1.0000 0.39730  0.49760  0.14870  Biso   1.000  H
  H46      1.0000 0.10270  0.50240  0.64870  Biso   1.000  H
  H47      1.0000 0.60270  0.99760  0.35130  Biso   1.000  H
  H48      1.0000 0.89730  0.00240  0.85130  Biso   1.000  H
  C57      1.0000 0.72020  0.52470  0.86040  Biso   1.000  C
  C58      1.0000 0.77980  0.47530  0.36040  Biso   1.000  C
  C59      1.0000 0.27980  0.02470  0.63960  Biso   1.000  C
  C60      1.0000 0.22020  0.97530  0.13960  Biso   1.000  C
  C61      1.0000 0.27980  0.47530  0.13960  Biso   1.000  C
  C62      1.0000 0.22020  0.52470  0.63960  Biso   1.000  C
  C63      1.0000 0.72020  0.97530  0.36040  Biso   1.000  C
  C64      1.0000 0.77980  0.02470  0.86040  Biso   1.000  C
  C65      1.0000 0.62900  0.21140  0.07340  Biso   1.000  C
  C66      1.0000 0.87100  0.78860  0.57340  Biso   1.000  C
  C67      1.0000 0.37100  0.71140  0.42660  Biso   1.000  C
  C68      1.0000 0.12900  0.28860  0.92660  Biso   1.000  C
  C69      1.0000 0.37100  0.78860  0.92660  Biso   1.000  C
  C70      1.0000 0.12900  0.21140  0.42660  Biso   1.000  C
  C71      1.0000 0.62900  0.28860  0.57340  Biso   1.000  C
  C72      1.0000 0.87100  0.71140  0.07340  Biso   1.000  C
  C73      1.0000 0.70250  0.25450  0.06820  Biso   1.000  C
  C74      1.0000 0.79750  0.74550  0.56820  Biso   1.000  C
  C75      1.0000 0.29750  0.75450  0.43180  Biso   1.000  C
  C76      1.0000 0.20250  0.24550  0.93180  Biso   1.000  C
  C77      1.0000 0.29750  0.74550  0.93180  Biso   1.000  C
  C78      1.0000 0.20250  0.25450  0.43180  Biso   1.000  C
  C79      1.0000 0.70250  0.24550  0.56820  Biso   1.000  C
  C80      1.0000 0.79750  0.75450  0.06820  Biso   1.000  C
  H49      1.0000 0.74820  0.22400  0.07180  Biso   1.000  H
  H50      1.0000 0.75180  0.77600  0.57180  Biso   1.000  H
  H51      1.0000 0.25180  0.72400  0.42820  Biso   1.000  H
  H52      1.0000 0.24820  0.27600  0.92820  Biso   1.000  H
  H53      1.0000 0.25180  0.77600  0.92820  Biso   1.000  H
  H54      1.0000 0.24820  0.22400  0.42820  Biso   1.000  H
  H55      1.0000 0.74820  0.27600  0.57180  Biso   1.000  H
  H56      1.0000 0.75180  0.72400  0.07180  Biso   1.000  H
  C81      1.0000 0.71160  0.29410  0.00460  Biso   1.000  C
  C82      1.0000 0.78840  0.70590  0.50460  Biso   1.000  C
  C83      1.0000 0.28840  0.79410  0.49540  Biso   1.000  C
  C84      1.0000 0.21160  0.20590  0.99540  Biso   1.000  C
  C85      1.0000 0.28840  0.70590  0.99540  Biso   1.000  C
  C86      1.0000 0.21160  0.29410  0.49540  Biso   1.000  C
  C87      1.0000 0.71160  0.20590  0.50460  Biso   1.000  C
  C88      1.0000 0.78840  0.79410  0.00460  Biso   1.000  C
  H57      1.0000 0.68440  0.26760  0.97100  Biso   1.000  H
  H58      1.0000 0.81560  0.73240  0.47100  Biso   1.000  H
  H59      1.0000 0.31560  0.76760  0.52900  Biso   1.000  H
  H60      1.0000 0.18440  0.23240  0.02900  Biso   1.000  H
  H61      1.0000 0.31560  0.73240  0.02900  Biso   1.000  H
  H62      1.0000 0.18440  0.26760  0.52900  Biso   1.000  H
  H63      1.0000 0.68440  0.23240  0.47100  Biso   1.000  H
  H64      1.0000 0.81560  0.76760  0.97100  Biso   1.000  H
  C89      1.0000 0.79670  0.30430  0.98140  Biso   1.000  C
  C90      1.0000 0.70330  0.69570  0.48140  Biso   1.000  C
  C91      1.0000 0.20330  0.80430  0.51860  Biso   1.000  C
  C92      1.0000 0.29670  0.19570  0.01860  Biso   1.000  C
  C93      1.0000 0.20330  0.69570  0.01860  Biso   1.000  C
  C94      1.0000 0.29670  0.30430  0.51860  Biso   1.000  C
  C95      1.0000 0.79670  0.19570  0.48140  Biso   1.000  C
  C96      1.0000 0.70330  0.80430  0.98140  Biso   1.000  C
  C97      1.0000 0.86690  0.26100  0.27080  Biso   1.000  C
  C98      1.0000 0.63310  0.73900  0.77080  Biso   1.000  C
  C99      1.0000 0.13310  0.76100  0.22920  Biso   1.000  C
  C100     1.0000 0.36690  0.23900  0.72920  Biso   1.000  C
  C101     1.0000 0.13310  0.73900  0.72920  Biso   1.000  C
  C102     1.0000 0.36690  0.26100  0.22920  Biso   1.000  C
  C103     1.0000 0.86690  0.23900  0.77080  Biso   1.000  C
  C104     1.0000 0.63310  0.76100  0.27080  Biso   1.000  C
  C105     1.0000 0.77950  0.25150  0.29340  Biso   1.000  C
  C106     1.0000 0.72050  0.74850  0.79340  Biso   1.000  C
  C107     1.0000 0.22050  0.75150  0.20660  Biso   1.000  C
  C108     1.0000 0.27950  0.24850  0.70660  Biso   1.000  C
  C109     1.0000 0.22050  0.74850  0.70660  Biso   1.000  C
  C110     1.0000 0.27950  0.25150  0.20660  Biso   1.000  C
  C111     1.0000 0.77950  0.24850  0.79340  Biso   1.000  C
  C112     1.0000 0.72050  0.75150  0.29340  Biso   1.000  C
  H65      1.0000 0.77650  0.26180  0.33990  Biso   1.000  H
  H66      1.0000 0.72350  0.73820  0.83990  Biso   1.000  H
  H67      1.0000 0.22350  0.76180  0.16010  Biso   1.000  H
  H68      1.0000 0.27650  0.23820  0.66010  Biso   1.000  H
  H69      1.0000 0.22350  0.73820  0.66010  Biso   1.000  H
  H70      1.0000 0.27650  0.26180  0.16010  Biso   1.000  H
  H71      1.0000 0.77650  0.23820  0.83990  Biso   1.000  H
  H72      1.0000 0.72350  0.76180  0.33990  Biso   1.000  H
  C113     1.0000 0.75180  0.17710  0.28290  Biso   1.000  C
  C114     1.0000 0.74820  0.82290  0.78290  Biso   1.000  C
  C115     1.0000 0.24820  0.67710  0.21710  Biso   1.000  C
  C116     1.0000 0.25180  0.32290  0.71710  Biso   1.000  C
  C117     1.0000 0.24820  0.82290  0.71710  Biso   1.000  C
  C118     1.0000 0.25180  0.17710  0.21710  Biso   1.000  C
  C119     1.0000 0.75180  0.32290  0.78290  Biso   1.000  C
  C120     1.0000 0.74820  0.67710  0.28290  Biso   1.000  C
  H73      1.0000 0.78640  0.14590  0.30690  Biso   1.000  H
  H74      1.0000 0.71360  0.85410  0.80690  Biso   1.000  H
  H75      1.0000 0.21360  0.64590  0.19310  Biso   1.000  H
  H76      1.0000 0.28640  0.35410  0.69310  Biso   1.000  H
  H77      1.0000 0.21360  0.85410  0.69310  Biso   1.000  H
  H78      1.0000 0.28640  0.14590  0.19310  Biso   1.000  H
  H79      1.0000 0.78640  0.35410  0.80690  Biso   1.000  H
  H80      1.0000 0.71360  0.64590  0.30690  Biso   1.000  H
  C121     1.0000 0.66760  0.17170  0.30800  Biso   1.000  C
  C122     1.0000 0.83240  0.82830  0.80800  Biso   1.000  C
  C123     1.0000 0.33240  0.67170  0.19200  Biso   1.000  C
  C124     1.0000 0.16760  0.32830  0.69200  Biso   1.000  C
  C125     1.0000 0.33240  0.82830  0.69200  Biso   1.000  C
  C126     1.0000 0.16760  0.17170  0.19200  Biso   1.000  C
  C127     1.0000 0.66760  0.32830  0.80800  Biso   1.000  C
  C128     1.0000 0.83240  0.67170  0.30800  Biso   1.000  C
  O193     1.0000 0.55430  0.32330  0.22700  Biso   1.000  O
  O194     1.0000 0.94570  0.67670  0.72700  Biso   1.000  O
  O195     1.0000 0.44570  0.82330  0.27300  Biso   1.000  O
  O196     1.0000 0.05430  0.17670  0.77300  Biso   1.000  O
  O197     1.0000 0.44570  0.67670  0.77300  Biso   1.000  O
  O198     1.0000 0.05430  0.32330  0.27300  Biso   1.000  O
  O199     1.0000 0.55430  0.17670  0.72700  Biso   1.000  O
  O200     1.0000 0.94570  0.82330  0.22700  Biso   1.000  O
  H81      1.0000 0.50900  0.29890  0.24440  Biso   1.000  H
  H82      1.0000 0.99100  0.70110  0.74440  Biso   1.000  H
  H83      1.0000 0.49100  0.79890  0.25560  Biso   1.000  H
  H84      1.0000 0.00900  0.20110  0.75560  Biso   1.000  H
  H85      1.0000 0.49100  0.70110  0.75560  Biso   1.000  H
  H86      1.0000 0.00900  0.29890  0.25560  Biso   1.000  H
  H87      1.0000 0.50900  0.20110  0.74440  Biso   1.000  H
  H88      1.0000 0.99100  0.79890  0.24440  Biso   1.000  H
  H89      1.0000 0.53780  0.35430  0.19290  Biso   1.000  H
  H90      1.0000 0.96220  0.64570  0.69290  Biso   1.000  H
  H91      1.0000 0.46220  0.85430  0.30710  Biso   1.000  H
  H92      1.0000 0.03780  0.14570  0.80710  Biso   1.000  H
  H93      1.0000 0.46220  0.64570  0.80710  Biso   1.000  H
  H94      1.0000 0.03780  0.35430  0.30710  Biso   1.000  H
  H95      1.0000 0.53780  0.14570  0.69290  Biso   1.000  H
  H96      1.0000 0.96220  0.85430  0.19290  Biso   1.000  H
  Na1      1.0000 0.63130  0.37540  0.30664  Biso   1.000  Na
  Na2      1.0000 0.86870  0.62460  0.80664  Biso   1.000  Na
  Na3      1.0000 0.36870  0.87540  0.19336  Biso   1.000  Na
  Na4      1.0000 0.13130  0.12460  0.69336  Biso   1.000  Na
  Na5      1.0000 0.36870  0.62460  0.69336  Biso   1.000  Na
  Na6      1.0000 0.13130  0.37540  0.19336  Biso   1.000  Na
  Na7      1.0000 0.63130  0.12460  0.80664  Biso   1.000  Na
  Na8      1.0000 0.86870  0.87540  0.30664  Biso   1.000  Na
  Na9      1.0000 0.54939  0.36875  0.93384  Biso   1.000  Na
  Na10     1.0000 0.95061  0.63125  0.43384  Biso   1.000  Na
  Na11     1.0000 0.45061  0.86875  0.56616  Biso   1.000  Na
  Na12     1.0000 0.04939  0.13125  0.06616  Biso   1.000  Na
  Na13     1.0000 0.45061  0.63125  0.06616  Biso   1.000  Na
  Na14     1.0000 0.04939  0.36875  0.56616  Biso   1.000  Na
  Na15     1.0000 0.54939  0.13125  0.43384  Biso   1.000  Na
  Na16     1.0000 0.95061  0.86875  0.93384  Biso   1.000  Na
  O201     1.0000 0.58340  0.49060  0.32200  Biso   1.000  O
  O202     1.0000 0.91660  0.50940  0.82200  Biso   1.000  O
  O203     1.0000 0.41660  0.99060  0.17800  Biso   1.000  O
  O204     1.0000 0.08340  0.00940  0.67800  Biso   1.000  O
  O205     1.0000 0.41660  0.50940  0.67800  Biso   1.000  O
  O206     1.0000 0.08340  0.49060  0.17800  Biso   1.000  O
  O207     1.0000 0.58340  0.00940  0.82200  Biso   1.000  O
  O208     1.0000 0.91660  0.99060  0.32200  Biso   1.000  O
  H97      1.0000 0.54740  0.47800  0.34590  Biso   1.000  H
  H98      1.0000 0.95260  0.52200  0.84590  Biso   1.000  H
  H99      1.0000 0.45260  0.97800  0.15410  Biso   1.000  H
  H100     1.0000 0.04740  0.02200  0.65410  Biso   1.000  H
  H101     1.0000 0.45260  0.52200  0.65410  Biso   1.000  H
  H102     1.0000 0.04740  0.47800  0.15410  Biso   1.000  H
  H103     1.0000 0.54740  0.02200  0.84590  Biso   1.000  H
  H104     1.0000 0.95260  0.97800  0.34590  Biso   1.000  H
  H105     1.0000 0.56740  0.49390  0.28250  Biso   1.000  H
  H106     1.0000 0.93260  0.50610  0.78250  Biso   1.000  H
  H107     1.0000 0.43260  0.99390  0.21750  Biso   1.000  H
  H108     1.0000 0.06740  0.00610  0.71750  Biso   1.000  H
  H109     1.0000 0.43260  0.50610  0.71750  Biso   1.000  H
  H110     1.0000 0.06740  0.49390  0.21750  Biso   1.000  H
  H111     1.0000 0.56740  0.00610  0.78250  Biso   1.000  H
  H112     1.0000 0.93260  0.99390  0.28250  Biso   1.000  H
  K1       1.0000 0.48875  0.61614  0.30168  Biso   1.000  K
  K2       1.0000 0.01125  0.38386  0.80168  Biso   1.000  K
  K3       1.0000 0.51125  0.11614  0.19832  Biso   1.000  K
  K4       1.0000 0.98875  0.88386  0.69832  Biso   1.000  K
  K5       1.0000 0.51125  0.38386  0.69832  Biso   1.000  K
  K6       1.0000 0.98875  0.61614  0.19832  Biso   1.000  K
  K7       1.0000 0.48875  0.88386  0.80168  Biso   1.000  K
  K8       1.0000 0.01125  0.11614  0.30168  Biso   1.000  K
  Na17     1.0000 0.46839  0.46043  0.41729  Biso   1.000  Na
  Na18     1.0000 0.03161  0.53957  0.91729  Biso   1.000  Na
  Na19     1.0000 0.53161  0.96043  0.08271  Biso   1.000  Na
  Na20     1.0000 0.96839  0.03957  0.58271  Biso   1.000  Na
  Na21     1.0000 0.53161  0.53957  0.58271  Biso   1.000  Na
  Na22     1.0000 0.96839  0.46043  0.08271  Biso   1.000  Na
  Na23     1.0000 0.46839  0.03957  0.91729  Biso   1.000  Na
  Na24     1.0000 0.03161  0.96043  0.41729  Biso   1.000  Na
  O209     1.0000 0.51250  0.33790  0.37070  Biso   1.000  O
  O210     1.0000 0.98750  0.66210  0.87070  Biso   1.000  O
  O211     1.0000 0.48750  0.83790  0.12930  Biso   1.000  O
  O212     1.0000 0.01250  0.16210  0.62930  Biso   1.000  O
  O213     1.0000 0.48750  0.66210  0.62930  Biso   1.000  O
  O214     1.0000 0.01250  0.33790  0.12930  Biso   1.000  O
  O215     1.0000 0.51250  0.16210  0.87070  Biso   1.000  O
  O216     1.0000 0.98750  0.83790  0.37070  Biso   1.000  O
  H113     1.0000 0.47390  0.34840  0.39480  Biso   1.000  H
  H114     1.0000 0.02610  0.65160  0.89480  Biso   1.000  H
  H115     1.0000 0.52610  0.84840  0.10520  Biso   1.000  H
  H116     1.0000 0.97390  0.15160  0.60520  Biso   1.000  H
  H117     1.0000 0.52610  0.65160  0.60520  Biso   1.000  H
  H118     1.0000 0.97390  0.34840  0.10520  Biso   1.000  H
  H119     1.0000 0.47390  0.15160  0.89480  Biso   1.000  H
  H120     1.0000 0.02610  0.84840  0.39480  Biso   1.000  H
  H121     1.0000 0.51690  0.29500  0.37150  Biso   1.000  H
  H122     1.0000 0.98310  0.70500  0.87150  Biso   1.000  H
  H123     1.0000 0.48310  0.79500  0.12850  Biso   1.000  H
  H124     1.0000 0.01690  0.20500  0.62850  Biso   1.000  H
  H125     1.0000 0.48310  0.70500  0.62850  Biso   1.000  H
  H126     1.0000 0.01690  0.29500  0.12850  Biso   1.000  H
  H127     1.0000 0.51690  0.20500  0.87150  Biso   1.000  H
  H128     1.0000 0.98310  0.79500  0.37150  Biso   1.000  H
  O217     1.0000 0.67230  0.36290  0.41910  Biso   1.000  O
  O218     1.0000 0.82770  0.63710  0.91910  Biso   1.000  O
  O219     1.0000 0.32770  0.86290  0.08090  Biso   1.000  O
  O220     1.0000 0.17230  0.13710  0.58090  Biso   1.000  O
  O221     1.0000 0.32770  0.63710  0.58090  Biso   1.000  O
  O222     1.0000 0.17230  0.36290  0.08090  Biso   1.000  O
  O223     1.0000 0.67230  0.13710  0.91910  Biso   1.000  O
  O224     1.0000 0.82770  0.86290  0.41910  Biso   1.000  O
  H129     1.0000 0.65220  0.39550  0.43640  Biso   1.000  H
  H130     1.0000 0.84780  0.60450  0.93640  Biso   1.000  H
  H131     1.0000 0.34780  0.89550  0.06360  Biso   1.000  H
  H132     1.0000 0.15220  0.10450  0.56360  Biso   1.000  H
  H133     1.0000 0.34780  0.60450  0.56360  Biso   1.000  H
  H134     1.0000 0.15220  0.39550  0.06360  Biso   1.000  H
  H135     1.0000 0.65220  0.10450  0.93640  Biso   1.000  H
  H136     1.0000 0.84780  0.89550  0.43640  Biso   1.000  H
  H137     1.0000 0.72070  0.36750  0.41190  Biso   1.000  H
  H138     1.0000 0.77930  0.63250  0.91190  Biso   1.000  H
  H139     1.0000 0.27930  0.86750  0.08810  Biso   1.000  H
  H140     1.0000 0.22070  0.13250  0.58810  Biso   1.000  H
  H141     1.0000 0.27930  0.63250  0.58810  Biso   1.000  H
  H142     1.0000 0.22070  0.36750  0.08810  Biso   1.000  H
  H143     1.0000 0.72070  0.13250  0.91190  Biso   1.000  H
  H144     1.0000 0.77930  0.86750  0.41190  Biso   1.000  H
  O225     1.0000 0.48930  0.27180  0.95780  Biso   1.000  O
  O226     1.0000 0.01070  0.72820  0.45780  Biso   1.000  O
  O227     1.0000 0.51070  0.77180  0.54220  Biso   1.000  O
  O228     1.0000 0.98930  0.22820  0.04220  Biso   1.000  O
  O229     1.0000 0.51070  0.72820  0.04220  Biso   1.000  O
  O230     1.0000 0.98930  0.27180  0.54220  Biso   1.000  O
  O231     1.0000 0.48930  0.22820  0.45780  Biso   1.000  O
  O232     1.0000 0.01070  0.77180  0.95780  Biso   1.000  O
  H145     1.0000 0.51070  0.24080  0.98180  Biso   1.000  H
  H146     1.0000 0.98930  0.75920  0.48180  Biso   1.000  H
  H147     1.0000 0.48930  0.74080  0.51820  Biso   1.000  H
  H148     1.0000 0.01070  0.25920  0.01820  Biso   1.000  H
  H149     1.0000 0.48930  0.75920  0.01820  Biso   1.000  H
  H150     1.0000 0.01070  0.24080  0.51820  Biso   1.000  H
  H151     1.0000 0.51070  0.25920  0.48180  Biso   1.000  H
  H152     1.0000 0.98930  0.74080  0.98180  Biso   1.000  H
  H153     1.0000 0.44540  0.27830  0.98050  Biso   1.000  H
  H154     1.0000 0.05460  0.72170  0.48050  Biso   1.000  H
  H155     1.0000 0.55460  0.77830  0.51950  Biso   1.000  H
  H156     1.0000 0.94540  0.22170  0.01950  Biso   1.000  H
  H157     1.0000 0.55460  0.72170  0.01950  Biso   1.000  H
  H158     1.0000 0.94540  0.27830  0.51950  Biso   1.000  H
  H159     1.0000 0.44540  0.22170  0.48050  Biso   1.000  H
  H160     1.0000 0.05460  0.77830  0.98050  Biso   1.000  H
  O233     1.0000 0.02630  0.59360  0.05750  Biso   1.000  O
  O234     1.0000 0.47370  0.40640  0.55750  Biso   1.000  O
  O235     1.0000 0.97370  0.09360  0.44250  Biso   1.000  O
  O236     1.0000 0.52630  0.90640  0.94250  Biso   1.000  O
  O237     1.0000 0.97370  0.40640  0.94250  Biso   1.000  O
  O238     1.0000 0.52630  0.59360  0.44250  Biso   1.000  O
  O239     1.0000 0.02630  0.90640  0.55750  Biso   1.000  O
  O240     1.0000 0.47370  0.09360  0.05750  Biso   1.000  O
  H161     1.0000 0.99440  0.62010  0.02750  Biso   1.000  H
  H162     1.0000 0.50560  0.37990  0.52750  Biso   1.000  H
  H163     1.0000 0.00560  0.12010  0.47250  Biso   1.000  H
  H164     1.0000 0.49440  0.87990  0.97250  Biso   1.000  H
  H165     1.0000 0.00560  0.37990  0.97250  Biso   1.000  H
  H166     1.0000 0.49440  0.62010  0.47250  Biso   1.000  H
  H167     1.0000 0.99440  0.87990  0.52750  Biso   1.000  H
  H168     1.0000 0.50560  0.12010  0.02750  Biso   1.000  H
  H169     1.0000 0.08230  0.59590  0.04700  Biso   1.000  H
  H170     1.0000 0.41770  0.40410  0.54700  Biso   1.000  H
  H171     1.0000 0.91770  0.09590  0.45300  Biso   1.000  H
  H172     1.0000 0.58230  0.90410  0.95300  Biso   1.000  H
  H173     1.0000 0.91770  0.40410  0.95300  Biso   1.000  H
  H174     1.0000 0.58230  0.59590  0.45300  Biso   1.000  H
  H175     1.0000 0.08230  0.90410  0.54700  Biso   1.000  H
  H176     1.0000 0.41770  0.09590  0.04700  Biso   1.000  H
  O241     1.0000 0.84670  0.52280  0.01650  Biso   1.000  O
  O242     1.0000 0.65330  0.47720  0.51650  Biso   1.000  O
  O243     1.0000 0.15330  0.02280  0.48350  Biso   1.000  O
  O244     1.0000 0.34670  0.97720  0.98350  Biso   1.000  O
  O245     1.0000 0.15330  0.47720  0.98350  Biso   1.000  O
  O246     1.0000 0.34670  0.52280  0.48350  Biso   1.000  O
  O247     1.0000 0.84670  0.97720  0.51650  Biso   1.000  O
  O248     1.0000 0.65330  0.02280  0.01650  Biso   1.000  O
  H177     1.0000 0.82160  0.48790  0.02220  Biso   1.000  H
  H178     1.0000 0.67840  0.51210  0.52220  Biso   1.000  H
  H179     1.0000 0.17840  0.98790  0.47780  Biso   1.000  H
  H180     1.0000 0.32160  0.01210  0.97780  Biso   1.000  H
  H181     1.0000 0.17840  0.51210  0.97780  Biso   1.000  H
  H182     1.0000 0.32160  0.48790  0.47780  Biso   1.000  H
  H183     1.0000 0.82160  0.01210  0.52220  Biso   1.000  H
  H184     1.0000 0.67840  0.98790  0.02220  Biso   1.000  H
  H185     1.0000 0.87790  0.52050  0.98560  Biso   1.000  H
  H186     1.0000 0.62210  0.47950  0.48560  Biso   1.000  H
  H187     1.0000 0.12210  0.02050  0.51440  Biso   1.000  H
  H188     1.0000 0.37790  0.97950  0.01440  Biso   1.000  H
  H189     1.0000 0.12210  0.47950  0.01440  Biso   1.000  H
  H190     1.0000 0.37790  0.52050  0.51440  Biso   1.000  H
  H191     1.0000 0.87790  0.97950  0.48560  Biso   1.000  H
  H192     1.0000 0.62210  0.02050  0.98560  Biso   1.000  H
