data_image0
_cell_length_a       8.219
_cell_length_b       8.219
_cell_length_c       17.449
_cell_angle_alpha    90
_cell_angle_beta     90
_cell_angle_gamma    90

_symmetry_space_group_name_H-M    "P 1"
_symmetry_int_tables_number       1

loop_
  _symmetry_equiv_pos_as_xyz
  'x, y, z'

loop_
  _atom_site_label
  _atom_site_occupancy
  _atom_site_fract_x
  _atom_site_fract_y
  _atom_site_fract_z
  _atom_site_thermal_displace_type
  _atom_site_B_iso_or_equiv
  _atom_site_type_symbol
  Cu1      1.0000 0.76900  0.93420  0.33180  Biso   1.000  Cu
  Cu2      1.0000 0.06580  0.76900  0.08180  Biso   1.000  Cu
  Cu3      1.0000 0.23100  0.06580  0.83180  Biso   1.000  Cu
  Cu4      1.0000 0.93420  0.23100  0.58180  Biso   1.000  Cu
  O1       1.0000 0.81080  0.05700  0.44930  Biso   1.000  O
  O2       1.0000 0.94300  0.81080  0.19930  Biso   1.000  O
  O3       1.0000 0.18920  0.94300  0.94930  Biso   1.000  O
  O4       1.0000 0.05700  0.18920  0.69930  Biso   1.000  O
  O5       1.0000 0.95490  0.00240  0.55340  Biso   1.000  O
  O6       1.0000 0.99760  0.95490  0.30340  Biso   1.000  O
  O7       1.0000 0.04510  0.99760  0.05340  Biso   1.000  O
  O8       1.0000 0.00240  0.04510  0.80340  Biso   1.000  O
  O9       1.0000 0.54130  0.89450  0.35040  Biso   1.000  O
  O10      1.0000 0.10550  0.54130  0.10040  Biso   1.000  O
  O11      1.0000 0.45870  0.10550  0.85040  Biso   1.000  O
  O12      1.0000 0.89450  0.45870  0.60040  Biso   1.000  O
  O13      1.0000 0.37270  0.79420  0.43550  Biso   1.000  O
  O14      1.0000 0.20580  0.37270  0.18550  Biso   1.000  O
  O15      1.0000 0.62730  0.20580  0.93550  Biso   1.000  O
  O16      1.0000 0.79420  0.62730  0.68550  Biso   1.000  O
  O17      1.0000 0.70170  0.10580  0.26300  Biso   1.000  O
  O18      1.0000 0.89420  0.70170  0.01300  Biso   1.000  O
  O19      1.0000 0.29830  0.89420  0.76300  Biso   1.000  O
  O20      1.0000 0.10580  0.29830  0.51300  Biso   1.000  O
  N1       1.0000 0.80870  0.74010  0.40250  Biso   1.000  N
  N2       1.0000 0.25990  0.80870  0.15250  Biso   1.000  N
  N3       1.0000 0.19130  0.25990  0.90250  Biso   1.000  N
  N4       1.0000 0.74010  0.19130  0.65250  Biso   1.000  N
  C1       1.0000 0.92380  0.79210  0.46270  Biso   1.000  C
  C2       1.0000 0.20790  0.92380  0.21270  Biso   1.000  C
  C3       1.0000 0.07620  0.20790  0.96270  Biso   1.000  C
  C4       1.0000 0.79210  0.07620  0.71270  Biso   1.000  C
  C5       1.0000 0.89120  0.96520  0.48940  Biso   1.000  C
  C6       1.0000 0.03480  0.89120  0.23940  Biso   1.000  C
  C7       1.0000 0.10880  0.03480  0.98940  Biso   1.000  C
  C8       1.0000 0.96520  0.10880  0.73940  Biso   1.000  C
  C9       1.0000 0.64610  0.69620  0.43640  Biso   1.000  C
  C10      1.0000 0.30380  0.64610  0.18640  Biso   1.000  C
  C11      1.0000 0.35390  0.30380  0.93640  Biso   1.000  C
  C12      1.0000 0.69620  0.35390  0.68640  Biso   1.000  C
  C13      1.0000 0.50850  0.80350  0.40570  Biso   1.000  C
  C14      1.0000 0.19650  0.50850  0.15570  Biso   1.000  C
  C15      1.0000 0.49150  0.19650  0.90570  Biso   1.000  C
  C16      1.0000 0.80350  0.49150  0.65570  Biso   1.000  C
  C17      1.0000 0.62140  0.51600  0.41840  Biso   1.000  C
  C18      1.0000 0.48400  0.62140  0.16840  Biso   1.000  C
  C19      1.0000 0.37860  0.48400  0.91840  Biso   1.000  C
  C20      1.0000 0.51600  0.37860  0.66840  Biso   1.000  C
  C21      1.0000 0.77160  0.45340  0.39980  Biso   1.000  C
  C22      1.0000 0.54660  0.77160  0.14980  Biso   1.000  C
  C23      1.0000 0.22840  0.54660  0.89980  Biso   1.000  C
  C24      1.0000 0.45340  0.22840  0.64980  Biso   1.000  C
  C25      1.0000 0.86590  0.59120  0.36280  Biso   1.000  C
  C26      1.0000 0.40880  0.86590  0.11280  Biso   1.000  C
  C27      1.0000 0.13410  0.40880  0.86280  Biso   1.000  C
  C28      1.0000 0.59120  0.13410  0.61280  Biso   1.000  C
  O21      1.0000 0.42820  0.26600  0.28920  Biso   1.000  O
  O22      1.0000 0.73400  0.42820  0.03920  Biso   1.000  O
  O23      1.0000 0.57180  0.73400  0.78920  Biso   1.000  O
  O24      1.0000 0.26600  0.57180  0.53920  Biso   1.000  O
  O25      1.0000 0.22750  0.09780  0.40220  Biso   1.000  O
  O26      1.0000 0.90220  0.22750  0.15220  Biso   1.000  O
  O27      1.0000 0.77250  0.90220  0.90220  Biso   1.000  O
  O28      1.0000 0.09780  0.77250  0.65220  Biso   1.000  O
  C29      1.0000 0.74250  0.48660  0.34910  Biso   1.000  C
  C30      1.0000 0.51340  0.74250  0.09910  Biso   1.000  C
  C31      1.0000 0.25750  0.51340  0.84910  Biso   1.000  C
  C32      1.0000 0.48660  0.25750  0.59910  Biso   1.000  C
