data_image0
_cell_length_a       12.53
_cell_length_b       9.978
_cell_length_c       11.389
_cell_angle_alpha    90
_cell_angle_beta     115.44
_cell_angle_gamma    90

_symmetry_space_group_name_H-M    "P 1"
_symmetry_int_tables_number       1

loop_
  _symmetry_equiv_pos_as_xyz
  'x, y, z'

loop_
  _atom_site_label
  _atom_site_occupancy
  _atom_site_fract_x
  _atom_site_fract_y
  _atom_site_fract_z
  _atom_site_thermal_displace_type
  _atom_site_B_iso_or_equiv
  _atom_site_type_symbol
  Cu1      1.0000 0.00000  0.00000  0.00000  Biso   1.000  Cu
  Cu2      1.0000 0.00000  0.50000  0.50000  Biso   1.000  Cu
  O1       1.0000 0.13700  0.11070  0.05740  Biso   1.000  O
  O2       1.0000 0.86300  0.61070  0.44260  Biso   1.000  O
  O3       1.0000 0.86300  0.88930  0.94260  Biso   1.000  O
  O4       1.0000 0.13700  0.38930  0.55740  Biso   1.000  O
  C1       1.0000 0.24310  0.07870  0.08270  Biso   1.000  C
  C2       1.0000 0.75690  0.57870  0.41730  Biso   1.000  C
  C3       1.0000 0.75690  0.92130  0.91730  Biso   1.000  C
  C4       1.0000 0.24310  0.42130  0.58270  Biso   1.000  C
  C5       1.0000 0.33390  0.18470  0.16070  Biso   1.000  C
  C6       1.0000 0.66610  0.68470  0.33930  Biso   1.000  C
  C7       1.0000 0.66610  0.81530  0.83930  Biso   1.000  C
  C8       1.0000 0.33390  0.31530  0.66070  Biso   1.000  C
  F1       1.0000 0.28310  0.29460  0.17180  Biso   1.000  F
  F2       1.0000 0.71690  0.79460  0.32820  Biso   1.000  F
  F3       1.0000 0.71690  0.70540  0.82820  Biso   1.000  F
  F4       1.0000 0.28310  0.20540  0.67180  Biso   1.000  F
  F5       1.0000 0.40290  0.22000  0.10530  Biso   1.000  F
  F6       1.0000 0.59710  0.72000  0.39470  Biso   1.000  F
  F7       1.0000 0.59710  0.78000  0.89470  Biso   1.000  F
  F8       1.0000 0.40290  0.28000  0.60530  Biso   1.000  F
  F9       1.0000 0.40360  0.14520  0.27760  Biso   1.000  F
  F10      1.0000 0.59640  0.64520  0.22240  Biso   1.000  F
  F11      1.0000 0.59640  0.85480  0.72240  Biso   1.000  F
  F12      1.0000 0.40360  0.35480  0.77760  Biso   1.000  F
  C9       1.0000 0.27760  0.96460  0.04640  Biso   1.000  C
  C10      1.0000 0.72240  0.46460  0.45360  Biso   1.000  C
  C11      1.0000 0.72240  0.03540  0.95360  Biso   1.000  C
  C12      1.0000 0.27760  0.53540  0.54640  Biso   1.000  C
  Cl1      1.0000 0.42752  0.92770  0.10353  Biso   1.000  Cl
  Cl2      1.0000 0.57248  0.42770  0.39647  Biso   1.000  Cl
  Cl3      1.0000 0.57248  0.07230  0.89647  Biso   1.000  Cl
  Cl4      1.0000 0.42752  0.57230  0.60353  Biso   1.000  Cl
  N1       1.0000 0.08270  0.87000  0.92820  Biso   1.000  N
  N2       1.0000 0.91730  0.37000  0.57180  Biso   1.000  N
  N3       1.0000 0.91730  0.13000  0.07180  Biso   1.000  N
  N4       1.0000 0.08270  0.63000  0.42820  Biso   1.000  N
  C13      1.0000 0.19610  0.86890  0.95780  Biso   1.000  C
  C14      1.0000 0.80390  0.36890  0.54220  Biso   1.000  C
  C15      1.0000 0.80390  0.13110  0.04220  Biso   1.000  C
  C16      1.0000 0.19610  0.63110  0.45780  Biso   1.000  C
  C17      1.0000 0.23270  0.76720  0.88320  Biso   1.000  C
  C18      1.0000 0.76730  0.26720  0.61680  Biso   1.000  C
  C19      1.0000 0.76730  0.23280  0.11680  Biso   1.000  C
  C20      1.0000 0.23270  0.73280  0.38320  Biso   1.000  C
  C21      1.0000 0.30740  0.65140  0.96400  Biso   1.000  C
  C22      1.0000 0.69260  0.15140  0.53600  Biso   1.000  C
  C23      1.0000 0.69260  0.34860  0.03600  Biso   1.000  C
  C24      1.0000 0.30740  0.84860  0.46400  Biso   1.000  C
  H1       1.0000 0.31200  0.59100  0.90000  Biso   1.000  H
  H2       1.0000 0.68800  0.09100  0.60000  Biso   1.000  H
  H3       1.0000 0.68800  0.40900  0.10000  Biso   1.000  H
  H4       1.0000 0.31200  0.90900  0.40000  Biso   1.000  H
  H5       1.0000 0.39500  0.67000  0.00900  Biso   1.000  H
  H6       1.0000 0.60500  0.17000  0.49100  Biso   1.000  H
  H7       1.0000 0.60500  0.33000  0.99100  Biso   1.000  H
  H8       1.0000 0.39500  0.83000  0.50900  Biso   1.000  H
  H9       1.0000 0.28300  0.62400  0.03400  Biso   1.000  H
  H10      1.0000 0.71700  0.12400  0.46600  Biso   1.000  H
  H11      1.0000 0.71700  0.37600  0.96600  Biso   1.000  H
  H12      1.0000 0.28300  0.87600  0.53400  Biso   1.000  H
  C25      1.0000 0.28570  0.83270  0.79770  Biso   1.000  C
  C26      1.0000 0.71430  0.33270  0.70230  Biso   1.000  C
  C27      1.0000 0.71430  0.16730  0.20230  Biso   1.000  C
  C28      1.0000 0.28570  0.66730  0.29770  Biso   1.000  C
  H13      1.0000 0.35900  0.86700  0.85800  Biso   1.000  H
  H14      1.0000 0.64100  0.36700  0.64200  Biso   1.000  H
  H15      1.0000 0.64100  0.13300  0.14200  Biso   1.000  H
  H16      1.0000 0.35900  0.63300  0.35800  Biso   1.000  H
  H17      1.0000 0.28900  0.76400  0.73400  Biso   1.000  H
  H18      1.0000 0.71100  0.26400  0.76600  Biso   1.000  H
  H19      1.0000 0.71100  0.23600  0.26600  Biso   1.000  H
  H20      1.0000 0.28900  0.73600  0.23400  Biso   1.000  H
  H21      1.0000 0.23900  0.90600  0.74600  Biso   1.000  H
  H22      1.0000 0.76100  0.40600  0.75400  Biso   1.000  H
  H23      1.0000 0.76100  0.09400  0.25400  Biso   1.000  H
  H24      1.0000 0.23900  0.59400  0.24600  Biso   1.000  H
  N5       1.0000 0.11470  0.71790  0.79740  Biso   1.000  N
  N6       1.0000 0.88530  0.21790  0.70260  Biso   1.000  N
  N7       1.0000 0.88530  0.28210  0.20260  Biso   1.000  N
  N8       1.0000 0.11470  0.78210  0.29740  Biso   1.000  N
  O5       1.0000 0.09940  0.62720  0.71460  Biso   1.000  O
  O6       1.0000 0.90060  0.12720  0.78540  Biso   1.000  O
  O7       1.0000 0.90060  0.37280  0.28540  Biso   1.000  O
  O8       1.0000 0.09940  0.87280  0.21460  Biso   1.000  O
  C29      1.0000 0.02260  0.76260  0.83460  Biso   1.000  C
  C30      1.0000 0.97740  0.26260  0.66540  Biso   1.000  C
  C31      1.0000 0.97740  0.23740  0.16540  Biso   1.000  C
  C32      1.0000 0.02260  0.73740  0.33460  Biso   1.000  C
  C33      1.0000 0.91830  0.81100  0.71480  Biso   1.000  C
  C34      1.0000 0.08170  0.31100  0.78520  Biso   1.000  C
  C35      1.0000 0.08170  0.18900  0.28520  Biso   1.000  C
  C36      1.0000 0.91830  0.68900  0.21480  Biso   1.000  C
  H25      1.0000 0.93600  0.87400  0.67300  Biso   1.000  H
  H26      1.0000 0.06400  0.37400  0.82700  Biso   1.000  H
  H27      1.0000 0.06400  0.12600  0.32700  Biso   1.000  H
  H28      1.0000 0.93600  0.62600  0.17300  Biso   1.000  H
  H29      1.0000 0.86000  0.83400  0.72600  Biso   1.000  H
  H30      1.0000 0.14000  0.33400  0.77400  Biso   1.000  H
  H31      1.0000 0.14000  0.16600  0.27400  Biso   1.000  H
  H32      1.0000 0.86000  0.66600  0.22600  Biso   1.000  H
  H33      1.0000 0.89200  0.73500  0.65800  Biso   1.000  H
  H34      1.0000 0.10800  0.23500  0.84200  Biso   1.000  H
  H35      1.0000 0.10800  0.26500  0.34200  Biso   1.000  H
  H36      1.0000 0.89200  0.76500  0.15800  Biso   1.000  H
  C37      1.0000 0.99300  0.64590  0.90140  Biso   1.000  C
  C38      1.0000 0.00700  0.14590  0.59860  Biso   1.000  C
  C39      1.0000 0.00700  0.35410  0.09860  Biso   1.000  C
  C40      1.0000 0.99300  0.85410  0.40140  Biso   1.000  C
  H37      1.0000 0.94500  0.57800  0.83400  Biso   1.000  H
  H38      1.0000 0.05500  0.07800  0.66600  Biso   1.000  H
  H39      1.0000 0.05500  0.42200  0.16600  Biso   1.000  H
  H40      1.0000 0.94500  0.92200  0.33400  Biso   1.000  H
  H41      1.0000 0.94400  0.66800  0.92800  Biso   1.000  H
  H42      1.0000 0.05600  0.16800  0.57200  Biso   1.000  H
  H43      1.0000 0.05600  0.33200  0.07200  Biso   1.000  H
  H44      1.0000 0.94400  0.83200  0.42800  Biso   1.000  H
  H45      1.0000 0.06500  0.59800  0.97800  Biso   1.000  H
  H46      1.0000 0.93500  0.09800  0.52200  Biso   1.000  H
  H47      1.0000 0.93500  0.40200  0.02200  Biso   1.000  H
  H48      1.0000 0.06500  0.90200  0.47800  Biso   1.000  H
