data_image0
_cell_length_a       13.261
_cell_length_b       10.845
_cell_length_c       11.248
_cell_angle_alpha    90
_cell_angle_beta     110.51
_cell_angle_gamma    90

_symmetry_space_group_name_H-M    "P 1"
_symmetry_int_tables_number       1

loop_
  _symmetry_equiv_pos_as_xyz
  'x, y, z'

loop_
  _atom_site_label
  _atom_site_occupancy
  _atom_site_fract_x
  _atom_site_fract_y
  _atom_site_fract_z
  _atom_site_thermal_displace_type
  _atom_site_B_iso_or_equiv
  _atom_site_type_symbol
  Cu1      1.0000 0.50000  0.00000  0.00000  Biso   1.000  Cu
  Cu2      1.0000 0.50000  0.50000  0.50000  Biso   1.000  Cu
  O1       1.0000 0.36300  0.92910  0.93420  Biso   1.000  O
  O2       1.0000 0.63700  0.42910  0.56580  Biso   1.000  O
  O3       1.0000 0.63700  0.07090  0.06580  Biso   1.000  O
  O4       1.0000 0.36300  0.57090  0.43420  Biso   1.000  O
  C1       1.0000 0.27200  0.96180  0.94400  Biso   1.000  C
  C2       1.0000 0.72800  0.46180  0.55600  Biso   1.000  C
  C3       1.0000 0.72800  0.03820  0.05600  Biso   1.000  C
  C4       1.0000 0.27200  0.53820  0.44400  Biso   1.000  C
  C5       1.0000 0.18080  0.88130  0.85870  Biso   1.000  C
  C6       1.0000 0.81920  0.38130  0.64130  Biso   1.000  C
  C7       1.0000 0.81920  0.11870  0.14130  Biso   1.000  C
  C8       1.0000 0.18080  0.61870  0.35870  Biso   1.000  C
  O5       1.0000 0.13230  0.90390  0.75100  Biso   1.000  O
  O6       1.0000 0.86770  0.40390  0.74900  Biso   1.000  O
  O7       1.0000 0.86770  0.09610  0.24900  Biso   1.000  O
  O8       1.0000 0.13230  0.59610  0.25100  Biso   1.000  O
  O9       1.0000 0.16810  0.78320  0.91610  Biso   1.000  O
  O10      1.0000 0.83190  0.28320  0.58390  Biso   1.000  O
  O11      1.0000 0.83190  0.21680  0.08390  Biso   1.000  O
  O12      1.0000 0.16810  0.71680  0.41610  Biso   1.000  O
  C9       1.0000 0.08410  0.69780  0.84410  Biso   1.000  C
  C10      1.0000 0.91590  0.19780  0.65590  Biso   1.000  C
  C11      1.0000 0.91590  0.30220  0.15590  Biso   1.000  C
  C12      1.0000 0.08410  0.80220  0.34410  Biso   1.000  C
  H1       1.0000 0.01400  0.72860  0.83890  Biso   1.000  H
  H2       1.0000 0.98600  0.22860  0.66110  Biso   1.000  H
  H3       1.0000 0.98600  0.27140  0.16110  Biso   1.000  H
  H4       1.0000 0.01400  0.77140  0.33890  Biso   1.000  H
  H5       1.0000 0.08470  0.68890  0.75850  Biso   1.000  H
  H6       1.0000 0.91530  0.18890  0.74150  Biso   1.000  H
  H7       1.0000 0.91530  0.31110  0.24150  Biso   1.000  H
  H8       1.0000 0.08470  0.81110  0.25850  Biso   1.000  H
  C13      1.0000 0.10230  0.59440  0.90070  Biso   1.000  C
  C14      1.0000 0.89770  0.09440  0.59930  Biso   1.000  C
  C15      1.0000 0.89770  0.40560  0.09930  Biso   1.000  C
  C16      1.0000 0.10230  0.90560  0.40070  Biso   1.000  C
  H9       1.0000 0.04720  0.53680  0.85560  Biso   1.000  H
  H10      1.0000 0.95280  0.03680  0.64440  Biso   1.000  H
  H11      1.0000 0.95280  0.46320  0.14440  Biso   1.000  H
  H12      1.0000 0.04720  0.96320  0.35560  Biso   1.000  H
  H13      1.0000 0.10240  0.60430  0.98550  Biso   1.000  H
  H14      1.0000 0.89760  0.10430  0.51450  Biso   1.000  H
  H15      1.0000 0.89760  0.39570  0.01450  Biso   1.000  H
  H16      1.0000 0.10240  0.89570  0.48550  Biso   1.000  H
  H17      1.0000 0.17110  0.56390  0.90370  Biso   1.000  H
  H18      1.0000 0.82890  0.06390  0.59630  Biso   1.000  H
  H19      1.0000 0.82890  0.43610  0.09630  Biso   1.000  H
  H20      1.0000 0.17110  0.93610  0.40370  Biso   1.000  H
  C17      1.0000 0.25970  0.05690  0.01520  Biso   1.000  C
  C18      1.0000 0.74030  0.55690  0.48480  Biso   1.000  C
  C19      1.0000 0.74030  0.94310  0.98480  Biso   1.000  C
  C20      1.0000 0.25970  0.44310  0.51520  Biso   1.000  C
  Br1      1.0000 0.11306  0.07415  0.99865  Biso   1.000  Br
  Br2      1.0000 0.88694  0.57415  0.50135  Biso   1.000  Br
  Br3      1.0000 0.88694  0.92585  0.00135  Biso   1.000  Br
  Br4      1.0000 0.11306  0.42585  0.49865  Biso   1.000  Br
  C21      1.0000 0.34270  0.12860  0.09500  Biso   1.000  C
  C22      1.0000 0.65730  0.62860  0.40500  Biso   1.000  C
  C23      1.0000 0.65730  0.87140  0.90500  Biso   1.000  C
  C24      1.0000 0.34270  0.37140  0.59500  Biso   1.000  C
  C25      1.0000 0.31960  0.22280  0.18190  Biso   1.000  C
  C26      1.0000 0.68040  0.72280  0.31810  Biso   1.000  C
  C27      1.0000 0.68040  0.77720  0.81810  Biso   1.000  C
  C28      1.0000 0.31960  0.27720  0.68190  Biso   1.000  C
  C29      1.0000 0.28080  0.17050  0.28150  Biso   1.000  C
  C30      1.0000 0.71920  0.67050  0.21850  Biso   1.000  C
  C31      1.0000 0.71920  0.82950  0.71850  Biso   1.000  C
  C32      1.0000 0.28080  0.32950  0.78150  Biso   1.000  C
  H21      1.0000 0.26790  0.23640  0.33140  Biso   1.000  H
  H22      1.0000 0.73210  0.73640  0.16860  Biso   1.000  H
  H23      1.0000 0.73210  0.76360  0.66860  Biso   1.000  H
  H24      1.0000 0.26790  0.26360  0.83140  Biso   1.000  H
  H25      1.0000 0.33440  0.11600  0.33550  Biso   1.000  H
  H26      1.0000 0.66560  0.61600  0.16450  Biso   1.000  H
  H27      1.0000 0.66560  0.88400  0.66450  Biso   1.000  H
  H28      1.0000 0.33440  0.38400  0.83550  Biso   1.000  H
  H29      1.0000 0.21520  0.12570  0.24150  Biso   1.000  H
  H30      1.0000 0.78480  0.62570  0.25850  Biso   1.000  H
  H31      1.0000 0.78480  0.87430  0.75850  Biso   1.000  H
  H32      1.0000 0.21520  0.37430  0.74150  Biso   1.000  H
  C33      1.0000 0.24840  0.33370  0.11330  Biso   1.000  C
  C34      1.0000 0.75160  0.83370  0.38670  Biso   1.000  C
  C35      1.0000 0.75160  0.66630  0.88670  Biso   1.000  C
  C36      1.0000 0.24840  0.16630  0.61330  Biso   1.000  C
  H33      1.0000 0.27400  0.36510  0.04930  Biso   1.000  H
  H34      1.0000 0.72600  0.86510  0.45070  Biso   1.000  H
  H35      1.0000 0.72600  0.63490  0.95070  Biso   1.000  H
  H36      1.0000 0.27400  0.13490  0.54930  Biso   1.000  H
  H37      1.0000 0.25200  0.39740  0.17390  Biso   1.000  H
  H38      1.0000 0.74800  0.89740  0.32610  Biso   1.000  H
  H39      1.0000 0.74800  0.60260  0.82610  Biso   1.000  H
  H40      1.0000 0.25200  0.10260  0.67390  Biso   1.000  H
  H41      1.0000 0.17510  0.30680  0.07440  Biso   1.000  H
  H42      1.0000 0.82490  0.80680  0.42560  Biso   1.000  H
  H43      1.0000 0.82490  0.69320  0.92560  Biso   1.000  H
  H44      1.0000 0.17510  0.19320  0.57440  Biso   1.000  H
  N1       1.0000 0.43130  0.26690  0.24380  Biso   1.000  N
  N2       1.0000 0.56870  0.76690  0.25620  Biso   1.000  N
  N3       1.0000 0.56870  0.73310  0.75620  Biso   1.000  N
  N4       1.0000 0.43130  0.23310  0.74380  Biso   1.000  N
  O13      1.0000 0.45550  0.34890  0.32420  Biso   1.000  O
  O14      1.0000 0.54450  0.84890  0.17580  Biso   1.000  O
  O15      1.0000 0.54450  0.65110  0.67580  Biso   1.000  O
  O16      1.0000 0.45550  0.15110  0.82420  Biso   1.000  O
  C37      1.0000 0.50880  0.21000  0.19420  Biso   1.000  C
  C38      1.0000 0.49120  0.71000  0.30580  Biso   1.000  C
  C39      1.0000 0.49120  0.79000  0.80580  Biso   1.000  C
  C40      1.0000 0.50880  0.29000  0.69420  Biso   1.000  C
  C41      1.0000 0.59480  0.14520  0.30370  Biso   1.000  C
  C42      1.0000 0.40520  0.64520  0.19630  Biso   1.000  C
  C43      1.0000 0.40520  0.85480  0.69630  Biso   1.000  C
  C44      1.0000 0.59480  0.35480  0.80370  Biso   1.000  C
  H45      1.0000 0.64720  0.10860  0.27350  Biso   1.000  H
  H46      1.0000 0.35280  0.60860  0.22650  Biso   1.000  H
  H47      1.0000 0.35280  0.89140  0.72650  Biso   1.000  H
  H48      1.0000 0.64720  0.39140  0.77350  Biso   1.000  H
  H49      1.0000 0.56180  0.08210  0.33770  Biso   1.000  H
  H50      1.0000 0.43820  0.58210  0.16230  Biso   1.000  H
  H51      1.0000 0.43820  0.91790  0.66230  Biso   1.000  H
  H52      1.0000 0.56180  0.41790  0.83770  Biso   1.000  H
  H53      1.0000 0.62950  0.20410  0.36900  Biso   1.000  H
  H54      1.0000 0.37050  0.70410  0.13100  Biso   1.000  H
  H55      1.0000 0.37050  0.79590  0.63100  Biso   1.000  H
  H56      1.0000 0.62950  0.29590  0.86900  Biso   1.000  H
  C45      1.0000 0.55390  0.31070  0.13210  Biso   1.000  C
  C46      1.0000 0.44610  0.81070  0.36790  Biso   1.000  C
  C47      1.0000 0.44610  0.68930  0.86790  Biso   1.000  C
  C48      1.0000 0.55390  0.18930  0.63210  Biso   1.000  C
  H57      1.0000 0.60460  0.27510  0.09850  Biso   1.000  H
  H58      1.0000 0.39540  0.77510  0.40150  Biso   1.000  H
  H59      1.0000 0.39540  0.72490  0.90150  Biso   1.000  H
  H60      1.0000 0.60460  0.22490  0.59850  Biso   1.000  H
  H61      1.0000 0.58930  0.37200  0.19430  Biso   1.000  H
  H62      1.0000 0.41070  0.87200  0.30570  Biso   1.000  H
  H63      1.0000 0.41070  0.62800  0.80570  Biso   1.000  H
  H64      1.0000 0.58930  0.12800  0.69430  Biso   1.000  H
  H65      1.0000 0.49610  0.34820  0.06460  Biso   1.000  H
  H66      1.0000 0.50390  0.84820  0.43540  Biso   1.000  H
  H67      1.0000 0.50390  0.65180  0.93540  Biso   1.000  H
  H68      1.0000 0.49610  0.15180  0.56460  Biso   1.000  H
  N5       1.0000 0.44180  0.11830  0.10270  Biso   1.000  N
  N6       1.0000 0.55820  0.61830  0.39730  Biso   1.000  N
  N7       1.0000 0.55820  0.88170  0.89730  Biso   1.000  N
  N8       1.0000 0.44180  0.38170  0.60270  Biso   1.000  N
