data_image0
_cell_length_a       16.181
_cell_length_b       14.222
_cell_length_c       9.17
_cell_angle_alpha    90
_cell_angle_beta     114.82
_cell_angle_gamma    90

_symmetry_space_group_name_H-M    "P 1"
_symmetry_int_tables_number       1

loop_
  _symmetry_equiv_pos_as_xyz
  'x, y, z'

loop_
  _atom_site_label
  _atom_site_occupancy
  _atom_site_fract_x
  _atom_site_fract_y
  _atom_site_fract_z
  _atom_site_thermal_displace_type
  _atom_site_B_iso_or_equiv
  _atom_site_type_symbol
  Br1      1.0000 0.00000  0.45894  0.25000  Biso   1.000  Br
  Br2      1.0000 0.50000  0.95894  0.25000  Biso   1.000  Br
  Br3      1.0000 0.00000  0.54106  0.75000  Biso   1.000  Br
  Br4      1.0000 0.50000  0.04106  0.75000  Biso   1.000  Br
  Br5      1.0000 0.00000  0.11682  0.25000  Biso   1.000  Br
  Br6      1.0000 0.50000  0.61682  0.25000  Biso   1.000  Br
  Br7      1.0000 0.00000  0.88318  0.75000  Biso   1.000  Br
  Br8      1.0000 0.50000  0.38318  0.75000  Biso   1.000  Br
  Cu1      1.0000 0.00000  0.28388  0.25000  Biso   1.000  Cu
  Cu2      1.0000 0.50000  0.78388  0.25000  Biso   1.000  Cu
  Cu3      1.0000 0.00000  0.71612  0.75000  Biso   1.000  Cu
  Cu4      1.0000 0.50000  0.21612  0.75000  Biso   1.000  Cu
  Cu5      1.0000 0.00000  0.64591  0.25000  Biso   1.000  Cu
  Cu6      1.0000 0.50000  0.14591  0.25000  Biso   1.000  Cu
  Cu7      1.0000 0.00000  0.35409  0.75000  Biso   1.000  Cu
  Cu8      1.0000 0.50000  0.85409  0.75000  Biso   1.000  Cu
  O1       1.0000 0.11000  0.28870  0.44970  Biso   1.000  O
  O2       1.0000 0.61000  0.78870  0.44970  Biso   1.000  O
  O3       1.0000 0.89000  0.28870  0.05030  Biso   1.000  O
  O4       1.0000 0.39000  0.78870  0.05030  Biso   1.000  O
  O5       1.0000 0.89000  0.71130  0.55030  Biso   1.000  O
  O6       1.0000 0.39000  0.21130  0.55030  Biso   1.000  O
  O7       1.0000 0.11000  0.71130  0.94970  Biso   1.000  O
  O8       1.0000 0.61000  0.21130  0.94970  Biso   1.000  O
  O9       1.0000 0.00975  0.30430  0.55490  Biso   1.000  O
  O10      1.0000 0.50975  0.80430  0.55490  Biso   1.000  O
  O11      1.0000 0.99025  0.30430  0.94510  Biso   1.000  O
  O12      1.0000 0.49025  0.80430  0.94510  Biso   1.000  O
  O13      1.0000 0.99025  0.69570  0.44510  Biso   1.000  O
  O14      1.0000 0.49025  0.19570  0.44510  Biso   1.000  O
  O15      1.0000 0.00975  0.69570  0.05490  Biso   1.000  O
  O16      1.0000 0.50975  0.19570  0.05490  Biso   1.000  O
  N1       1.0000 0.13640  0.35410  0.83670  Biso   1.000  N
  N2       1.0000 0.63640  0.85410  0.83670  Biso   1.000  N
  N3       1.0000 0.86360  0.35410  0.66330  Biso   1.000  N
  N4       1.0000 0.36360  0.85410  0.66330  Biso   1.000  N
  N5       1.0000 0.86360  0.64590  0.16330  Biso   1.000  N
  N6       1.0000 0.36360  0.14590  0.16330  Biso   1.000  N
  N7       1.0000 0.13640  0.64590  0.33670  Biso   1.000  N
  N8       1.0000 0.63640  0.14590  0.33670  Biso   1.000  N
  C1       1.0000 0.09010  0.30550  0.56560  Biso   1.000  C
  C2       1.0000 0.59010  0.80550  0.56560  Biso   1.000  C
  C3       1.0000 0.90990  0.30550  0.93440  Biso   1.000  C
  C4       1.0000 0.40990  0.80550  0.93440  Biso   1.000  C
  C5       1.0000 0.90990  0.69450  0.43440  Biso   1.000  C
  C6       1.0000 0.40990  0.19450  0.43440  Biso   1.000  C
  C7       1.0000 0.09010  0.69450  0.06560  Biso   1.000  C
  C8       1.0000 0.59010  0.19450  0.06560  Biso   1.000  C
  C9       1.0000 0.16510  0.32860  0.72600  Biso   1.000  C
  C10      1.0000 0.66510  0.82860  0.72600  Biso   1.000  C
  C11      1.0000 0.83490  0.32860  0.77400  Biso   1.000  C
  C12      1.0000 0.33490  0.82860  0.77400  Biso   1.000  C
  C13      1.0000 0.83490  0.67140  0.27400  Biso   1.000  C
  C14      1.0000 0.33490  0.17140  0.27400  Biso   1.000  C
  C15      1.0000 0.16510  0.67140  0.22600  Biso   1.000  C
  C16      1.0000 0.66510  0.17140  0.22600  Biso   1.000  C
  C17      1.0000 0.25770  0.32450  0.75460  Biso   1.000  C
  C18      1.0000 0.75770  0.82450  0.75460  Biso   1.000  C
  C19      1.0000 0.74230  0.32450  0.74540  Biso   1.000  C
  C20      1.0000 0.24230  0.82450  0.74540  Biso   1.000  C
  C21      1.0000 0.74230  0.67550  0.24540  Biso   1.000  C
  C22      1.0000 0.24230  0.17550  0.24540  Biso   1.000  C
  C23      1.0000 0.25770  0.67550  0.25460  Biso   1.000  C
  C24      1.0000 0.75770  0.17550  0.25460  Biso   1.000  C
  H1       1.0000 0.27520  0.30790  0.67110  Biso   1.000  H
  H2       1.0000 0.77520  0.80790  0.67110  Biso   1.000  H
  H3       1.0000 0.72480  0.30790  0.82890  Biso   1.000  H
  H4       1.0000 0.22480  0.80790  0.82890  Biso   1.000  H
  H5       1.0000 0.72480  0.69210  0.32890  Biso   1.000  H
  H6       1.0000 0.22480  0.19210  0.32890  Biso   1.000  H
  H7       1.0000 0.27520  0.69210  0.17110  Biso   1.000  H
  H8       1.0000 0.77520  0.19210  0.17110  Biso   1.000  H
  C25      1.0000 0.32150  0.34500  0.90490  Biso   1.000  C
  C26      1.0000 0.82150  0.84500  0.90490  Biso   1.000  C
  C27      1.0000 0.67850  0.34500  0.59510  Biso   1.000  C
  C28      1.0000 0.17850  0.84500  0.59510  Biso   1.000  C
  C29      1.0000 0.67850  0.65500  0.09510  Biso   1.000  C
  C30      1.0000 0.17850  0.15500  0.09510  Biso   1.000  C
  C31      1.0000 0.32150  0.65500  0.40490  Biso   1.000  C
  C32      1.0000 0.82150  0.15500  0.40490  Biso   1.000  C
  H9       1.0000 0.38440  0.34090  0.92820  Biso   1.000  H
  H10      1.0000 0.88440  0.84090  0.92820  Biso   1.000  H
  H11      1.0000 0.61560  0.34090  0.57180  Biso   1.000  H
  H12      1.0000 0.11560  0.84090  0.57180  Biso   1.000  H
  H13      1.0000 0.61560  0.65910  0.07180  Biso   1.000  H
  H14      1.0000 0.11560  0.15910  0.07180  Biso   1.000  H
  H15      1.0000 0.38440  0.65910  0.42820  Biso   1.000  H
  H16      1.0000 0.88440  0.15910  0.42820  Biso   1.000  H
  C33      1.0000 0.29430  0.37220  0.02560  Biso   1.000  C
  C34      1.0000 0.79430  0.87220  0.02560  Biso   1.000  C
  C35      1.0000 0.70570  0.37220  0.47440  Biso   1.000  C
  C36      1.0000 0.20570  0.87220  0.47440  Biso   1.000  C
  C37      1.0000 0.70570  0.62780  0.97440  Biso   1.000  C
  C38      1.0000 0.20570  0.12780  0.97440  Biso   1.000  C
  C39      1.0000 0.29430  0.62780  0.52560  Biso   1.000  C
  C40      1.0000 0.79430  0.12780  0.52560  Biso   1.000  C
  C41      1.0000 0.19880  0.37840  0.98730  Biso   1.000  C
  C42      1.0000 0.69880  0.87840  0.98730  Biso   1.000  C
  C43      1.0000 0.80120  0.37840  0.51270  Biso   1.000  C
  C44      1.0000 0.30120  0.87840  0.51270  Biso   1.000  C
  C45      1.0000 0.80120  0.62160  0.01270  Biso   1.000  C
  C46      1.0000 0.30120  0.12160  0.01270  Biso   1.000  C
  C47      1.0000 0.19880  0.62160  0.48730  Biso   1.000  C
  C48      1.0000 0.69880  0.12160  0.48730  Biso   1.000  C
  C49      1.0000 0.35740  0.39410  0.18470  Biso   1.000  C
  C50      1.0000 0.85740  0.89410  0.18470  Biso   1.000  C
  C51      1.0000 0.64260  0.39410  0.31530  Biso   1.000  C
  C52      1.0000 0.14260  0.89410  0.31530  Biso   1.000  C
  C53      1.0000 0.64260  0.60590  0.81530  Biso   1.000  C
  C54      1.0000 0.14260  0.10590  0.81530  Biso   1.000  C
  C55      1.0000 0.35740  0.60590  0.68470  Biso   1.000  C
  C56      1.0000 0.85740  0.10590  0.68470  Biso   1.000  C
  H17      1.0000 0.42080  0.39080  0.21210  Biso   1.000  H
  H18      1.0000 0.92080  0.89080  0.21210  Biso   1.000  H
  H19      1.0000 0.57920  0.39080  0.28790  Biso   1.000  H
  H20      1.0000 0.07920  0.89080  0.28790  Biso   1.000  H
  H21      1.0000 0.57920  0.60920  0.78790  Biso   1.000  H
  H22      1.0000 0.07920  0.10920  0.78790  Biso   1.000  H
  H23      1.0000 0.42080  0.60920  0.71210  Biso   1.000  H
  H24      1.0000 0.92080  0.10920  0.71210  Biso   1.000  H
  C57      1.0000 0.32840  0.41990  0.29920  Biso   1.000  C
  C58      1.0000 0.82840  0.91990  0.29920  Biso   1.000  C
  C59      1.0000 0.67160  0.41990  0.20080  Biso   1.000  C
  C60      1.0000 0.17160  0.91990  0.20080  Biso   1.000  C
  C61      1.0000 0.67160  0.58010  0.70080  Biso   1.000  C
  C62      1.0000 0.17160  0.08010  0.70080  Biso   1.000  C
  C63      1.0000 0.32840  0.58010  0.79920  Biso   1.000  C
  C64      1.0000 0.82840  0.08010  0.79920  Biso   1.000  C
  H25      1.0000 0.37150  0.43300  0.40570  Biso   1.000  H
  H26      1.0000 0.87150  0.93300  0.40570  Biso   1.000  H
  H27      1.0000 0.62850  0.43300  0.09430  Biso   1.000  H
  H28      1.0000 0.12850  0.93300  0.09430  Biso   1.000  H
  H29      1.0000 0.62850  0.56700  0.59430  Biso   1.000  H
  H30      1.0000 0.12850  0.06700  0.59430  Biso   1.000  H
  H31      1.0000 0.37150  0.56700  0.90570  Biso   1.000  H
  H32      1.0000 0.87150  0.06700  0.90570  Biso   1.000  H
  C65      1.0000 0.23400  0.42700  0.25890  Biso   1.000  C
  C66      1.0000 0.73400  0.92700  0.25890  Biso   1.000  C
  C67      1.0000 0.76600  0.42700  0.24110  Biso   1.000  C
  C68      1.0000 0.26600  0.92700  0.24110  Biso   1.000  C
  C69      1.0000 0.76600  0.57300  0.74110  Biso   1.000  C
  C70      1.0000 0.26600  0.07300  0.74110  Biso   1.000  C
  C71      1.0000 0.23400  0.57300  0.75890  Biso   1.000  C
  C72      1.0000 0.73400  0.07300  0.75890  Biso   1.000  C
  H33      1.0000 0.21420  0.44500  0.33880  Biso   1.000  H
  H34      1.0000 0.71420  0.94500  0.33880  Biso   1.000  H
  H35      1.0000 0.78580  0.44500  0.16120  Biso   1.000  H
  H36      1.0000 0.28580  0.94500  0.16120  Biso   1.000  H
  H37      1.0000 0.78580  0.55500  0.66120  Biso   1.000  H
  H38      1.0000 0.28580  0.05500  0.66120  Biso   1.000  H
  H39      1.0000 0.21420  0.55500  0.83880  Biso   1.000  H
  H40      1.0000 0.71420  0.05500  0.83880  Biso   1.000  H
  C73      1.0000 0.17090  0.40820  0.10590  Biso   1.000  C
  C74      1.0000 0.67090  0.90820  0.10590  Biso   1.000  C
  C75      1.0000 0.82910  0.40820  0.39410  Biso   1.000  C
  C76      1.0000 0.32910  0.90820  0.39410  Biso   1.000  C
  C77      1.0000 0.82910  0.59180  0.89410  Biso   1.000  C
  C78      1.0000 0.32910  0.09180  0.89410  Biso   1.000  C
  C79      1.0000 0.17090  0.59180  0.60590  Biso   1.000  C
  C80      1.0000 0.67090  0.09180  0.60590  Biso   1.000  C
  H41      1.0000 0.10790  0.41540  0.07970  Biso   1.000  H
  H42      1.0000 0.60790  0.91540  0.07970  Biso   1.000  H
  H43      1.0000 0.89210  0.41540  0.42030  Biso   1.000  H
  H44      1.0000 0.39210  0.91540  0.42030  Biso   1.000  H
  H45      1.0000 0.89210  0.58460  0.92030  Biso   1.000  H
  H46      1.0000 0.39210  0.08460  0.92030  Biso   1.000  H
  H47      1.0000 0.10790  0.58460  0.57970  Biso   1.000  H
  H48      1.0000 0.60790  0.08460  0.57970  Biso   1.000  H
