data_image0
_cell_length_a       9.792
_cell_length_b       9.792
_cell_length_c       15.381
_cell_angle_alpha    90
_cell_angle_beta     90
_cell_angle_gamma    90

_symmetry_space_group_name_H-M    "P 1"
_symmetry_int_tables_number       1

loop_
  _symmetry_equiv_pos_as_xyz
  'x, y, z'

loop_
  _atom_site_label
  _atom_site_occupancy
  _atom_site_fract_x
  _atom_site_fract_y
  _atom_site_fract_z
  _atom_site_thermal_displace_type
  _atom_site_B_iso_or_equiv
  _atom_site_type_symbol
  Br1      1.0000 0.94028  0.26846  0.20669  Biso   1.000  Br
  Br2      1.0000 0.73154  0.44028  0.70669  Biso   1.000  Br
  Br3      1.0000 0.76846  0.05972  0.70669  Biso   1.000  Br
  Br4      1.0000 0.55972  0.23154  0.20669  Biso   1.000  Br
  Br5      1.0000 0.05972  0.73154  0.79331  Biso   1.000  Br
  Br6      1.0000 0.26846  0.55972  0.29331  Biso   1.000  Br
  Br7      1.0000 0.23154  0.94028  0.29331  Biso   1.000  Br
  Br8      1.0000 0.44028  0.76846  0.79331  Biso   1.000  Br
  Cu1      1.0000 0.73516  0.06290  0.21839  Biso   1.000  Cu
  Cu2      1.0000 0.93710  0.23516  0.71839  Biso   1.000  Cu
  Cu3      1.0000 0.56290  0.26484  0.71839  Biso   1.000  Cu
  Cu4      1.0000 0.76484  0.43710  0.21839  Biso   1.000  Cu
  Cu5      1.0000 0.26484  0.93710  0.78161  Biso   1.000  Cu
  Cu6      1.0000 0.06290  0.76484  0.28161  Biso   1.000  Cu
  Cu7      1.0000 0.43710  0.73516  0.28161  Biso   1.000  Cu
  Cu8      1.0000 0.23516  0.56290  0.78161  Biso   1.000  Cu
  O1       1.0000 0.70241  0.02473  0.34676  Biso   1.000  O
  O2       1.0000 0.97527  0.20241  0.84676  Biso   1.000  O
  O3       1.0000 0.52473  0.29759  0.84676  Biso   1.000  O
  O4       1.0000 0.79759  0.47527  0.34676  Biso   1.000  O
  O5       1.0000 0.29759  0.97527  0.65324  Biso   1.000  O
  O6       1.0000 0.02473  0.79759  0.15324  Biso   1.000  O
  O7       1.0000 0.47527  0.70241  0.15324  Biso   1.000  O
  O8       1.0000 0.20241  0.52473  0.65324  Biso   1.000  O
  O9       1.0000 0.57339  0.88098  0.27119  Biso   1.000  O
  O10      1.0000 0.11902  0.07339  0.77119  Biso   1.000  O
  O11      1.0000 0.38098  0.42661  0.77119  Biso   1.000  O
  O12      1.0000 0.92661  0.61902  0.27119  Biso   1.000  O
  O13      1.0000 0.42661  0.11902  0.72881  Biso   1.000  O
  O14      1.0000 0.88098  0.92661  0.22881  Biso   1.000  O
  O15      1.0000 0.61902  0.57339  0.22881  Biso   1.000  O
  O16      1.0000 0.07339  0.38098  0.72881  Biso   1.000  O
  N1       1.0000 0.48470  0.75300  0.40832  Biso   1.000  N
  N2       1.0000 0.24700  0.98470  0.90832  Biso   1.000  N
  N3       1.0000 0.25300  0.51530  0.90832  Biso   1.000  N
  N4       1.0000 0.01530  0.74700  0.40832  Biso   1.000  N
  N5       1.0000 0.51530  0.24700  0.59168  Biso   1.000  N
  N6       1.0000 0.75300  0.01530  0.09168  Biso   1.000  N
  N7       1.0000 0.74700  0.48470  0.09168  Biso   1.000  N
  N8       1.0000 0.98470  0.25300  0.59168  Biso   1.000  N
  C1       1.0000 0.57720  0.85250  0.42335  Biso   1.000  C
  C2       1.0000 0.14750  0.07720  0.92335  Biso   1.000  C
  C3       1.0000 0.35250  0.42280  0.92335  Biso   1.000  C
  C4       1.0000 0.92280  0.64750  0.42335  Biso   1.000  C
  C5       1.0000 0.42280  0.14750  0.57665  Biso   1.000  C
  C6       1.0000 0.85250  0.92280  0.07665  Biso   1.000  C
  C7       1.0000 0.64750  0.57720  0.07665  Biso   1.000  C
  C8       1.0000 0.07720  0.35250  0.57665  Biso   1.000  C
  C9       1.0000 0.62640  0.88050  0.50584  Biso   1.000  C
  C10      1.0000 0.11950  0.12640  0.00584  Biso   1.000  C
  C11      1.0000 0.38050  0.37360  0.00584  Biso   1.000  C
  C12      1.0000 0.87360  0.61950  0.50584  Biso   1.000  C
  C13      1.0000 0.37360  0.11950  0.49416  Biso   1.000  C
  C14      1.0000 0.88050  0.87360  0.99416  Biso   1.000  C
  C15      1.0000 0.61950  0.62640  0.99416  Biso   1.000  C
  C16      1.0000 0.12640  0.38050  0.49416  Biso   1.000  C
  H1       1.0000 0.69170  0.95080  0.51480  Biso   1.000  H
  H2       1.0000 0.04920  0.19170  0.01480  Biso   1.000  H
  H3       1.0000 0.45080  0.30830  0.01480  Biso   1.000  H
  H4       1.0000 0.80830  0.54920  0.51480  Biso   1.000  H
  H5       1.0000 0.30830  0.04920  0.48520  Biso   1.000  H
  H6       1.0000 0.95080  0.80830  0.98520  Biso   1.000  H
  H7       1.0000 0.54920  0.69170  0.98520  Biso   1.000  H
  H8       1.0000 0.19170  0.45080  0.48520  Biso   1.000  H
  C17      1.0000 0.57810  0.80330  0.57538  Biso   1.000  C
  C18      1.0000 0.19670  0.07810  0.07538  Biso   1.000  C
  C19      1.0000 0.30330  0.42190  0.07538  Biso   1.000  C
  C20      1.0000 0.92190  0.69670  0.57538  Biso   1.000  C
  C21      1.0000 0.42190  0.19670  0.42462  Biso   1.000  C
  C22      1.0000 0.80330  0.92190  0.92462  Biso   1.000  C
  C23      1.0000 0.69670  0.57810  0.92462  Biso   1.000  C
  C24      1.0000 0.07810  0.30330  0.42462  Biso   1.000  C
  H9       1.0000 0.61000  0.82030  0.63270  Biso   1.000  H
  H10      1.0000 0.17970  0.11000  0.13270  Biso   1.000  H
  H11      1.0000 0.32030  0.39000  0.13270  Biso   1.000  H
  H12      1.0000 0.89000  0.67970  0.63270  Biso   1.000  H
  H13      1.0000 0.39000  0.17970  0.36730  Biso   1.000  H
  H14      1.0000 0.82030  0.89000  0.86730  Biso   1.000  H
  H15      1.0000 0.67970  0.61000  0.86730  Biso   1.000  H
  H16      1.0000 0.11000  0.32030  0.36730  Biso   1.000  H
  C25      1.0000 0.48340  0.70220  0.56001  Biso   1.000  C
  C26      1.0000 0.29780  0.98340  0.06001  Biso   1.000  C
  C27      1.0000 0.20220  0.51660  0.06001  Biso   1.000  C
  C28      1.0000 0.01660  0.79780  0.56001  Biso   1.000  C
  C29      1.0000 0.51660  0.29780  0.43999  Biso   1.000  C
  C30      1.0000 0.70220  0.01660  0.93999  Biso   1.000  C
  C31      1.0000 0.79780  0.48340  0.93999  Biso   1.000  C
  C32      1.0000 0.98340  0.20220  0.43999  Biso   1.000  C
  H17      1.0000 0.44920  0.64860  0.60660  Biso   1.000  H
  H18      1.0000 0.35140  0.94920  0.10660  Biso   1.000  H
  H19      1.0000 0.14860  0.55080  0.10660  Biso   1.000  H
  H20      1.0000 0.05080  0.85140  0.60660  Biso   1.000  H
  H21      1.0000 0.55080  0.35140  0.39340  Biso   1.000  H
  H22      1.0000 0.64860  0.05080  0.89340  Biso   1.000  H
  H23      1.0000 0.85140  0.44920  0.89340  Biso   1.000  H
  H24      1.0000 0.94920  0.14860  0.39340  Biso   1.000  H
  C33      1.0000 0.43850  0.67950  0.47571  Biso   1.000  C
  C34      1.0000 0.32050  0.93850  0.97571  Biso   1.000  C
  C35      1.0000 0.17950  0.56150  0.97571  Biso   1.000  C
  C36      1.0000 0.06150  0.82050  0.47571  Biso   1.000  C
  C37      1.0000 0.56150  0.32050  0.52429  Biso   1.000  C
  C38      1.0000 0.67950  0.06150  0.02429  Biso   1.000  C
  C39      1.0000 0.82050  0.43850  0.02429  Biso   1.000  C
  C40      1.0000 0.93850  0.17950  0.52429  Biso   1.000  C
  H25      1.0000 0.37300  0.60970  0.46540  Biso   1.000  H
  H26      1.0000 0.39030  0.87300  0.96540  Biso   1.000  H
  H27      1.0000 0.10970  0.62700  0.96540  Biso   1.000  H
  H28      1.0000 0.12700  0.89030  0.46540  Biso   1.000  H
  H29      1.0000 0.62700  0.39030  0.53460  Biso   1.000  H
  H30      1.0000 0.60970  0.12700  0.03460  Biso   1.000  H
  H31      1.0000 0.89030  0.37300  0.03460  Biso   1.000  H
  H32      1.0000 0.87300  0.10970  0.53460  Biso   1.000  H
  C41      1.0000 0.62080  0.92560  0.34261  Biso   1.000  C
  C42      1.0000 0.07440  0.12080  0.84261  Biso   1.000  C
  C43      1.0000 0.42560  0.37920  0.84261  Biso   1.000  C
  C44      1.0000 0.87920  0.57440  0.34261  Biso   1.000  C
  C45      1.0000 0.37920  0.07440  0.65739  Biso   1.000  C
  C46      1.0000 0.92560  0.87920  0.15739  Biso   1.000  C
  C47      1.0000 0.57440  0.62080  0.15739  Biso   1.000  C
  C48      1.0000 0.12080  0.42560  0.65739  Biso   1.000  C
