data_image0
_cell_length_a       12.9994
_cell_length_b       8.1914
_cell_length_c       13.8142
_cell_angle_alpha    90
_cell_angle_beta     113.082
_cell_angle_gamma    90

_symmetry_space_group_name_H-M    "P 1"
_symmetry_int_tables_number       1

loop_
  _symmetry_equiv_pos_as_xyz
  'x, y, z'

loop_
  _atom_site_label
  _atom_site_occupancy
  _atom_site_fract_x
  _atom_site_fract_y
  _atom_site_fract_z
  _atom_site_thermal_displace_type
  _atom_site_B_iso_or_equiv
  _atom_site_type_symbol
  Cu1      1.0000 0.72943  0.51284  0.10610  Biso   1.000  Cu
  Cu2      1.0000 0.27057  0.01284  0.39390  Biso   1.000  Cu
  Cu3      1.0000 0.27057  0.48716  0.89390  Biso   1.000  Cu
  Cu4      1.0000 0.72943  0.98716  0.60610  Biso   1.000  Cu
  S1       1.0000 0.61345  0.09614  0.68129  Biso   1.000  S
  S2       1.0000 0.38655  0.59614  0.81871  Biso   1.000  S
  S3       1.0000 0.38655  0.90386  0.31871  Biso   1.000  S
  S4       1.0000 0.61345  0.40386  0.18129  Biso   1.000  S
  N1       1.0000 0.81192  0.59250  0.02072  Biso   1.000  N
  N2       1.0000 0.18808  0.09250  0.47928  Biso   1.000  N
  N3       1.0000 0.18808  0.40750  0.97928  Biso   1.000  N
  N4       1.0000 0.81192  0.90750  0.52072  Biso   1.000  N
  O1       1.0000 0.63036  0.36140  0.97137  Biso   1.000  O
  O2       1.0000 0.36964  0.86140  0.52863  Biso   1.000  O
  O3       1.0000 0.36964  0.63860  0.02863  Biso   1.000  O
  O4       1.0000 0.63036  0.13860  0.47137  Biso   1.000  O
  C1       1.0000 0.84850  0.74650  0.03340  Biso   1.000  C
  C2       1.0000 0.15150  0.24650  0.46660  Biso   1.000  C
  C3       1.0000 0.15150  0.25350  0.96660  Biso   1.000  C
  C4       1.0000 0.84850  0.75350  0.53340  Biso   1.000  C
  H1       1.0000 0.83688  0.81298  0.08456  Biso   1.000  H
  H2       1.0000 0.16312  0.31298  0.41544  Biso   1.000  H
  H3       1.0000 0.16312  0.18702  0.91544  Biso   1.000  H
  H4       1.0000 0.83688  0.68702  0.58456  Biso   1.000  H
  C5       1.0000 0.90310  0.81220  0.97370  Biso   1.000  C
  C6       1.0000 0.09690  0.31220  0.52630  Biso   1.000  C
  C7       1.0000 0.09690  0.18780  0.02630  Biso   1.000  C
  C8       1.0000 0.90310  0.68780  0.47370  Biso   1.000  C
  H5       1.0000 0.92844  0.92217  0.98397  Biso   1.000  H
  H6       1.0000 0.07156  0.42217  0.51603  Biso   1.000  H
  H7       1.0000 0.07156  0.07783  0.01603  Biso   1.000  H
  H8       1.0000 0.92844  0.57783  0.48397  Biso   1.000  H
  C9       1.0000 0.92020  0.71630  0.89950  Biso   1.000  C
  C10      1.0000 0.07980  0.21630  0.60050  Biso   1.000  C
  C11      1.0000 0.07980  0.28370  0.10050  Biso   1.000  C
  C12      1.0000 0.92020  0.78370  0.39950  Biso   1.000  C
  H9       1.0000 0.95506  0.75990  0.85621  Biso   1.000  H
  H10      1.0000 0.04494  0.25990  0.64379  Biso   1.000  H
  H11      1.0000 0.04494  0.24010  0.14379  Biso   1.000  H
  H12      1.0000 0.95506  0.74010  0.35621  Biso   1.000  H
  C13      1.0000 0.88550  0.55490  0.88910  Biso   1.000  C
  C14      1.0000 0.11450  0.05490  0.61090  Biso   1.000  C
  C15      1.0000 0.11450  0.44510  0.11090  Biso   1.000  C
  C16      1.0000 0.88550  0.94510  0.38910  Biso   1.000  C
  H13      1.0000 0.89791  0.48563  0.83952  Biso   1.000  H
  H14      1.0000 0.10209  0.98563  0.66048  Biso   1.000  H
  H15      1.0000 0.10209  0.51437  0.16048  Biso   1.000  H
  H16      1.0000 0.89791  0.01437  0.33952  Biso   1.000  H
  C17      1.0000 0.83230  0.49490  0.95210  Biso   1.000  C
  C18      1.0000 0.16770  0.99490  0.54790  Biso   1.000  C
  C19      1.0000 0.16770  0.50510  0.04790  Biso   1.000  C
  C20      1.0000 0.83230  0.00510  0.45210  Biso   1.000  C
  C21      1.0000 0.79750  0.31960  0.94570  Biso   1.000  C
  C22      1.0000 0.20250  0.81960  0.55430  Biso   1.000  C
  C23      1.0000 0.20250  0.68040  0.05430  Biso   1.000  C
  C24      1.0000 0.79750  0.18040  0.44570  Biso   1.000  C
  H17      1.0000 0.82852  0.27281  0.01752  Biso   1.000  H
  H18      1.0000 0.17148  0.77281  0.48248  Biso   1.000  H
  H19      1.0000 0.17148  0.72719  0.98248  Biso   1.000  H
  H20      1.0000 0.82852  0.22719  0.51752  Biso   1.000  H
  H21      1.0000 0.83114  0.25961  0.90319  Biso   1.000  H
  H22      1.0000 0.16886  0.75961  0.59681  Biso   1.000  H
  H23      1.0000 0.16886  0.74039  0.09681  Biso   1.000  H
  H24      1.0000 0.83114  0.24039  0.40319  Biso   1.000  H
  C25      1.0000 0.67050  0.29020  0.89790  Biso   1.000  C
  C26      1.0000 0.32950  0.79020  0.60210  Biso   1.000  C
  C27      1.0000 0.32950  0.70980  0.10210  Biso   1.000  C
  C28      1.0000 0.67050  0.20980  0.39790  Biso   1.000  C
  C29      1.0000 0.64360  0.10880  0.89060  Biso   1.000  C
  C30      1.0000 0.35640  0.60880  0.60940  Biso   1.000  C
  C31      1.0000 0.35640  0.89120  0.10940  Biso   1.000  C
  C32      1.0000 0.64360  0.39120  0.39060  Biso   1.000  C
  H25      1.0000 0.56185  0.09533  0.86858  Biso   1.000  H
  H26      1.0000 0.43815  0.59533  0.63142  Biso   1.000  H
  H27      1.0000 0.43815  0.90467  0.13142  Biso   1.000  H
  H28      1.0000 0.56185  0.40467  0.36858  Biso   1.000  H
  H29      1.0000 0.68041  0.05979  0.96135  Biso   1.000  H
  H30      1.0000 0.31959  0.55979  0.53865  Biso   1.000  H
  H31      1.0000 0.31959  0.94021  0.03865  Biso   1.000  H
  H32      1.0000 0.68041  0.44021  0.46135  Biso   1.000  H
  C33      1.0000 0.68020  0.01590  0.81400  Biso   1.000  C
  C34      1.0000 0.31980  0.51590  0.68600  Biso   1.000  C
  C35      1.0000 0.31980  0.98410  0.18600  Biso   1.000  C
  C36      1.0000 0.68020  0.48410  0.31400  Biso   1.000  C
  H33      1.0000 0.66073  0.89906  0.81423  Biso   1.000  H
  H34      1.0000 0.33927  0.39906  0.68577  Biso   1.000  H
  H35      1.0000 0.33927  0.10094  0.18577  Biso   1.000  H
  H36      1.0000 0.66073  0.60094  0.31423  Biso   1.000  H
  H37      1.0000 0.76238  0.02404  0.83734  Biso   1.000  H
  H38      1.0000 0.23762  0.52404  0.66266  Biso   1.000  H
  H39      1.0000 0.23762  0.97596  0.16266  Biso   1.000  H
  H40      1.0000 0.76238  0.47596  0.33734  Biso   1.000  H
  C37      1.0000 0.64830  0.30950  0.70550  Biso   1.000  C
  C38      1.0000 0.35170  0.80950  0.79450  Biso   1.000  C
  C39      1.0000 0.35170  0.69050  0.29450  Biso   1.000  C
  C40      1.0000 0.64830  0.19050  0.20550  Biso   1.000  C
  H41      1.0000 0.72993  0.32405  0.72743  Biso   1.000  H
  H42      1.0000 0.27007  0.82405  0.77257  Biso   1.000  H
  H43      1.0000 0.27007  0.67595  0.27257  Biso   1.000  H
  H44      1.0000 0.72993  0.17595  0.22743  Biso   1.000  H
  H45      1.0000 0.61006  0.37235  0.63993  Biso   1.000  H
  H46      1.0000 0.38994  0.87235  0.86007  Biso   1.000  H
  H47      1.0000 0.38994  0.62765  0.36007  Biso   1.000  H
  H48      1.0000 0.61006  0.12765  0.13993  Biso   1.000  H
  C41      1.0000 0.61280  0.37470  0.79170  Biso   1.000  C
  C42      1.0000 0.38720  0.87470  0.70830  Biso   1.000  C
  C43      1.0000 0.38720  0.62530  0.20830  Biso   1.000  C
  C44      1.0000 0.61280  0.12530  0.29170  Biso   1.000  C
  H49      1.0000 0.62940  0.49303  0.80077  Biso   1.000  H
  H50      1.0000 0.37060  0.99303  0.69923  Biso   1.000  H
  H51      1.0000 0.37060  0.50697  0.19923  Biso   1.000  H
  H52      1.0000 0.62940  0.00697  0.30077  Biso   1.000  H
  H53      1.0000 0.53092  0.36126  0.76847  Biso   1.000  H
  H54      1.0000 0.46908  0.86126  0.73153  Biso   1.000  H
  H55      1.0000 0.46908  0.63874  0.23153  Biso   1.000  H
  H56      1.0000 0.53092  0.13874  0.26847  Biso   1.000  H
  Cl1      1.0000 0.88900  0.40182  0.22838  Biso   1.000  Cl
  Cl2      1.0000 0.11100  0.90182  0.27162  Biso   1.000  Cl
  Cl3      1.0000 0.11100  0.59818  0.77162  Biso   1.000  Cl
  Cl4      1.0000 0.88900  0.09818  0.72838  Biso   1.000  Cl
  Cl5      1.0000 0.62345  0.75074  0.08694  Biso   1.000  Cl
  Cl6      1.0000 0.37655  0.25074  0.41306  Biso   1.000  Cl
  Cl7      1.0000 0.37655  0.24926  0.91306  Biso   1.000  Cl
  Cl8      1.0000 0.62345  0.74926  0.58694  Biso   1.000  Cl
  H57      1.0000 0.57700  0.35100  0.95500  Biso   1.000  H
  H58      1.0000 0.42300  0.85100  0.54500  Biso   1.000  H
  H59      1.0000 0.42300  0.64900  0.04500  Biso   1.000  H
  H60      1.0000 0.57700  0.14900  0.45500  Biso   1.000  H
