data_image0
_cell_length_a       9.013
_cell_length_b       16.404
_cell_length_c       19.319
_cell_angle_alpha    90
_cell_angle_beta     98.196
_cell_angle_gamma    90

_symmetry_space_group_name_H-M    "P 1"
_symmetry_int_tables_number       1

loop_
  _symmetry_equiv_pos_as_xyz
  'x, y, z'

loop_
  _atom_site_label
  _atom_site_occupancy
  _atom_site_fract_x
  _atom_site_fract_y
  _atom_site_fract_z
  _atom_site_thermal_displace_type
  _atom_site_B_iso_or_equiv
  _atom_site_type_symbol
  Cu1      1.0000 0.54926  0.36766  0.08877  Biso   1.000  Cu
  Cu2      1.0000 0.45074  0.86766  0.41123  Biso   1.000  Cu
  Cu3      1.0000 0.45074  0.63234  0.91123  Biso   1.000  Cu
  Cu4      1.0000 0.54926  0.13234  0.58877  Biso   1.000  Cu
  Cu5      1.0000 0.00000  0.50000  0.00000  Biso   1.000  Cu
  Cu6      1.0000 0.00000  0.00000  0.50000  Biso   1.000  Cu
  N1       1.0000 0.71420  0.33000  0.04200  Biso   1.000  N
  N2       1.0000 0.28580  0.83000  0.45800  Biso   1.000  N
  N3       1.0000 0.28580  0.67000  0.95800  Biso   1.000  N
  N4       1.0000 0.71420  0.17000  0.54200  Biso   1.000  N
  N5       1.0000 0.45920  0.26130  0.08810  Biso   1.000  N
  N6       1.0000 0.54080  0.76130  0.41190  Biso   1.000  N
  N7       1.0000 0.54080  0.73870  0.91190  Biso   1.000  N
  N8       1.0000 0.45920  0.23870  0.58810  Biso   1.000  N
  N9       1.0000 0.37290  0.40300  0.12740  Biso   1.000  N
  N10      1.0000 0.62710  0.90300  0.37260  Biso   1.000  N
  N11      1.0000 0.62710  0.59700  0.87260  Biso   1.000  N
  N12      1.0000 0.37290  0.09700  0.62740  Biso   1.000  N
  N13      1.0000 0.61940  0.47800  0.07730  Biso   1.000  N
  N14      1.0000 0.38060  0.97800  0.42270  Biso   1.000  N
  N15      1.0000 0.38060  0.52200  0.92270  Biso   1.000  N
  N16      1.0000 0.61940  0.02200  0.57730  Biso   1.000  N
  O1       1.0000 0.91980  0.39170  0.00770  Biso   1.000  O
  O2       1.0000 0.08020  0.89170  0.49230  Biso   1.000  O
  O3       1.0000 0.08020  0.60830  0.99230  Biso   1.000  O
  O4       1.0000 0.91980  0.10830  0.50770  Biso   1.000  O
  O5       1.0000 0.81010  0.53430  0.02590  Biso   1.000  O
  O6       1.0000 0.18990  0.03430  0.47410  Biso   1.000  O
  O7       1.0000 0.18990  0.46570  0.97410  Biso   1.000  O
  O8       1.0000 0.81010  0.96570  0.52590  Biso   1.000  O
  O9       1.0000 0.33820  0.09020  0.03430  Biso   1.000  O
  O10      1.0000 0.66180  0.59020  0.46570  Biso   1.000  O
  O11      1.0000 0.66180  0.90980  0.96570  Biso   1.000  O
  O12      1.0000 0.33820  0.40980  0.53430  Biso   1.000  O
  O13      1.0000 0.46070  0.08520  0.14390  Biso   1.000  O
  O14      1.0000 0.53930  0.58520  0.35610  Biso   1.000  O
  O15      1.0000 0.53930  0.91480  0.85610  Biso   1.000  O
  O16      1.0000 0.46070  0.41480  0.64390  Biso   1.000  O
  O17      1.0000 0.07190  0.50010  0.12860  Biso   1.000  O
  O18      1.0000 0.92810  0.00010  0.37140  Biso   1.000  O
  O19      1.0000 0.92810  0.49990  0.87140  Biso   1.000  O
  O20      1.0000 0.07190  0.99990  0.62860  Biso   1.000  O
  O21      1.0000 0.20580  0.48890  0.23490  Biso   1.000  O
  O22      1.0000 0.79420  0.98890  0.26510  Biso   1.000  O
  O23      1.0000 0.79420  0.51110  0.76510  Biso   1.000  O
  O24      1.0000 0.20580  0.01110  0.73490  Biso   1.000  O
  C1       1.0000 0.75170  0.24770  0.02860  Biso   1.000  C
  C2       1.0000 0.24830  0.74770  0.47140  Biso   1.000  C
  C3       1.0000 0.24830  0.75230  0.97140  Biso   1.000  C
  C4       1.0000 0.75170  0.25230  0.52860  Biso   1.000  C
  C5       1.0000 0.88030  0.22730  0.99880  Biso   1.000  C
  C6       1.0000 0.11970  0.72730  0.50120  Biso   1.000  C
  C7       1.0000 0.11970  0.77270  0.00120  Biso   1.000  C
  C8       1.0000 0.88030  0.27270  0.49880  Biso   1.000  C
  H1       1.0000 0.94170  0.26870  0.98620  Biso   1.000  H
  H2       1.0000 0.05830  0.76870  0.51380  Biso   1.000  H
  H3       1.0000 0.05830  0.73130  0.01380  Biso   1.000  H
  H4       1.0000 0.94170  0.23130  0.48620  Biso   1.000  H
  C9       1.0000 0.91730  0.14800  0.98790  Biso   1.000  C
  C10      1.0000 0.08270  0.64800  0.51210  Biso   1.000  C
  C11      1.0000 0.08270  0.85200  0.01210  Biso   1.000  C
  C12      1.0000 0.91730  0.35200  0.48790  Biso   1.000  C
  H5       1.0000 0.00440  0.13650  0.96900  Biso   1.000  H
  H6       1.0000 0.99560  0.63650  0.53100  Biso   1.000  H
  H7       1.0000 0.99560  0.86350  0.03100  Biso   1.000  H
  H8       1.0000 0.00440  0.36350  0.46900  Biso   1.000  H
  C13      1.0000 0.82870  0.08520  0.00420  Biso   1.000  C
  C14      1.0000 0.17130  0.58520  0.49580  Biso   1.000  C
  C15      1.0000 0.17130  0.91480  0.99580  Biso   1.000  C
  C16      1.0000 0.82870  0.41480  0.50420  Biso   1.000  C
  H9       1.0000 0.85480  0.03130  0.99730  Biso   1.000  H
  H10      1.0000 0.14520  0.53130  0.50270  Biso   1.000  H
  H11      1.0000 0.14520  0.96870  0.00270  Biso   1.000  H
  H12      1.0000 0.85480  0.46870  0.49730  Biso   1.000  H
  C17      1.0000 0.69920  0.10430  0.03140  Biso   1.000  C
  C18      1.0000 0.30080  0.60430  0.46860  Biso   1.000  C
  C19      1.0000 0.30080  0.89570  0.96860  Biso   1.000  C
  C20      1.0000 0.69920  0.39570  0.53140  Biso   1.000  C
  H13      1.0000 0.63700  0.06190  0.04120  Biso   1.000  H
  H14      1.0000 0.36300  0.56190  0.45880  Biso   1.000  H
  H15      1.0000 0.36300  0.93810  0.95880  Biso   1.000  H
  H16      1.0000 0.63700  0.43810  0.54120  Biso   1.000  H
  C21      1.0000 0.65670  0.18420  0.04490  Biso   1.000  C
  C22      1.0000 0.34330  0.68420  0.45510  Biso   1.000  C
  C23      1.0000 0.34330  0.81580  0.95510  Biso   1.000  C
  C24      1.0000 0.65670  0.31580  0.54490  Biso   1.000  C
  C25      1.0000 0.51390  0.19380  0.07240  Biso   1.000  C
  C26      1.0000 0.48610  0.69380  0.42760  Biso   1.000  C
  C27      1.0000 0.48610  0.80620  0.92760  Biso   1.000  C
  C28      1.0000 0.51390  0.30620  0.57240  Biso   1.000  C
  C29      1.0000 0.29440  0.26950  0.10320  Biso   1.000  C
  C30      1.0000 0.70560  0.76950  0.39680  Biso   1.000  C
  C31      1.0000 0.70560  0.73050  0.89680  Biso   1.000  C
  C32      1.0000 0.29440  0.23050  0.60320  Biso   1.000  C
  H17      1.0000 0.22730  0.27350  0.05940  Biso   1.000  H
  H18      1.0000 0.77270  0.77350  0.44060  Biso   1.000  H
  H19      1.0000 0.77270  0.72650  0.94060  Biso   1.000  H
  H20      1.0000 0.22730  0.22650  0.55940  Biso   1.000  H
  H21      1.0000 0.26720  0.22140  0.12770  Biso   1.000  H
  H22      1.0000 0.73280  0.72140  0.37230  Biso   1.000  H
  H23      1.0000 0.73280  0.77860  0.87230  Biso   1.000  H
  H24      1.0000 0.26720  0.27860  0.62770  Biso   1.000  H
  C33      1.0000 0.27990  0.33330  0.14060  Biso   1.000  C
  C34      1.0000 0.72010  0.83330  0.35940  Biso   1.000  C
  C35      1.0000 0.72010  0.66670  0.85940  Biso   1.000  C
  C36      1.0000 0.27990  0.16670  0.64060  Biso   1.000  C
  H25      1.0000 0.17490  0.34820  0.14160  Biso   1.000  H
  H26      1.0000 0.82510  0.84820  0.35840  Biso   1.000  H
  H27      1.0000 0.82510  0.65180  0.85840  Biso   1.000  H
  H28      1.0000 0.17490  0.15180  0.64160  Biso   1.000  H
  C37      1.0000 0.33520  0.47610  0.13880  Biso   1.000  C
  C38      1.0000 0.66480  0.97610  0.36120  Biso   1.000  C
  C39      1.0000 0.66480  0.52390  0.86120  Biso   1.000  C
  C40      1.0000 0.33520  0.02390  0.63880  Biso   1.000  C
  C41      1.0000 0.42040  0.55050  0.12680  Biso   1.000  C
  C42      1.0000 0.57960  0.05050  0.37320  Biso   1.000  C
  C43      1.0000 0.57960  0.44950  0.87320  Biso   1.000  C
  C44      1.0000 0.42040  0.94950  0.62680  Biso   1.000  C
  C45      1.0000 0.36110  0.62510  0.14670  Biso   1.000  C
  C46      1.0000 0.63890  0.12510  0.35330  Biso   1.000  C
  C47      1.0000 0.63890  0.37490  0.85330  Biso   1.000  C
  C48      1.0000 0.36110  0.87490  0.64670  Biso   1.000  C
  H29      1.0000 0.27220  0.62450  0.16590  Biso   1.000  H
  H30      1.0000 0.72780  0.12450  0.33410  Biso   1.000  H
  H31      1.0000 0.72780  0.37550  0.83410  Biso   1.000  H
  H32      1.0000 0.27220  0.87550  0.66590  Biso   1.000  H
  C49      1.0000 0.42880  0.69810  0.13890  Biso   1.000  C
  C50      1.0000 0.57120  0.19810  0.36110  Biso   1.000  C
  C51      1.0000 0.57120  0.30190  0.86110  Biso   1.000  C
  C52      1.0000 0.42880  0.80190  0.63890  Biso   1.000  C
  H33      1.0000 0.38560  0.74650  0.15130  Biso   1.000  H
  H34      1.0000 0.61440  0.24650  0.34870  Biso   1.000  H
  H35      1.0000 0.61440  0.25350  0.84870  Biso   1.000  H
  H36      1.0000 0.38560  0.75350  0.65130  Biso   1.000  H
  C53      1.0000 0.55990  0.69860  0.11290  Biso   1.000  C
  C54      1.0000 0.44010  0.19860  0.38710  Biso   1.000  C
  C55      1.0000 0.44010  0.30140  0.88710  Biso   1.000  C
  C56      1.0000 0.55990  0.80140  0.61290  Biso   1.000  C
  H37      1.0000 0.60820  0.74800  0.10820  Biso   1.000  H
  H38      1.0000 0.39180  0.24800  0.39180  Biso   1.000  H
  H39      1.0000 0.39180  0.25200  0.89180  Biso   1.000  H
  H40      1.0000 0.60820  0.75200  0.60820  Biso   1.000  H
  C57      1.0000 0.62460  0.62670  0.09300  Biso   1.000  C
  C58      1.0000 0.37540  0.12670  0.40700  Biso   1.000  C
  C59      1.0000 0.37540  0.37330  0.90700  Biso   1.000  C
  C60      1.0000 0.62460  0.87330  0.59300  Biso   1.000  C
  H41      1.0000 0.71540  0.62920  0.07550  Biso   1.000  H
  H42      1.0000 0.28460  0.12920  0.42450  Biso   1.000  H
  H43      1.0000 0.28460  0.37080  0.92450  Biso   1.000  H
  H44      1.0000 0.71540  0.87080  0.57550  Biso   1.000  H
  C61      1.0000 0.55670  0.55150  0.09860  Biso   1.000  C
  C62      1.0000 0.44330  0.05150  0.40140  Biso   1.000  C
  C63      1.0000 0.44330  0.44850  0.90140  Biso   1.000  C
  C64      1.0000 0.55670  0.94850  0.59860  Biso   1.000  C
  C65      1.0000 0.73820  0.47590  0.04600  Biso   1.000  C
  C66      1.0000 0.26180  0.97590  0.45400  Biso   1.000  C
  C67      1.0000 0.26180  0.52410  0.95400  Biso   1.000  C
  C68      1.0000 0.73820  0.02410  0.54600  Biso   1.000  C
  C69      1.0000 0.79710  0.39250  0.03030  Biso   1.000  C
  C70      1.0000 0.20290  0.89250  0.46970  Biso   1.000  C
  C71      1.0000 0.20290  0.60750  0.96970  Biso   1.000  C
  C72      1.0000 0.79710  0.10750  0.53030  Biso   1.000  C
  C73      1.0000 0.42780  0.11530  0.08100  Biso   1.000  C
  C74      1.0000 0.57220  0.61530  0.41900  Biso   1.000  C
  C75      1.0000 0.57220  0.88470  0.91900  Biso   1.000  C
  C76      1.0000 0.42780  0.38470  0.58100  Biso   1.000  C
  C77      1.0000 0.37300  0.01350  0.16820  Biso   1.000  C
  C78      1.0000 0.62700  0.51350  0.33180  Biso   1.000  C
  C79      1.0000 0.62700  0.98650  0.83180  Biso   1.000  C
  C80      1.0000 0.37300  0.48650  0.66820  Biso   1.000  C
  H45      1.0000 0.27290  0.01130  0.14190  Biso   1.000  H
  H46      1.0000 0.72710  0.51130  0.35810  Biso   1.000  H
  H47      1.0000 0.72710  0.98870  0.85810  Biso   1.000  H
  H48      1.0000 0.27290  0.48870  0.64190  Biso   1.000  H
  H49      1.0000 0.36420  0.01890  0.21750  Biso   1.000  H
  H50      1.0000 0.63580  0.51890  0.28250  Biso   1.000  H
  H51      1.0000 0.63580  0.98110  0.78250  Biso   1.000  H
  H52      1.0000 0.36420  0.48110  0.71750  Biso   1.000  H
  C81      1.0000 0.46100  0.93660  0.15530  Biso   1.000  C
  C82      1.0000 0.53900  0.43660  0.34470  Biso   1.000  C
  C83      1.0000 0.53900  0.06340  0.84470  Biso   1.000  C
  C84      1.0000 0.46100  0.56340  0.65530  Biso   1.000  C
  H53      1.0000 0.40820  0.88940  0.16780  Biso   1.000  H
  H54      1.0000 0.59180  0.38940  0.33220  Biso   1.000  H
  H55      1.0000 0.59180  0.11060  0.83220  Biso   1.000  H
  H56      1.0000 0.40820  0.61060  0.66780  Biso   1.000  H
  H57      1.0000 0.55830  0.93860  0.18320  Biso   1.000  H
  H58      1.0000 0.44170  0.43860  0.31680  Biso   1.000  H
  H59      1.0000 0.44170  0.06140  0.81680  Biso   1.000  H
  H60      1.0000 0.55830  0.56140  0.68320  Biso   1.000  H
  H61      1.0000 0.47310  0.93360  0.10670  Biso   1.000  H
  H62      1.0000 0.52690  0.43360  0.39330  Biso   1.000  H
  H63      1.0000 0.52690  0.06640  0.89330  Biso   1.000  H
  H64      1.0000 0.47310  0.56640  0.60670  Biso   1.000  H
  C85      1.0000 0.35790  0.28720  0.21380  Biso   1.000  C
  C86      1.0000 0.64210  0.78720  0.28620  Biso   1.000  C
  C87      1.0000 0.64210  0.71280  0.78620  Biso   1.000  C
  C88      1.0000 0.35790  0.21280  0.71380  Biso   1.000  C
  H65      1.0000 0.29830  0.24090  0.22280  Biso   1.000  H
  H66      1.0000 0.70170  0.74090  0.27720  Biso   1.000  H
  H67      1.0000 0.70170  0.75910  0.77720  Biso   1.000  H
  H68      1.0000 0.29830  0.25910  0.72280  Biso   1.000  H
  H69      1.0000 0.36300  0.32470  0.25230  Biso   1.000  H
  H70      1.0000 0.63700  0.82470  0.24770  Biso   1.000  H
  H71      1.0000 0.63700  0.67530  0.74770  Biso   1.000  H
  H72      1.0000 0.36300  0.17530  0.75230  Biso   1.000  H
  H73      1.0000 0.45710  0.26950  0.20850  Biso   1.000  H
  H74      1.0000 0.54290  0.76950  0.29150  Biso   1.000  H
  H75      1.0000 0.54290  0.73050  0.79150  Biso   1.000  H
  H76      1.0000 0.45710  0.23050  0.70850  Biso   1.000  H
  C89      1.0000 0.18810  0.49100  0.16800  Biso   1.000  C
  C90      1.0000 0.81190  0.99100  0.33200  Biso   1.000  C
  C91      1.0000 0.81190  0.50900  0.83200  Biso   1.000  C
  C92      1.0000 0.18810  0.00900  0.66800  Biso   1.000  C
  C93      1.0000 0.06180  0.50360  0.26420  Biso   1.000  C
  C94      1.0000 0.93820  0.00360  0.23580  Biso   1.000  C
  C95      1.0000 0.93820  0.49640  0.73580  Biso   1.000  C
  C96      1.0000 0.06180  0.99640  0.76420  Biso   1.000  C
  H77      1.0000 0.03260  0.56050  0.25990  Biso   1.000  H
  H78      1.0000 0.96740  0.06050  0.24010  Biso   1.000  H
  H79      1.0000 0.96740  0.43950  0.74010  Biso   1.000  H
  H80      1.0000 0.03260  0.93950  0.75990  Biso   1.000  H
  H81      1.0000 0.98120  0.47030  0.24060  Biso   1.000  H
  H82      1.0000 0.01880  0.97030  0.25940  Biso   1.000  H
  H83      1.0000 0.01880  0.52970  0.75940  Biso   1.000  H
  H84      1.0000 0.98120  0.02970  0.74060  Biso   1.000  H
  C97      1.0000 0.09800  0.48100  0.33480  Biso   1.000  C
  C98      1.0000 0.90200  0.98100  0.16520  Biso   1.000  C
  C99      1.0000 0.90200  0.51900  0.66520  Biso   1.000  C
  C100     1.0000 0.09800  0.01900  0.83480  Biso   1.000  C
  H85      1.0000 0.01100  0.48750  0.35800  Biso   1.000  H
  H86      1.0000 0.98900  0.98750  0.14200  Biso   1.000  H
  H87      1.0000 0.98900  0.51250  0.64200  Biso   1.000  H
  H88      1.0000 0.01100  0.01250  0.85800  Biso   1.000  H
  H89      1.0000 0.17750  0.51460  0.35700  Biso   1.000  H
  H90      1.0000 0.82250  0.01460  0.14300  Biso   1.000  H
  H91      1.0000 0.82250  0.48540  0.64300  Biso   1.000  H
  H92      1.0000 0.17750  0.98540  0.85700  Biso   1.000  H
  H93      1.0000 0.12860  0.42480  0.33760  Biso   1.000  H
  H94      1.0000 0.87140  0.92480  0.16240  Biso   1.000  H
  H95      1.0000 0.87140  0.57520  0.66240  Biso   1.000  H
  H96      1.0000 0.12860  0.07520  0.83760  Biso   1.000  H
  Cl1      1.0000 0.83500  0.29610  0.23050  Biso   1.000  Cl
  Cl2      1.0000 0.16500  0.79610  0.26950  Biso   1.000  Cl
  Cl3      1.0000 0.16500  0.70390  0.76950  Biso   1.000  Cl
  Cl4      1.0000 0.83500  0.20390  0.73050  Biso   1.000  Cl
  O25      1.0000 0.71400  0.35570  0.20540  Biso   1.000  O
  O26      1.0000 0.28600  0.85570  0.29460  Biso   1.000  O
  O27      1.0000 0.28600  0.64430  0.79460  Biso   1.000  O
  O28      1.0000 0.71400  0.14430  0.70540  Biso   1.000  O
  O29      1.0000 0.76660  0.22040  0.21500  Biso   1.000  O
  O30      1.0000 0.23340  0.72040  0.28500  Biso   1.000  O
  O31      1.0000 0.23340  0.77960  0.78500  Biso   1.000  O
  O32      1.0000 0.76660  0.27960  0.71500  Biso   1.000  O
  O33      1.0000 0.95220  0.30750  0.19640  Biso   1.000  O
  O34      1.0000 0.04780  0.80750  0.30360  Biso   1.000  O
  O35      1.0000 0.04780  0.69250  0.80360  Biso   1.000  O
  O36      1.0000 0.95220  0.19250  0.69640  Biso   1.000  O
  O37      1.0000 0.86970  0.30130  0.30140  Biso   1.000  O
  O38      1.0000 0.13030  0.80130  0.19860  Biso   1.000  O
  O39      1.0000 0.13030  0.69870  0.69860  Biso   1.000  O
  O40      1.0000 0.86970  0.19870  0.80140  Biso   1.000  O
