data_image0
_cell_length_a       9.336
_cell_length_b       10.996
_cell_length_c       14.275
_cell_angle_alpha    71.699
_cell_angle_beta     74.292
_cell_angle_gamma    72.026

_symmetry_space_group_name_H-M    "P 1"
_symmetry_int_tables_number       1

loop_
  _symmetry_equiv_pos_as_xyz
  'x, y, z'

loop_
  _atom_site_label
  _atom_site_occupancy
  _atom_site_fract_x
  _atom_site_fract_y
  _atom_site_fract_z
  _atom_site_thermal_displace_type
  _atom_site_B_iso_or_equiv
  _atom_site_type_symbol
  Cu1      1.0000 0.36579  0.57594  0.68245  Biso   1.000  Cu
  Cu2      1.0000 0.63421  0.42406  0.31755  Biso   1.000  Cu
  Cu3      1.0000 0.00000  0.50000  0.50000  Biso   1.000  Cu
  N1       1.0000 0.33400  0.62270  0.54360  Biso   1.000  N
  N2       1.0000 0.66600  0.37730  0.45640  Biso   1.000  N
  N3       1.0000 0.19750  0.49030  0.72040  Biso   1.000  N
  N4       1.0000 0.80250  0.50970  0.27960  Biso   1.000  N
  N5       1.0000 0.44650  0.46910  0.80560  Biso   1.000  N
  N6       1.0000 0.55350  0.53090  0.19440  Biso   1.000  N
  N7       1.0000 0.54820  0.64270  0.64420  Biso   1.000  N
  N8       1.0000 0.45180  0.35730  0.35580  Biso   1.000  N
  N9       1.0000 0.22270  0.85910  0.72560  Biso   1.000  N
  N10      1.0000 0.77730  0.14090  0.27440  Biso   1.000  N
  O1       1.0000 0.18240  0.56850  0.46410  Biso   1.000  O
  O2       1.0000 0.81760  0.43150  0.53590  Biso   1.000  O
  O3       1.0000 0.03730  0.45460  0.63710  Biso   1.000  O
  O4       1.0000 0.96270  0.54540  0.36290  Biso   1.000  O
  O5       1.0000 0.44990  0.36320  0.04110  Biso   1.000  O
  O6       1.0000 0.55010  0.63680  0.95890  Biso   1.000  O
  O7       1.0000 0.55060  0.20860  0.95550  Biso   1.000  O
  O8       1.0000 0.44940  0.79140  0.04450  Biso   1.000  O
  O9       1.0000 0.86410  0.71680  0.52300  Biso   1.000  O
  O10      1.0000 0.13590  0.28320  0.47700  Biso   1.000  O
  O11      1.0000 0.68590  0.87710  0.58310  Biso   1.000  O
  O12      1.0000 0.31410  0.12290  0.41690  Biso   1.000  O
  O13      1.0000 0.24040  0.74110  0.76360  Biso   1.000  O
  O14      1.0000 0.75960  0.25890  0.23640  Biso   1.000  O
  O15      1.0000 0.25130  0.89930  0.63330  Biso   1.000  O
  O16      1.0000 0.74870  0.10070  0.36670  Biso   1.000  O
  O17      1.0000 0.16890  0.93930  0.77860  Biso   1.000  O
  O18      1.0000 0.83110  0.06070  0.22140  Biso   1.000  O
  C1       1.0000 0.41510  0.69970  0.45760  Biso   1.000  C
  C2       1.0000 0.58490  0.30030  0.54240  Biso   1.000  C
  C3       1.0000 0.37390  0.73850  0.36430  Biso   1.000  C
  C4       1.0000 0.62610  0.26150  0.63570  Biso   1.000  C
  H1       1.0000 0.29240  0.71240  0.35730  Biso   1.000  H
  H2       1.0000 0.70760  0.28760  0.64270  Biso   1.000  H
  C5       1.0000 0.45140  0.81540  0.28070  Biso   1.000  C
  C6       1.0000 0.54860  0.18460  0.71930  Biso   1.000  C
  H3       1.0000 0.42190  0.83920  0.21890  Biso   1.000  H
  H4       1.0000 0.57810  0.16080  0.78110  Biso   1.000  H
  C7       1.0000 0.57110  0.85610  0.28910  Biso   1.000  C
  C8       1.0000 0.42890  0.14390  0.71090  Biso   1.000  C
  H5       1.0000 0.62480  0.90550  0.23310  Biso   1.000  H
  H6       1.0000 0.37520  0.09450  0.76690  Biso   1.000  H
  C9       1.0000 0.61060  0.82300  0.38090  Biso   1.000  C
  C10      1.0000 0.38940  0.17700  0.61910  Biso   1.000  C
  H7       1.0000 0.68890  0.85430  0.38660  Biso   1.000  H
  H8       1.0000 0.31110  0.14570  0.61340  Biso   1.000  H
  C11      1.0000 0.53780  0.74380  0.46710  Biso   1.000  C
  C12      1.0000 0.46220  0.25620  0.53290  Biso   1.000  C
  C13      1.0000 0.59670  0.71440  0.55910  Biso   1.000  C
  C14      1.0000 0.40330  0.28560  0.44090  Biso   1.000  C
  C15      1.0000 0.61670  0.61460  0.73280  Biso   1.000  C
  C16      1.0000 0.38330  0.38540  0.26720  Biso   1.000  C
  H9       1.0000 0.56290  0.67990  0.77100  Biso   1.000  H
  H10      1.0000 0.43710  0.32010  0.22900  Biso   1.000  H
  H11      1.0000 0.72360  0.61800  0.71160  Biso   1.000  H
  H12      1.0000 0.27640  0.38200  0.28840  Biso   1.000  H
  C17      1.0000 0.60400  0.47820  0.79700  Biso   1.000  C
  C18      1.0000 0.39600  0.52180  0.20300  Biso   1.000  C
  H13      1.0000 0.67770  0.41120  0.76600  Biso   1.000  H
  H14      1.0000 0.32230  0.58880  0.23400  Biso   1.000  H
  H15      1.0000 0.62440  0.46510  0.86310  Biso   1.000  H
  H16      1.0000 0.37560  0.53490  0.13690  Biso   1.000  H
  C19      1.0000 0.37850  0.39770  0.88350  Biso   1.000  C
  C20      1.0000 0.62150  0.60230  0.11650  Biso   1.000  C
  C21      1.0000 0.22070  0.38670  0.89740  Biso   1.000  C
  C22      1.0000 0.77930  0.61330  0.10260  Biso   1.000  C
  C23      1.0000 0.15140  0.32870  0.99490  Biso   1.000  C
  C24      1.0000 0.84860  0.67130  0.00510  Biso   1.000  C
  H17      1.0000 0.20950  0.29610  0.04510  Biso   1.000  H
  H18      1.0000 0.79050  0.70390  0.95490  Biso   1.000  H
  C25      1.0000 0.00350  0.31760  0.02000  Biso   1.000  C
  C26      1.0000 0.99650  0.68240  0.98000  Biso   1.000  C
  H19      1.0000 0.96160  0.27970  0.08580  Biso   1.000  H
  H20      1.0000 0.03840  0.72030  0.91420  Biso   1.000  H
  C27      1.0000 0.91810  0.36380  0.94600  Biso   1.000  C
  C28      1.0000 0.08190  0.63620  0.05400  Biso   1.000  C
  H21      1.0000 0.81690  0.35720  0.96150  Biso   1.000  H
  H22      1.0000 0.18310  0.64280  0.03850  Biso   1.000  H
  C29      1.0000 0.98200  0.42050  0.84780  Biso   1.000  C
  C30      1.0000 0.01800  0.57950  0.15220  Biso   1.000  C
  H23      1.0000 0.92190  0.45230  0.79880  Biso   1.000  H
  H24      1.0000 0.07810  0.54770  0.20120  Biso   1.000  H
  C31      1.0000 0.13240  0.43090  0.82110  Biso   1.000  C
  C32      1.0000 0.86760  0.56910  0.17890  Biso   1.000  C
  C33      1.0000 0.14410  0.49870  0.64170  Biso   1.000  C
  C34      1.0000 0.85590  0.50130  0.35830  Biso   1.000  C
  C35      1.0000 0.22770  0.56990  0.53970  Biso   1.000  C
  C36      1.0000 0.77230  0.43010  0.46030  Biso   1.000  C
  C37      1.0000 0.73230  0.77020  0.55150  Biso   1.000  C
  C38      1.0000 0.26770  0.22980  0.44850  Biso   1.000  C
  C39      1.0000 0.80660  0.93580  0.58750  Biso   1.000  C
  C40      1.0000 0.19340  0.06420  0.41250  Biso   1.000  C
  H25      1.0000 0.76890  0.03090  0.57550  Biso   1.000  H
  H26      1.0000 0.23110  0.96910  0.42450  Biso   1.000  H
  H27      1.0000 0.89610  0.91660  0.53590  Biso   1.000  H
  H28      1.0000 0.10390  0.08340  0.46410  Biso   1.000  H
  C41      1.0000 0.84980  0.87810  0.69060  Biso   1.000  C
  C42      1.0000 0.15020  0.12190  0.30940  Biso   1.000  C
  H29      1.0000 0.92790  0.91570  0.69380  Biso   1.000  H
  H30      1.0000 0.07210  0.08430  0.30620  Biso   1.000  H
  H31      1.0000 0.88790  0.78400  0.70180  Biso   1.000  H
  H32      1.0000 0.11210  0.21600  0.29820  Biso   1.000  H
  H33      1.0000 0.76100  0.89800  0.74120  Biso   1.000  H
  H34      1.0000 0.23900  0.10200  0.25880  Biso   1.000  H
  C43      1.0000 0.46280  0.32120  0.97090  Biso   1.000  C
  C44      1.0000 0.53720  0.67880  0.02910  Biso   1.000  C
  C45      1.0000 0.64060  0.12430  0.03440  Biso   1.000  C
  C46      1.0000 0.35940  0.87570  0.96560  Biso   1.000  C
  H35      1.0000 0.68850  0.17710  0.05370  Biso   1.000  H
  H36      1.0000 0.31150  0.82290  0.94630  Biso   1.000  H
  H37      1.0000 0.57360  0.08510  0.09350  Biso   1.000  H
  H38      1.0000 0.42640  0.91490  0.90650  Biso   1.000  H
  C47      1.0000 0.75530  0.02310  0.99450  Biso   1.000  C
  C48      1.0000 0.24470  0.97690  0.00550  Biso   1.000  C
  H39      1.0000 0.81560  0.96820  0.04420  Biso   1.000  H
  H40      1.0000 0.18440  0.03180  0.95580  Biso   1.000  H
  H41      1.0000 0.82050  0.06280  0.93580  Biso   1.000  H
  H42      1.0000 0.17950  0.93720  0.06420  Biso   1.000  H
  H43      1.0000 0.70680  0.97040  0.97680  Biso   1.000  H
  H44      1.0000 0.29320  0.02960  0.02320  Biso   1.000  H
  O19      1.0000 0.05750  0.81430  0.25750  Biso   1.000  O
  O20      1.0000 0.94250  0.18570  0.74250  Biso   1.000  O
