data_image0
_cell_length_a       8.34
_cell_length_b       8.863
_cell_length_c       12.565
_cell_angle_alpha    90
_cell_angle_beta     99.575
_cell_angle_gamma    90

_symmetry_space_group_name_H-M    "P 1"
_symmetry_int_tables_number       1

loop_
  _symmetry_equiv_pos_as_xyz
  'x, y, z'

loop_
  _atom_site_label
  _atom_site_occupancy
  _atom_site_fract_x
  _atom_site_fract_y
  _atom_site_fract_z
  _atom_site_thermal_displace_type
  _atom_site_B_iso_or_equiv
  _atom_site_type_symbol
  Cu1      1.0000 0.50000  0.50000  0.50000  Biso   1.000  Cu
  Cu2      1.0000 0.50000  0.00000  0.00000  Biso   1.000  Cu
  P1       1.0000 0.74022  0.12822  0.53132  Biso   1.000  P
  P2       1.0000 0.25978  0.62822  0.96868  Biso   1.000  P
  P3       1.0000 0.25978  0.87178  0.46868  Biso   1.000  P
  P4       1.0000 0.74022  0.37178  0.03132  Biso   1.000  P
  C1       1.0000 0.88630  0.14060  0.37055  Biso   1.000  C
  C2       1.0000 0.11370  0.64060  0.12945  Biso   1.000  C
  C3       1.0000 0.11370  0.85940  0.62945  Biso   1.000  C
  C4       1.0000 0.88630  0.35940  0.87055  Biso   1.000  C
  H1       1.0000 0.89880  0.23550  0.33430  Biso   1.000  H
  H2       1.0000 0.10120  0.73550  0.16570  Biso   1.000  H
  H3       1.0000 0.10120  0.76450  0.66570  Biso   1.000  H
  H4       1.0000 0.89880  0.26450  0.83430  Biso   1.000  H
  H5       1.0000 0.97230  0.07310  0.35700  Biso   1.000  H
  H6       1.0000 0.02770  0.57310  0.14300  Biso   1.000  H
  H7       1.0000 0.02770  0.92690  0.64300  Biso   1.000  H
  H8       1.0000 0.97230  0.42690  0.85700  Biso   1.000  H
  C5       1.0000 0.58740  0.18130  0.34313  Biso   1.000  C
  C6       1.0000 0.41260  0.68130  0.15687  Biso   1.000  C
  C7       1.0000 0.41260  0.81870  0.65687  Biso   1.000  C
  C8       1.0000 0.58740  0.31870  0.84313  Biso   1.000  C
  H9       1.0000 0.48200  0.13490  0.32000  Biso   1.000  H
  H10      1.0000 0.51800  0.63490  0.18000  Biso   1.000  H
  H11      1.0000 0.51800  0.86510  0.68000  Biso   1.000  H
  H12      1.0000 0.48200  0.36510  0.82000  Biso   1.000  H
  H13      1.0000 0.59370  0.27150  0.30030  Biso   1.000  H
  H14      1.0000 0.40630  0.77150  0.19970  Biso   1.000  H
  H15      1.0000 0.40630  0.72850  0.69970  Biso   1.000  H
  H16      1.0000 0.59370  0.22850  0.80030  Biso   1.000  H
  C9       1.0000 0.70210  0.92580  0.38720  Biso   1.000  C
  C10      1.0000 0.29790  0.42580  0.11280  Biso   1.000  C
  C11      1.0000 0.29790  0.07420  0.61280  Biso   1.000  C
  C12      1.0000 0.70210  0.57420  0.88720  Biso   1.000  C
  H17      1.0000 0.79000  0.85700  0.37990  Biso   1.000  H
  H18      1.0000 0.21000  0.35700  0.12010  Biso   1.000  H
  H19      1.0000 0.21000  0.14300  0.62010  Biso   1.000  H
  H20      1.0000 0.79000  0.64300  0.87990  Biso   1.000  H
  H21      1.0000 0.60010  0.87760  0.35730  Biso   1.000  H
  H22      1.0000 0.39990  0.37760  0.14270  Biso   1.000  H
  H23      1.0000 0.39990  0.12240  0.64270  Biso   1.000  H
  H24      1.0000 0.60010  0.62240  0.85730  Biso   1.000  H
  C13      1.0000 0.72180  0.07180  0.32625  Biso   1.000  C
  C14      1.0000 0.27820  0.57180  0.17375  Biso   1.000  C
  C15      1.0000 0.27820  0.92820  0.67375  Biso   1.000  C
  C16      1.0000 0.72180  0.42820  0.82625  Biso   1.000  C
  C17      1.0000 0.71060  0.03000  0.20708  Biso   1.000  C
  C18      1.0000 0.28940  0.53000  0.29292  Biso   1.000  C
  C19      1.0000 0.28940  0.97000  0.79292  Biso   1.000  C
  C20      1.0000 0.71060  0.47000  0.70708  Biso   1.000  C
  O1       1.0000 0.74860  0.15560  0.64563  Biso   1.000  O
  O2       1.0000 0.25140  0.65560  0.85437  Biso   1.000  O
  O3       1.0000 0.25140  0.84440  0.35437  Biso   1.000  O
  O4       1.0000 0.74860  0.34440  0.14563  Biso   1.000  O
  O5       1.0000 0.89930  0.16630  0.48678  Biso   1.000  O
  O6       1.0000 0.10070  0.66630  0.01322  Biso   1.000  O
  O7       1.0000 0.10070  0.83370  0.51322  Biso   1.000  O
  O8       1.0000 0.89930  0.33370  0.98678  Biso   1.000  O
  O9       1.0000 0.70420  0.96060  0.50047  Biso   1.000  O
  O10      1.0000 0.29580  0.46060  0.99953  Biso   1.000  O
  O11      1.0000 0.29580  0.03940  0.49953  Biso   1.000  O
  O12      1.0000 0.70420  0.53940  0.00047  Biso   1.000  O
  O13      1.0000 0.60590  0.22140  0.45780  Biso   1.000  O
  O14      1.0000 0.39410  0.72140  0.04220  Biso   1.000  O
  O15      1.0000 0.39410  0.77860  0.54220  Biso   1.000  O
  O16      1.0000 0.60590  0.27860  0.95780  Biso   1.000  O
  O17      1.0000 0.83690  0.99790  0.17386  Biso   1.000  O
  O18      1.0000 0.16310  0.49790  0.32614  Biso   1.000  O
  O19      1.0000 0.16310  0.00210  0.82614  Biso   1.000  O
  O20      1.0000 0.83690  0.50210  0.67386  Biso   1.000  O
  O21      1.0000 0.56890  0.02683  0.15413  Biso   1.000  O
  O22      1.0000 0.43110  0.52683  0.34587  Biso   1.000  O
  O23      1.0000 0.43110  0.97317  0.84587  Biso   1.000  O
  O24      1.0000 0.56890  0.47317  0.65413  Biso   1.000  O
  O25      1.0000 0.29690  0.41410  0.51900  Biso   1.000  O
  O26      1.0000 0.70310  0.91410  0.98100  Biso   1.000  O
  O27      1.0000 0.70310  0.58590  0.48100  Biso   1.000  O
  O28      1.0000 0.29690  0.08590  0.01900  Biso   1.000  O
  H25      1.0000 0.22960  0.43270  0.46170  Biso   1.000  H
  H26      1.0000 0.77040  0.93270  0.03830  Biso   1.000  H
  H27      1.0000 0.77040  0.56730  0.53830  Biso   1.000  H
  H28      1.0000 0.22960  0.06730  0.96170  Biso   1.000  H
  H29      1.0000 0.26040  0.42740  0.57800  Biso   1.000  H
  H30      1.0000 0.73960  0.92740  0.92200  Biso   1.000  H
  H31      1.0000 0.73960  0.57260  0.42200  Biso   1.000  H
  H32      1.0000 0.26040  0.07260  0.07800  Biso   1.000  H
  O29      1.0000 0.16910  0.43710  0.69488  Biso   1.000  O
  O30      1.0000 0.83090  0.93710  0.80512  Biso   1.000  O
  O31      1.0000 0.83090  0.56290  0.30512  Biso   1.000  O
  O32      1.0000 0.16910  0.06290  0.19488  Biso   1.000  O
  H33      1.0000 0.06590  0.43710  0.68300  Biso   1.000  H
  H34      1.0000 0.93410  0.93710  0.81700  Biso   1.000  H
  H35      1.0000 0.93410  0.56290  0.31700  Biso   1.000  H
  H36      1.0000 0.06590  0.06290  0.18300  Biso   1.000  H
  H37      1.0000 0.19440  0.50320  0.74380  Biso   1.000  H
  H38      1.0000 0.80560  0.00320  0.75620  Biso   1.000  H
  H39      1.0000 0.80560  0.49680  0.25620  Biso   1.000  H
  H40      1.0000 0.19440  0.99680  0.24380  Biso   1.000  H
