data_image0
_cell_length_a       9.2864
_cell_length_b       10.9212
_cell_length_c       12.1185
_cell_angle_alpha    112.949
_cell_angle_beta     107.104
_cell_angle_gamma    94.009

_symmetry_space_group_name_H-M    "P 1"
_symmetry_int_tables_number       1

loop_
  _symmetry_equiv_pos_as_xyz
  'x, y, z'

loop_
  _atom_site_label
  _atom_site_occupancy
  _atom_site_fract_x
  _atom_site_fract_y
  _atom_site_fract_z
  _atom_site_thermal_displace_type
  _atom_site_B_iso_or_equiv
  _atom_site_type_symbol
  Cu1      1.0000 0.78006  0.27019  0.13385  Biso   1.000  Cu
  Cu2      1.0000 0.21994  0.72981  0.86615  Biso   1.000  Cu
  O1       1.0000 0.52840  0.49190  0.22290  Biso   1.000  O
  O2       1.0000 0.47160  0.50810  0.77710  Biso   1.000  O
  O3       1.0000 0.76460  0.48800  0.22240  Biso   1.000  O
  O4       1.0000 0.23540  0.51200  0.77760  Biso   1.000  O
  O5       1.0000 0.82860  0.14000  0.50290  Biso   1.000  O
  O6       1.0000 0.17140  0.86000  0.49710  Biso   1.000  O
  O7       1.0000 0.59490  0.08100  0.48840  Biso   1.000  O
  O8       1.0000 0.40510  0.91900  0.51160  Biso   1.000  O
  H1       1.0000 0.53660  0.01180  0.47310  Biso   1.000  H
  H2       1.0000 0.46340  0.98820  0.52690  Biso   1.000  H
  O9       1.0000 0.05750  0.91350  0.81320  Biso   1.000  O
  O10      1.0000 0.94250  0.08650  0.18680  Biso   1.000  O
  O11      1.0000 0.06950  0.70190  0.70550  Biso   1.000  O
  O12      1.0000 0.93050  0.29810  0.29450  Biso   1.000  O
  N1       1.0000 0.41430  0.80370  0.85070  Biso   1.000  N
  N2       1.0000 0.58570  0.19630  0.14930  Biso   1.000  N
  N3       1.0000 0.36540  0.77500  0.03540  Biso   1.000  N
  N4       1.0000 0.63460  0.22500  0.96460  Biso   1.000  N
  N5       1.0000 0.07410  0.69560  0.95280  Biso   1.000  N
  N6       1.0000 0.92590  0.30440  0.04720  Biso   1.000  N
  C1       1.0000 0.43010  0.81340  0.74810  Biso   1.000  C
  C2       1.0000 0.56990  0.18660  0.25190  Biso   1.000  C
  H3       1.0000 0.34230  0.79000  0.67660  Biso   1.000  H
  H4       1.0000 0.65770  0.21000  0.32340  Biso   1.000  H
  C3       1.0000 0.56910  0.85600  0.74320  Biso   1.000  C
  C4       1.0000 0.43090  0.14400  0.25680  Biso   1.000  C
  H5       1.0000 0.57610  0.85830  0.66910  Biso   1.000  H
  H6       1.0000 0.42390  0.14170  0.33090  Biso   1.000  H
  C5       1.0000 0.69860  0.89540  0.85100  Biso   1.000  C
  C6       1.0000 0.30140  0.10460  0.14900  Biso   1.000  C
  H7       1.0000 0.79430  0.92810  0.85170  Biso   1.000  H
  H8       1.0000 0.20570  0.07190  0.14830  Biso   1.000  H
  C7       1.0000 0.68450  0.88570  0.95790  Biso   1.000  C
  C8       1.0000 0.31550  0.11430  0.04210  Biso   1.000  C
  H9       1.0000 0.77070  0.91170  0.03130  Biso   1.000  H
  H10      1.0000 0.22930  0.08830  0.96870  Biso   1.000  H
  C9       1.0000 0.54300  0.83780  0.95450  Biso   1.000  C
  C10      1.0000 0.45700  0.16220  0.04550  Biso   1.000  C
  C11      1.0000 0.51350  0.81590  0.05930  Biso   1.000  C
  C12      1.0000 0.48650  0.18410  0.94070  Biso   1.000  C
  C13      1.0000 0.62290  0.82980  0.17240  Biso   1.000  C
  C14      1.0000 0.37710  0.17020  0.82760  Biso   1.000  C
  H11      1.0000 0.72690  0.86130  0.19120  Biso   1.000  H
  H12      1.0000 0.27310  0.13870  0.80880  Biso   1.000  H
  C15      1.0000 0.57470  0.79570  0.25690  Biso   1.000  C
  C16      1.0000 0.42530  0.20430  0.74310  Biso   1.000  C
  C17      1.0000 0.41840  0.75540  0.22940  Biso   1.000  C
  C18      1.0000 0.58160  0.24460  0.77060  Biso   1.000  C
  H13      1.0000 0.38370  0.73410  0.28570  Biso   1.000  H
  H14      1.0000 0.61630  0.26590  0.71430  Biso   1.000  H
  C19      1.0000 0.31490  0.74730  0.11690  Biso   1.000  C
  C20      1.0000 0.68510  0.25270  0.88310  Biso   1.000  C
  C21      1.0000 0.14580  0.70680  0.07180  Biso   1.000  C
  C22      1.0000 0.85420  0.29320  0.92820  Biso   1.000  C
  C23      1.0000 0.06590  0.68130  0.14110  Biso   1.000  C
  C24      1.0000 0.93410  0.31870  0.85890  Biso   1.000  C
  H15      1.0000 0.11760  0.69180  0.22370  Biso   1.000  H
  H16      1.0000 0.88240  0.30820  0.77630  Biso   1.000  H
  C25      1.0000 0.90820  0.64000  0.08810  Biso   1.000  C
  C26      1.0000 0.09180  0.36000  0.91190  Biso   1.000  C
  H17      1.0000 0.85240  0.62020  0.13350  Biso   1.000  H
  H18      1.0000 0.14760  0.37980  0.86650  Biso   1.000  H
  C27      1.0000 0.83390  0.62810  0.96660  Biso   1.000  C
  C28      1.0000 0.16610  0.37190  0.03340  Biso   1.000  C
  H19      1.0000 0.72720  0.60160  0.92920  Biso   1.000  H
  H20      1.0000 0.27280  0.39840  0.07080  Biso   1.000  H
  C29      1.0000 0.92060  0.65640  0.90240  Biso   1.000  C
  C30      1.0000 0.07940  0.34360  0.09760  Biso   1.000  C
  H21      1.0000 0.87080  0.64790  0.82030  Biso   1.000  H
  H22      1.0000 0.12920  0.35210  0.17970  Biso   1.000  H
  C31      1.0000 0.68810  0.79940  0.37610  Biso   1.000  C
  C32      1.0000 0.31190  0.20060  0.62390  Biso   1.000  C
  C33      1.0000 0.75920  0.92100  0.48410  Biso   1.000  C
  C34      1.0000 0.24080  0.07900  0.51590  Biso   1.000  C
  C35      1.0000 0.86430  0.92210  0.59260  Biso   1.000  C
  C36      1.0000 0.13570  0.07790  0.40740  Biso   1.000  C
  H23      1.0000 0.91060  0.00420  0.66460  Biso   1.000  H
  H24      1.0000 0.08940  0.99580  0.33540  Biso   1.000  H
  C37      1.0000 0.72630  0.05530  0.48900  Biso   1.000  C
  C38      1.0000 0.27370  0.94470  0.51100  Biso   1.000  C
  C39      1.0000 0.90120  0.80290  0.59520  Biso   1.000  C
  C40      1.0000 0.09880  0.19710  0.40480  Biso   1.000  C
  C41      1.0000 0.83470  0.68240  0.48750  Biso   1.000  C
  C42      1.0000 0.16530  0.31760  0.51250  Biso   1.000  C
  H25      1.0000 0.86160  0.60200  0.48800  Biso   1.000  H
  H26      1.0000 0.13840  0.39800  0.51200  Biso   1.000  H
  C43      1.0000 0.72800  0.67920  0.37810  Biso   1.000  C
  C44      1.0000 0.27200  0.32080  0.62190  Biso   1.000  C
  C45      1.0000 0.66580  0.54280  0.26420  Biso   1.000  C
  C46      1.0000 0.33420  0.45720  0.73580  Biso   1.000  C
  C47      1.0000 0.01830  0.80910  0.71440  Biso   1.000  C
  C48      1.0000 0.98170  0.19090  0.28560  Biso   1.000  C
  O13      1.0000 0.62500  0.07500  0.40700  Biso   1.000  O
  O14      1.0000 0.37500  0.92500  0.59300  Biso   1.000  O
  H27      1.0000 0.56440  0.00320  0.35510  Biso   1.000  H
  H28      1.0000 0.43560  0.99680  0.64490  Biso   1.000  H
  O15      1.0000 0.85300  0.12800  0.55300  Biso   1.000  O
  O16      1.0000 0.14700  0.87200  0.44700  Biso   1.000  O
