data_image0
_cell_length_a       25.5176
_cell_length_b       13.9277
_cell_length_c       13.5555
_cell_angle_alpha    90
_cell_angle_beta     90
_cell_angle_gamma    90

_symmetry_space_group_name_H-M    "P 1"
_symmetry_int_tables_number       1

loop_
  _symmetry_equiv_pos_as_xyz
  'x, y, z'

loop_
  _atom_site_label
  _atom_site_occupancy
  _atom_site_fract_x
  _atom_site_fract_y
  _atom_site_fract_z
  _atom_site_thermal_displace_type
  _atom_site_B_iso_or_equiv
  _atom_site_type_symbol
  C1       1.0000 0.44082  0.58990  0.39590  Biso   1.000  C
  C2       1.0000 0.05918  0.91010  0.89590  Biso   1.000  C
  C3       1.0000 0.55918  0.58990  0.10410  Biso   1.000  C
  C4       1.0000 0.94082  0.91010  0.60410  Biso   1.000  C
  C5       1.0000 0.55918  0.41010  0.60410  Biso   1.000  C
  C6       1.0000 0.94082  0.08990  0.10410  Biso   1.000  C
  C7       1.0000 0.44082  0.41010  0.89590  Biso   1.000  C
  C8       1.0000 0.05918  0.08990  0.39590  Biso   1.000  C
  C9       1.0000 0.49573  0.55590  0.37773  Biso   1.000  C
  C10      1.0000 0.00427  0.94410  0.87773  Biso   1.000  C
  C11      1.0000 0.50427  0.55590  0.12227  Biso   1.000  C
  C12      1.0000 0.99573  0.94410  0.62227  Biso   1.000  C
  C13      1.0000 0.50427  0.44410  0.62227  Biso   1.000  C
  C14      1.0000 0.99573  0.05590  0.12227  Biso   1.000  C
  C15      1.0000 0.49573  0.44410  0.87773  Biso   1.000  C
  C16      1.0000 0.00427  0.05590  0.37773  Biso   1.000  C
  C17      1.0000 0.50354  0.45800  0.37150  Biso   1.000  C
  C18      1.0000 0.99646  0.04200  0.87150  Biso   1.000  C
  C19      1.0000 0.49646  0.45800  0.12850  Biso   1.000  C
  C20      1.0000 0.00354  0.04200  0.62850  Biso   1.000  C
  C21      1.0000 0.49646  0.54200  0.62850  Biso   1.000  C
  C22      1.0000 0.00354  0.95800  0.12850  Biso   1.000  C
  C23      1.0000 0.50354  0.54200  0.87150  Biso   1.000  C
  C24      1.0000 0.99646  0.95800  0.37150  Biso   1.000  C
  H1       1.0000 0.47500  0.41680  0.37670  Biso   1.000  H
  H2       1.0000 0.02500  0.08320  0.87670  Biso   1.000  H
  H3       1.0000 0.52500  0.41680  0.12330  Biso   1.000  H
  H4       1.0000 0.97500  0.08320  0.62330  Biso   1.000  H
  H5       1.0000 0.52500  0.58320  0.62330  Biso   1.000  H
  H6       1.0000 0.97500  0.91680  0.12330  Biso   1.000  H
  H7       1.0000 0.47500  0.58320  0.87670  Biso   1.000  H
  H8       1.0000 0.02500  0.91680  0.37670  Biso   1.000  H
  C25      1.0000 0.55335  0.42000  0.35744  Biso   1.000  C
  C26      1.0000 0.94665  0.08000  0.85744  Biso   1.000  C
  C27      1.0000 0.44665  0.42000  0.14256  Biso   1.000  C
  C28      1.0000 0.05335  0.08000  0.64256  Biso   1.000  C
  C29      1.0000 0.44665  0.58000  0.64256  Biso   1.000  C
  C30      1.0000 0.05335  0.92000  0.14256  Biso   1.000  C
  C31      1.0000 0.55335  0.58000  0.85744  Biso   1.000  C
  C32      1.0000 0.94665  0.92000  0.35744  Biso   1.000  C
  C33      1.0000 0.59688  0.48190  0.35010  Biso   1.000  C
  C34      1.0000 0.90312  0.01810  0.85010  Biso   1.000  C
  C35      1.0000 0.40312  0.48190  0.14990  Biso   1.000  C
  C36      1.0000 0.09688  0.01810  0.64990  Biso   1.000  C
  C37      1.0000 0.40312  0.51810  0.64990  Biso   1.000  C
  C38      1.0000 0.09688  0.98190  0.14990  Biso   1.000  C
  C39      1.0000 0.59688  0.51810  0.85010  Biso   1.000  C
  C40      1.0000 0.90312  0.98190  0.35010  Biso   1.000  C
  C41      1.0000 0.58853  0.58150  0.35266  Biso   1.000  C
  C42      1.0000 0.91147  0.91850  0.85266  Biso   1.000  C
  C43      1.0000 0.41147  0.58150  0.14734  Biso   1.000  C
  C44      1.0000 0.08853  0.91850  0.64734  Biso   1.000  C
  C45      1.0000 0.41147  0.41850  0.64734  Biso   1.000  C
  C46      1.0000 0.08853  0.08150  0.14734  Biso   1.000  C
  C47      1.0000 0.58853  0.41850  0.85266  Biso   1.000  C
  C48      1.0000 0.91147  0.08150  0.35266  Biso   1.000  C
  C49      1.0000 0.53814  0.61710  0.36680  Biso   1.000  C
  C50      1.0000 0.96186  0.88290  0.86680  Biso   1.000  C
  C51      1.0000 0.46186  0.61710  0.13320  Biso   1.000  C
  C52      1.0000 0.03814  0.88290  0.63320  Biso   1.000  C
  C53      1.0000 0.46186  0.38290  0.63320  Biso   1.000  C
  C54      1.0000 0.03814  0.11710  0.13320  Biso   1.000  C
  C55      1.0000 0.53814  0.38290  0.86680  Biso   1.000  C
  C56      1.0000 0.96186  0.11710  0.36680  Biso   1.000  C
  H9       1.0000 0.53280  0.68310  0.36890  Biso   1.000  H
  H10      1.0000 0.96720  0.81690  0.86890  Biso   1.000  H
  H11      1.0000 0.46720  0.68310  0.13110  Biso   1.000  H
  H12      1.0000 0.03280  0.81690  0.63110  Biso   1.000  H
  H13      1.0000 0.46720  0.31690  0.63110  Biso   1.000  H
  H14      1.0000 0.03280  0.18310  0.13110  Biso   1.000  H
  H15      1.0000 0.53280  0.31690  0.86890  Biso   1.000  H
  H16      1.0000 0.96720  0.18310  0.36890  Biso   1.000  H
  C57      1.0000 0.63261  0.65420  0.34260  Biso   1.000  C
  C58      1.0000 0.86739  0.84580  0.84260  Biso   1.000  C
  C59      1.0000 0.36739  0.65420  0.15740  Biso   1.000  C
  C60      1.0000 0.13261  0.84580  0.65740  Biso   1.000  C
  C61      1.0000 0.36739  0.34580  0.65740  Biso   1.000  C
  C62      1.0000 0.13261  0.15420  0.15740  Biso   1.000  C
  C63      1.0000 0.63261  0.34580  0.84260  Biso   1.000  C
  C64      1.0000 0.86739  0.15420  0.34260  Biso   1.000  C
  C65      1.0000 0.55884  0.31300  0.34920  Biso   1.000  C
  C66      1.0000 0.94116  0.18700  0.84920  Biso   1.000  C
  C67      1.0000 0.44116  0.31300  0.15080  Biso   1.000  C
  C68      1.0000 0.05884  0.18700  0.65080  Biso   1.000  C
  C69      1.0000 0.44116  0.68700  0.65080  Biso   1.000  C
  C70      1.0000 0.05884  0.81300  0.15080  Biso   1.000  C
  C71      1.0000 0.55884  0.68700  0.84920  Biso   1.000  C
  C72      1.0000 0.94116  0.81300  0.34920  Biso   1.000  C
  C73      1.0000 0.65125  0.44150  0.34410  Biso   1.000  C
  C74      1.0000 0.84875  0.05850  0.84410  Biso   1.000  C
  C75      1.0000 0.34875  0.44150  0.15590  Biso   1.000  C
  C76      1.0000 0.15125  0.05850  0.65590  Biso   1.000  C
  C77      1.0000 0.34875  0.55850  0.65590  Biso   1.000  C
  C78      1.0000 0.15125  0.94150  0.15590  Biso   1.000  C
  C79      1.0000 0.65125  0.55850  0.84410  Biso   1.000  C
  C80      1.0000 0.84875  0.94150  0.34410  Biso   1.000  C
  C81      1.0000 0.67614  0.42750  0.25380  Biso   1.000  C
  C82      1.0000 0.82386  0.07250  0.75380  Biso   1.000  C
  C83      1.0000 0.32386  0.42750  0.24620  Biso   1.000  C
  C84      1.0000 0.17614  0.07250  0.74620  Biso   1.000  C
  C85      1.0000 0.32386  0.57250  0.74620  Biso   1.000  C
  C86      1.0000 0.17614  0.92750  0.24620  Biso   1.000  C
  C87      1.0000 0.67614  0.57250  0.75380  Biso   1.000  C
  C88      1.0000 0.82386  0.92750  0.25380  Biso   1.000  C
  H17      1.0000 0.65910  0.44130  0.19480  Biso   1.000  H
  H18      1.0000 0.84090  0.05870  0.69480  Biso   1.000  H
  H19      1.0000 0.34090  0.44130  0.30520  Biso   1.000  H
  H20      1.0000 0.15910  0.05870  0.80520  Biso   1.000  H
  H21      1.0000 0.34090  0.55870  0.80520  Biso   1.000  H
  H22      1.0000 0.15910  0.94130  0.30520  Biso   1.000  H
  H23      1.0000 0.65910  0.55870  0.69480  Biso   1.000  H
  H24      1.0000 0.84090  0.94130  0.19480  Biso   1.000  H
  C89      1.0000 0.72683  0.39256  0.25402  Biso   1.000  C
  C90      1.0000 0.77317  0.10744  0.75402  Biso   1.000  C
  C91      1.0000 0.27317  0.39256  0.24598  Biso   1.000  C
  C92      1.0000 0.22683  0.10744  0.74598  Biso   1.000  C
  C93      1.0000 0.27317  0.60744  0.74598  Biso   1.000  C
  C94      1.0000 0.22683  0.89256  0.24598  Biso   1.000  C
  C95      1.0000 0.72683  0.60744  0.75402  Biso   1.000  C
  C96      1.0000 0.77317  0.89256  0.25402  Biso   1.000  C
  C97      1.0000 0.67697  0.41990  0.43160  Biso   1.000  C
  C98      1.0000 0.82303  0.08010  0.93160  Biso   1.000  C
  C99      1.0000 0.32303  0.41990  0.06840  Biso   1.000  C
  C100     1.0000 0.17697  0.08010  0.56840  Biso   1.000  C
  C101     1.0000 0.32303  0.58010  0.56840  Biso   1.000  C
  C102     1.0000 0.17697  0.91990  0.06840  Biso   1.000  C
  C103     1.0000 0.67697  0.58010  0.93160  Biso   1.000  C
  C104     1.0000 0.82303  0.91990  0.43160  Biso   1.000  C
  H25      1.0000 0.66030  0.42760  0.49210  Biso   1.000  H
  H26      1.0000 0.83970  0.07240  0.99210  Biso   1.000  H
  H27      1.0000 0.33970  0.42760  0.00790  Biso   1.000  H
  H28      1.0000 0.16030  0.07240  0.50790  Biso   1.000  H
  H29      1.0000 0.33970  0.57240  0.50790  Biso   1.000  H
  H30      1.0000 0.16030  0.92760  0.00790  Biso   1.000  H
  H31      1.0000 0.66030  0.57240  0.99210  Biso   1.000  H
  H32      1.0000 0.83970  0.92760  0.49210  Biso   1.000  H
  C105     1.0000 0.72801  0.38650  0.42650  Biso   1.000  C
  C106     1.0000 0.77199  0.11350  0.92650  Biso   1.000  C
  C107     1.0000 0.27199  0.38650  0.07350  Biso   1.000  C
  C108     1.0000 0.22801  0.11350  0.57350  Biso   1.000  C
  C109     1.0000 0.27199  0.61350  0.57350  Biso   1.000  C
  C110     1.0000 0.22801  0.88650  0.07350  Biso   1.000  C
  C111     1.0000 0.72801  0.61350  0.92650  Biso   1.000  C
  C112     1.0000 0.77199  0.88650  0.42650  Biso   1.000  C
  C113     1.0000 0.76246  0.36390  0.51140  Biso   1.000  C
  C114     1.0000 0.73754  0.13610  0.01140  Biso   1.000  C
  C115     1.0000 0.23754  0.36390  0.98860  Biso   1.000  C
  C116     1.0000 0.26246  0.13610  0.48860  Biso   1.000  C
  C117     1.0000 0.23754  0.63610  0.48860  Biso   1.000  C
  C118     1.0000 0.26246  0.86390  0.98860  Biso   1.000  C
  C119     1.0000 0.76246  0.63610  0.01140  Biso   1.000  C
  C120     1.0000 0.73754  0.86390  0.51140  Biso   1.000  C
  C121     1.0000 0.74788  0.37370  0.60870  Biso   1.000  C
  C122     1.0000 0.75212  0.12630  0.10870  Biso   1.000  C
  C123     1.0000 0.25212  0.37370  0.89130  Biso   1.000  C
  C124     1.0000 0.24788  0.12630  0.39130  Biso   1.000  C
  C125     1.0000 0.25212  0.62630  0.39130  Biso   1.000  C
  C126     1.0000 0.24788  0.87370  0.89130  Biso   1.000  C
  C127     1.0000 0.74788  0.62630  0.10870  Biso   1.000  C
  C128     1.0000 0.75212  0.87370  0.60870  Biso   1.000  C
  H33      1.0000 0.71390  0.39170  0.62530  Biso   1.000  H
  H34      1.0000 0.78610  0.10830  0.12530  Biso   1.000  H
  H35      1.0000 0.28610  0.39170  0.87470  Biso   1.000  H
  H36      1.0000 0.21390  0.10830  0.37470  Biso   1.000  H
  H37      1.0000 0.28610  0.60830  0.37470  Biso   1.000  H
  H38      1.0000 0.21390  0.89170  0.87470  Biso   1.000  H
  H39      1.0000 0.71390  0.60830  0.12530  Biso   1.000  H
  H40      1.0000 0.78610  0.89170  0.62530  Biso   1.000  H
  C129     1.0000 0.78466  0.35630  0.68130  Biso   1.000  C
  C130     1.0000 0.71534  0.14370  0.18130  Biso   1.000  C
  C131     1.0000 0.21534  0.35630  0.81870  Biso   1.000  C
  C132     1.0000 0.28466  0.14370  0.31870  Biso   1.000  C
  C133     1.0000 0.21534  0.64370  0.31870  Biso   1.000  C
  C134     1.0000 0.28466  0.85630  0.81870  Biso   1.000  C
  C135     1.0000 0.78466  0.64370  0.18130  Biso   1.000  C
  C136     1.0000 0.71534  0.85630  0.68130  Biso   1.000  C
  H41      1.0000 0.77580  0.36300  0.74750  Biso   1.000  H
  H42      1.0000 0.72420  0.13700  0.24750  Biso   1.000  H
  H43      1.0000 0.22420  0.36300  0.75250  Biso   1.000  H
  H44      1.0000 0.27580  0.13700  0.25250  Biso   1.000  H
  H45      1.0000 0.22420  0.63700  0.25250  Biso   1.000  H
  H46      1.0000 0.27580  0.86300  0.75250  Biso   1.000  H
  H47      1.0000 0.77580  0.63700  0.24750  Biso   1.000  H
  H48      1.0000 0.72420  0.86300  0.74750  Biso   1.000  H
  C137     1.0000 0.83456  0.32890  0.65510  Biso   1.000  C
  C138     1.0000 0.66544  0.17110  0.15510  Biso   1.000  C
  C139     1.0000 0.16544  0.32890  0.84490  Biso   1.000  C
  C140     1.0000 0.33456  0.17110  0.34490  Biso   1.000  C
  C141     1.0000 0.16544  0.67110  0.34490  Biso   1.000  C
  C142     1.0000 0.33456  0.82890  0.84490  Biso   1.000  C
  C143     1.0000 0.83456  0.67110  0.15510  Biso   1.000  C
  C144     1.0000 0.66544  0.82890  0.65510  Biso   1.000  C
  H49      1.0000 0.86000  0.31900  0.70300  Biso   1.000  H
  H50      1.0000 0.64000  0.18100  0.20300  Biso   1.000  H
  H51      1.0000 0.14000  0.31900  0.79700  Biso   1.000  H
  H52      1.0000 0.36000  0.18100  0.29700  Biso   1.000  H
  H53      1.0000 0.14000  0.68100  0.29700  Biso   1.000  H
  H54      1.0000 0.36000  0.81900  0.79700  Biso   1.000  H
  H55      1.0000 0.86000  0.68100  0.20300  Biso   1.000  H
  H56      1.0000 0.64000  0.81900  0.70300  Biso   1.000  H
  C145     1.0000 0.84622  0.31630  0.55680  Biso   1.000  C
  C146     1.0000 0.65378  0.18370  0.05680  Biso   1.000  C
  C147     1.0000 0.15378  0.31630  0.94320  Biso   1.000  C
  C148     1.0000 0.34622  0.18370  0.44320  Biso   1.000  C
  C149     1.0000 0.15378  0.68370  0.44320  Biso   1.000  C
  C150     1.0000 0.34622  0.81630  0.94320  Biso   1.000  C
  C151     1.0000 0.84622  0.68370  0.05680  Biso   1.000  C
  C152     1.0000 0.65378  0.81630  0.55680  Biso   1.000  C
  H57      1.0000 0.87950  0.29520  0.53930  Biso   1.000  H
  H58      1.0000 0.62050  0.20480  0.03930  Biso   1.000  H
  H59      1.0000 0.12050  0.29520  0.96070  Biso   1.000  H
  H60      1.0000 0.37950  0.20480  0.46070  Biso   1.000  H
  H61      1.0000 0.12050  0.70480  0.46070  Biso   1.000  H
  H62      1.0000 0.37950  0.79520  0.96070  Biso   1.000  H
  H63      1.0000 0.87950  0.70480  0.03930  Biso   1.000  H
  H64      1.0000 0.62050  0.79520  0.53930  Biso   1.000  H
  C153     1.0000 0.76017  0.37390  0.16640  Biso   1.000  C
  C154     1.0000 0.73983  0.12610  0.66640  Biso   1.000  C
  C155     1.0000 0.23983  0.37390  0.33360  Biso   1.000  C
  C156     1.0000 0.26017  0.12610  0.83360  Biso   1.000  C
  C157     1.0000 0.23983  0.62610  0.83360  Biso   1.000  C
  C158     1.0000 0.26017  0.87390  0.33360  Biso   1.000  C
  C159     1.0000 0.76017  0.62610  0.66640  Biso   1.000  C
  C160     1.0000 0.73983  0.87390  0.16640  Biso   1.000  C
  C161     1.0000 0.74420  0.38720  0.07090  Biso   1.000  C
  C162     1.0000 0.75580  0.11280  0.57090  Biso   1.000  C
  C163     1.0000 0.25580  0.38720  0.42910  Biso   1.000  C
  C164     1.0000 0.24420  0.11280  0.92910  Biso   1.000  C
  C165     1.0000 0.25580  0.61280  0.92910  Biso   1.000  C
  C166     1.0000 0.24420  0.88720  0.42910  Biso   1.000  C
  C167     1.0000 0.74420  0.61280  0.57090  Biso   1.000  C
  C168     1.0000 0.75580  0.88720  0.07090  Biso   1.000  C
  H65      1.0000 0.71020  0.40680  0.05710  Biso   1.000  H
  H66      1.0000 0.78980  0.09320  0.55710  Biso   1.000  H
  H67      1.0000 0.28980  0.40680  0.44290  Biso   1.000  H
  H68      1.0000 0.21020  0.09320  0.94290  Biso   1.000  H
  H69      1.0000 0.28980  0.59320  0.94290  Biso   1.000  H
  H70      1.0000 0.21020  0.90680  0.44290  Biso   1.000  H
  H71      1.0000 0.71020  0.59320  0.55710  Biso   1.000  H
  H72      1.0000 0.78980  0.90680  0.05710  Biso   1.000  H
  C169     1.0000 0.78000  0.37070  0.99450  Biso   1.000  C
  C170     1.0000 0.72000  0.12930  0.49450  Biso   1.000  C
  C171     1.0000 0.22000  0.37070  0.50550  Biso   1.000  C
  C172     1.0000 0.28000  0.12930  0.00550  Biso   1.000  C
  C173     1.0000 0.22000  0.62930  0.00550  Biso   1.000  C
  C174     1.0000 0.28000  0.87070  0.50550  Biso   1.000  C
  C175     1.0000 0.78000  0.62930  0.49450  Biso   1.000  C
  C176     1.0000 0.72000  0.87070  0.99450  Biso   1.000  C
  H73      1.0000 0.77010  0.38040  0.92920  Biso   1.000  H
  H74      1.0000 0.72990  0.11960  0.42920  Biso   1.000  H
  H75      1.0000 0.22990  0.38040  0.57080  Biso   1.000  H
  H76      1.0000 0.27010  0.11960  0.07080  Biso   1.000  H
  H77      1.0000 0.22990  0.61960  0.07080  Biso   1.000  H
  H78      1.0000 0.27010  0.88040  0.57080  Biso   1.000  H
  H79      1.0000 0.77010  0.61960  0.42920  Biso   1.000  H
  H80      1.0000 0.72990  0.88040  0.92920  Biso   1.000  H
  C177     1.0000 0.82969  0.34030  0.01660  Biso   1.000  C
  C178     1.0000 0.67031  0.15970  0.51660  Biso   1.000  C
  C179     1.0000 0.17031  0.34030  0.48340  Biso   1.000  C
  C180     1.0000 0.32969  0.15970  0.98340  Biso   1.000  C
  C181     1.0000 0.17031  0.65970  0.98340  Biso   1.000  C
  C182     1.0000 0.32969  0.84030  0.48340  Biso   1.000  C
  C183     1.0000 0.82969  0.65970  0.51660  Biso   1.000  C
  C184     1.0000 0.67031  0.84030  0.01660  Biso   1.000  C
  H81      1.0000 0.85390  0.32850  0.96680  Biso   1.000  H
  H82      1.0000 0.64610  0.17150  0.46680  Biso   1.000  H
  H83      1.0000 0.14610  0.32850  0.53320  Biso   1.000  H
  H84      1.0000 0.35390  0.17150  0.03320  Biso   1.000  H
  H85      1.0000 0.14610  0.67150  0.03320  Biso   1.000  H
  H86      1.0000 0.35390  0.82850  0.53320  Biso   1.000  H
  H87      1.0000 0.85390  0.67150  0.46680  Biso   1.000  H
  H88      1.0000 0.64610  0.82850  0.96680  Biso   1.000  H
  C185     1.0000 0.84316  0.32760  0.11560  Biso   1.000  C
  C186     1.0000 0.65684  0.17240  0.61560  Biso   1.000  C
  C187     1.0000 0.15684  0.32760  0.38440  Biso   1.000  C
  C188     1.0000 0.34316  0.17240  0.88440  Biso   1.000  C
  C189     1.0000 0.15684  0.67240  0.88440  Biso   1.000  C
  C190     1.0000 0.34316  0.82760  0.38440  Biso   1.000  C
  C191     1.0000 0.84316  0.67240  0.61560  Biso   1.000  C
  C192     1.0000 0.65684  0.82760  0.11560  Biso   1.000  C
  H89      1.0000 0.87700  0.30780  0.13120  Biso   1.000  H
  H90      1.0000 0.62300  0.19220  0.63120  Biso   1.000  H
  H91      1.0000 0.12300  0.30780  0.36880  Biso   1.000  H
  H92      1.0000 0.37700  0.19220  0.86880  Biso   1.000  H
  H93      1.0000 0.12300  0.69220  0.86880  Biso   1.000  H
  H94      1.0000 0.37700  0.80780  0.36880  Biso   1.000  H
  H95      1.0000 0.87700  0.69220  0.63120  Biso   1.000  H
  H96      1.0000 0.62300  0.80780  0.13120  Biso   1.000  H
  Cu1      1.0000 0.82289  0.32780  0.33618  Biso   1.000  Cu
  Cu2      1.0000 0.67711  0.17220  0.83618  Biso   1.000  Cu
  Cu3      1.0000 0.17711  0.32780  0.16382  Biso   1.000  Cu
  Cu4      1.0000 0.32289  0.17220  0.66382  Biso   1.000  Cu
  Cu5      1.0000 0.17711  0.67220  0.66382  Biso   1.000  Cu
  Cu6      1.0000 0.32289  0.82780  0.16382  Biso   1.000  Cu
  Cu7      1.0000 0.82289  0.67220  0.83618  Biso   1.000  Cu
  Cu8      1.0000 0.67711  0.82780  0.33618  Biso   1.000  Cu
  N1       1.0000 0.81079  0.33352  0.48516  Biso   1.000  N
  N2       1.0000 0.68921  0.16648  0.98516  Biso   1.000  N
  N3       1.0000 0.18921  0.33352  0.01484  Biso   1.000  N
  N4       1.0000 0.31079  0.16648  0.51484  Biso   1.000  N
  N5       1.0000 0.18921  0.66648  0.51484  Biso   1.000  N
  N6       1.0000 0.31079  0.83352  0.01484  Biso   1.000  N
  N7       1.0000 0.81079  0.66648  0.98516  Biso   1.000  N
  N8       1.0000 0.68921  0.83352  0.48516  Biso   1.000  N
  N9       1.0000 0.80866  0.34305  0.18923  Biso   1.000  N
  N10      1.0000 0.69134  0.15695  0.68923  Biso   1.000  N
  N11      1.0000 0.19134  0.34305  0.31077  Biso   1.000  N
  N12      1.0000 0.30866  0.15695  0.81077  Biso   1.000  N
  N13      1.0000 0.19134  0.65695  0.81077  Biso   1.000  N
  N14      1.0000 0.30866  0.84305  0.31077  Biso   1.000  N
  N15      1.0000 0.80866  0.65695  0.68923  Biso   1.000  N
  N16      1.0000 0.69134  0.84305  0.18923  Biso   1.000  N
  N17      1.0000 0.75140  0.37426  0.33925  Biso   1.000  N
  N18      1.0000 0.74860  0.12574  0.83925  Biso   1.000  N
  N19      1.0000 0.24860  0.37426  0.16075  Biso   1.000  N
  N20      1.0000 0.25140  0.12574  0.66075  Biso   1.000  N
  N21      1.0000 0.24860  0.62574  0.66075  Biso   1.000  N
  N22      1.0000 0.25140  0.87426  0.16075  Biso   1.000  N
  N23      1.0000 0.75140  0.62574  0.83925  Biso   1.000  N
  N24      1.0000 0.74860  0.87426  0.33925  Biso   1.000  N
  O1       1.0000 0.51461  0.26798  0.36520  Biso   1.000  O
  O2       1.0000 0.98539  0.23202  0.86520  Biso   1.000  O
  O3       1.0000 0.48539  0.26798  0.13480  Biso   1.000  O
  O4       1.0000 0.01461  0.23202  0.63480  Biso   1.000  O
  O5       1.0000 0.48539  0.73202  0.63480  Biso   1.000  O
  O6       1.0000 0.01461  0.76798  0.13480  Biso   1.000  O
  O7       1.0000 0.51461  0.73202  0.86520  Biso   1.000  O
  O8       1.0000 0.98539  0.76798  0.36520  Biso   1.000  O
  H97      1.0000 0.51900  0.21010  0.35800  Biso   1.000  H
  H98      1.0000 0.98100  0.28990  0.85800  Biso   1.000  H
  H99      1.0000 0.48100  0.21010  0.14200  Biso   1.000  H
  H100     1.0000 0.01900  0.28990  0.64200  Biso   1.000  H
  H101     1.0000 0.48100  0.78990  0.64200  Biso   1.000  H
  H102     1.0000 0.01900  0.71010  0.14200  Biso   1.000  H
  H103     1.0000 0.51900  0.78990  0.85800  Biso   1.000  H
  H104     1.0000 0.98100  0.71010  0.35800  Biso   1.000  H
  O9       1.0000 0.59955  0.27276  0.33130  Biso   1.000  O
  O10      1.0000 0.90045  0.22724  0.83130  Biso   1.000  O
  O11      1.0000 0.40045  0.27276  0.16870  Biso   1.000  O
  O12      1.0000 0.09955  0.22724  0.66870  Biso   1.000  O
  O13      1.0000 0.40045  0.72724  0.66870  Biso   1.000  O
  O14      1.0000 0.09955  0.77276  0.16870  Biso   1.000  O
  O15      1.0000 0.59955  0.72724  0.83130  Biso   1.000  O
  O16      1.0000 0.90045  0.77276  0.33130  Biso   1.000  O
  O17      1.0000 0.67858  0.62910  0.34190  Biso   1.000  O
  O18      1.0000 0.82142  0.87090  0.84190  Biso   1.000  O
  O19      1.0000 0.32142  0.62910  0.15810  Biso   1.000  O
  O20      1.0000 0.17858  0.87090  0.65810  Biso   1.000  O
  O21      1.0000 0.32142  0.37090  0.65810  Biso   1.000  O
  O22      1.0000 0.17858  0.12910  0.15810  Biso   1.000  O
  O23      1.0000 0.67858  0.37090  0.84190  Biso   1.000  O
  O24      1.0000 0.82142  0.12910  0.34190  Biso   1.000  O
  O25      1.0000 0.61764  0.74166  0.33584  Biso   1.000  O
  O26      1.0000 0.88236  0.75834  0.83584  Biso   1.000  O
  O27      1.0000 0.38236  0.74166  0.16416  Biso   1.000  O
  O28      1.0000 0.11764  0.75834  0.66416  Biso   1.000  O
  O29      1.0000 0.38236  0.25834  0.66416  Biso   1.000  O
  O30      1.0000 0.11764  0.24166  0.16416  Biso   1.000  O
  O31      1.0000 0.61764  0.25834  0.83584  Biso   1.000  O
  O32      1.0000 0.88236  0.24166  0.33584  Biso   1.000  O
  O33      1.0000 0.40408  0.53540  0.39386  Biso   1.000  O
  O34      1.0000 0.09592  0.96460  0.89386  Biso   1.000  O
  O35      1.0000 0.59592  0.53540  0.10614  Biso   1.000  O
  O36      1.0000 0.90408  0.96460  0.60614  Biso   1.000  O
  O37      1.0000 0.59592  0.46460  0.60614  Biso   1.000  O
  O38      1.0000 0.90408  0.03540  0.10614  Biso   1.000  O
  O39      1.0000 0.40408  0.46460  0.89386  Biso   1.000  O
  O40      1.0000 0.09592  0.03540  0.39386  Biso   1.000  O
  O41      1.0000 0.43268  0.68105  0.41740  Biso   1.000  O
  O42      1.0000 0.06732  0.81895  0.91740  Biso   1.000  O
  O43      1.0000 0.56732  0.68105  0.08260  Biso   1.000  O
  O44      1.0000 0.93268  0.81895  0.58260  Biso   1.000  O
  O45      1.0000 0.56732  0.31895  0.58260  Biso   1.000  O
  O46      1.0000 0.93268  0.18105  0.08260  Biso   1.000  O
  O47      1.0000 0.43268  0.31895  0.91740  Biso   1.000  O
  O48      1.0000 0.06732  0.18105  0.41740  Biso   1.000  O
  H105     1.0000 0.45900  0.71230  0.40440  Biso   1.000  H
  H106     1.0000 0.04100  0.78770  0.90440  Biso   1.000  H
  H107     1.0000 0.54100  0.71230  0.09560  Biso   1.000  H
  H108     1.0000 0.95900  0.78770  0.59560  Biso   1.000  H
  H109     1.0000 0.54100  0.28770  0.59560  Biso   1.000  H
  H110     1.0000 0.95900  0.21230  0.09560  Biso   1.000  H
  H111     1.0000 0.45900  0.28770  0.90440  Biso   1.000  H
  H112     1.0000 0.04100  0.21230  0.40440  Biso   1.000  H
  H113     1.0000 0.88390  0.47670  0.39190  Biso   1.000  H
  H114     1.0000 0.61610  0.02330  0.89190  Biso   1.000  H
  H115     1.0000 0.11610  0.47670  0.10810  Biso   1.000  H
  H116     1.0000 0.38390  0.02330  0.60810  Biso   1.000  H
  H117     1.0000 0.11610  0.52330  0.60810  Biso   1.000  H
  H118     1.0000 0.38390  0.97670  0.10810  Biso   1.000  H
  H119     1.0000 0.88390  0.52330  0.89190  Biso   1.000  H
  H120     1.0000 0.61610  0.97670  0.39190  Biso   1.000  H
  H121     1.0000 0.89690  0.47100  0.29900  Biso   1.000  H
  H122     1.0000 0.60310  0.02900  0.79900  Biso   1.000  H
  H123     1.0000 0.10310  0.47100  0.20100  Biso   1.000  H
  H124     1.0000 0.39690  0.02900  0.70100  Biso   1.000  H
  H125     1.0000 0.10310  0.52900  0.70100  Biso   1.000  H
  H126     1.0000 0.39690  0.97100  0.20100  Biso   1.000  H
  H127     1.0000 0.89690  0.52900  0.79900  Biso   1.000  H
  H128     1.0000 0.60310  0.97100  0.29900  Biso   1.000  H
  O49      1.0000 0.86728  0.46680  0.34040  Biso   1.000  O
  O50      1.0000 0.63272  0.03320  0.84040  Biso   1.000  O
  O51      1.0000 0.13272  0.46680  0.15960  Biso   1.000  O
  O52      1.0000 0.36728  0.03320  0.65960  Biso   1.000  O
  O53      1.0000 0.13272  0.53320  0.65960  Biso   1.000  O
  O54      1.0000 0.36728  0.96680  0.15960  Biso   1.000  O
  O55      1.0000 0.86728  0.53320  0.84040  Biso   1.000  O
  O56      1.0000 0.63272  0.96680  0.34040  Biso   1.000  O
  O57      1.0000 0.50655  0.83160  0.08420  Biso   1.000  O
  O58      1.0000 0.99345  0.66840  0.58420  Biso   1.000  O
  O59      1.0000 0.49345  0.83160  0.41580  Biso   1.000  O
  O60      1.0000 0.00655  0.66840  0.91580  Biso   1.000  O
  O61      1.0000 0.49345  0.16840  0.91580  Biso   1.000  O
  O62      1.0000 0.00655  0.33160  0.41580  Biso   1.000  O
  O63      1.0000 0.50655  0.16840  0.58420  Biso   1.000  O
  O64      1.0000 0.99345  0.33160  0.08420  Biso   1.000  O
  H129     1.0000 0.47400  0.85830  0.05630  Biso   1.000  H
  H130     1.0000 0.02600  0.64170  0.55630  Biso   1.000  H
  H131     1.0000 0.52600  0.85830  0.44370  Biso   1.000  H
  H132     1.0000 0.97400  0.64170  0.94370  Biso   1.000  H
  H133     1.0000 0.52600  0.14170  0.94370  Biso   1.000  H
  H134     1.0000 0.97400  0.35830  0.44370  Biso   1.000  H
  H135     1.0000 0.47400  0.14170  0.55630  Biso   1.000  H
  H136     1.0000 0.02600  0.35830  0.05630  Biso   1.000  H
  H137     1.0000 0.51170  0.87540  0.13630  Biso   1.000  H
  H138     1.0000 0.98830  0.62460  0.63630  Biso   1.000  H
  H139     1.0000 0.48830  0.87540  0.36370  Biso   1.000  H
  H140     1.0000 0.01170  0.62460  0.86370  Biso   1.000  H
  H141     1.0000 0.48830  0.12460  0.86370  Biso   1.000  H
  H142     1.0000 0.01170  0.37540  0.36370  Biso   1.000  H
  H143     1.0000 0.51170  0.12460  0.63630  Biso   1.000  H
  H144     1.0000 0.98830  0.37540  0.13630  Biso   1.000  H
  O65      1.0000 0.43408  0.97980  0.99680  Biso   1.000  O
  O66      1.0000 0.06592  0.52020  0.49680  Biso   1.000  O
  O67      1.0000 0.56592  0.97980  0.50320  Biso   1.000  O
  O68      1.0000 0.93408  0.52020  0.00320  Biso   1.000  O
  O69      1.0000 0.56592  0.02020  0.00320  Biso   1.000  O
  O70      1.0000 0.93408  0.47980  0.50320  Biso   1.000  O
  O71      1.0000 0.43408  0.02020  0.49680  Biso   1.000  O
  O72      1.0000 0.06592  0.47980  0.99680  Biso   1.000  O
  H145     1.0000 0.44940  0.02960  0.01960  Biso   1.000  H
  H146     1.0000 0.05060  0.47040  0.51960  Biso   1.000  H
  H147     1.0000 0.55060  0.02960  0.48040  Biso   1.000  H
  H148     1.0000 0.94940  0.47040  0.98040  Biso   1.000  H
  H149     1.0000 0.55060  0.97040  0.98040  Biso   1.000  H
  H150     1.0000 0.94940  0.52960  0.48040  Biso   1.000  H
  H151     1.0000 0.44940  0.97040  0.51960  Biso   1.000  H
  H152     1.0000 0.05060  0.52960  0.01960  Biso   1.000  H
  H153     1.0000 0.44400  0.97870  0.93570  Biso   1.000  H
  H154     1.0000 0.05600  0.52130  0.43570  Biso   1.000  H
  H155     1.0000 0.55600  0.97870  0.56430  Biso   1.000  H
  H156     1.0000 0.94400  0.52130  0.06430  Biso   1.000  H
  H157     1.0000 0.55600  0.02130  0.06430  Biso   1.000  H
  H158     1.0000 0.94400  0.47870  0.56430  Biso   1.000  H
  H159     1.0000 0.44400  0.02130  0.43570  Biso   1.000  H
  H160     1.0000 0.05600  0.47870  0.93570  Biso   1.000  H
  O73      1.0000 0.51615  0.08530  0.33550  Biso   1.000  O
  O74      1.0000 0.98385  0.41470  0.83550  Biso   1.000  O
  O75      1.0000 0.48385  0.08530  0.16450  Biso   1.000  O
  O76      1.0000 0.01615  0.41470  0.66450  Biso   1.000  O
  O77      1.0000 0.48385  0.91470  0.66450  Biso   1.000  O
  O78      1.0000 0.01615  0.58530  0.16450  Biso   1.000  O
  O79      1.0000 0.51615  0.91470  0.83550  Biso   1.000  O
  O80      1.0000 0.98385  0.58530  0.33550  Biso   1.000  O
  O81      1.0000 0.45790  0.97280  0.27760  Biso   1.000  O
  O82      1.0000 0.04210  0.52720  0.77760  Biso   1.000  O
  O83      1.0000 0.54210  0.97280  0.22240  Biso   1.000  O
  O84      1.0000 0.95790  0.52720  0.72240  Biso   1.000  O
  O85      1.0000 0.54210  0.02720  0.72240  Biso   1.000  O
  O86      1.0000 0.95790  0.47280  0.22240  Biso   1.000  O
  O87      1.0000 0.45790  0.02720  0.77760  Biso   1.000  O
  O88      1.0000 0.04210  0.47280  0.27760  Biso   1.000  O
  S1       1.0000 0.50000  0.03105  0.25000  Biso   1.000  S
  S2       1.0000 0.00000  0.46895  0.75000  Biso   1.000  S
  S3       1.0000 0.50000  0.96895  0.75000  Biso   1.000  S
  S4       1.0000 0.00000  0.53105  0.25000  Biso   1.000  S
