data_image0
_cell_length_a       13.0946
_cell_length_b       13.0946
_cell_length_c       11.3554
_cell_angle_alpha    90
_cell_angle_beta     90
_cell_angle_gamma    90

_symmetry_space_group_name_H-M    "P 1"
_symmetry_int_tables_number       1

loop_
  _symmetry_equiv_pos_as_xyz
  'x, y, z'

loop_
  _atom_site_label
  _atom_site_occupancy
  _atom_site_fract_x
  _atom_site_fract_y
  _atom_site_fract_z
  _atom_site_thermal_displace_type
  _atom_site_B_iso_or_equiv
  _atom_site_type_symbol
  Cu1      1.0000 0.49634  0.70598  0.54386  Biso   1.000  Cu
  Cu2      1.0000 0.50366  0.29402  0.04386  Biso   1.000  Cu
  Cu3      1.0000 0.79402  0.99634  0.79386  Biso   1.000  Cu
  Cu4      1.0000 0.20598  0.00366  0.29386  Biso   1.000  Cu
  Cu5      1.0000 0.00366  0.20598  0.70614  Biso   1.000  Cu
  Cu6      1.0000 0.99634  0.79402  0.20614  Biso   1.000  Cu
  Cu7      1.0000 0.70598  0.49634  0.45614  Biso   1.000  Cu
  Cu8      1.0000 0.29402  0.50366  0.95614  Biso   1.000  Cu
  N1       1.0000 0.44260  0.73430  0.71120  Biso   1.000  N
  N2       1.0000 0.55740  0.26570  0.21120  Biso   1.000  N
  N3       1.0000 0.76570  0.94260  0.96120  Biso   1.000  N
  N4       1.0000 0.23430  0.05740  0.46120  Biso   1.000  N
  N5       1.0000 0.05740  0.23430  0.53880  Biso   1.000  N
  N6       1.0000 0.94260  0.76570  0.03880  Biso   1.000  N
  N7       1.0000 0.73430  0.44260  0.28880  Biso   1.000  N
  N8       1.0000 0.26570  0.55740  0.78880  Biso   1.000  N
  N9       1.0000 0.56870  0.60350  0.63350  Biso   1.000  N
  N10      1.0000 0.43130  0.39650  0.13350  Biso   1.000  N
  N11      1.0000 0.89650  0.06870  0.88350  Biso   1.000  N
  N12      1.0000 0.10350  0.93130  0.38350  Biso   1.000  N
  N13      1.0000 0.93130  0.10350  0.61650  Biso   1.000  N
  N14      1.0000 0.06870  0.89650  0.11650  Biso   1.000  N
  N15      1.0000 0.60350  0.56870  0.36650  Biso   1.000  N
  N16      1.0000 0.39650  0.43130  0.86650  Biso   1.000  N
  N17      1.0000 0.64140  0.53650  0.60550  Biso   1.000  N
  N18      1.0000 0.35860  0.46350  0.10550  Biso   1.000  N
  N19      1.0000 0.96350  0.14140  0.85550  Biso   1.000  N
  N20      1.0000 0.03650  0.85860  0.35550  Biso   1.000  N
  N21      1.0000 0.85860  0.03650  0.64450  Biso   1.000  N
  N22      1.0000 0.14140  0.96350  0.14450  Biso   1.000  N
  N23      1.0000 0.53650  0.64140  0.39450  Biso   1.000  N
  N24      1.0000 0.46350  0.35860  0.89450  Biso   1.000  N
  N25      1.0000 0.63180  0.54160  0.80320  Biso   1.000  N
  N26      1.0000 0.36820  0.45840  0.30320  Biso   1.000  N
  N27      1.0000 0.95840  0.13180  0.05320  Biso   1.000  N
  N28      1.0000 0.04160  0.86820  0.55320  Biso   1.000  N
  N29      1.0000 0.86820  0.04160  0.44680  Biso   1.000  N
  N30      1.0000 0.13180  0.95840  0.94680  Biso   1.000  N
  N31      1.0000 0.54160  0.63180  0.19680  Biso   1.000  N
  N32      1.0000 0.45840  0.36820  0.69680  Biso   1.000  N
  N33      1.0000 0.78080  0.40780  0.57200  Biso   1.000  N
  N34      1.0000 0.21920  0.59220  0.07200  Biso   1.000  N
  N35      1.0000 0.09220  0.28080  0.82200  Biso   1.000  N
  N36      1.0000 0.90780  0.71920  0.32200  Biso   1.000  N
  N37      1.0000 0.71920  0.90780  0.67800  Biso   1.000  N
  N38      1.0000 0.28080  0.09220  0.17800  Biso   1.000  N
  N39      1.0000 0.40780  0.78080  0.42800  Biso   1.000  N
  N40      1.0000 0.59220  0.21920  0.92800  Biso   1.000  N
  N41      1.0000 0.85730  0.34160  0.57070  Biso   1.000  N
  N42      1.0000 0.14270  0.65840  0.07070  Biso   1.000  N
  N43      1.0000 0.15840  0.35730  0.82070  Biso   1.000  N
  N44      1.0000 0.84160  0.64270  0.32070  Biso   1.000  N
  N45      1.0000 0.64270  0.84160  0.67930  Biso   1.000  N
  N46      1.0000 0.35730  0.15840  0.17930  Biso   1.000  N
  N47      1.0000 0.34160  0.85730  0.42930  Biso   1.000  N
  N48      1.0000 0.65840  0.14270  0.92930  Biso   1.000  N
  N49      1.0000 0.88120  0.32100  0.68160  Biso   1.000  N
  N50      1.0000 0.11880  0.67900  0.18160  Biso   1.000  N
  N51      1.0000 0.17900  0.38120  0.93160  Biso   1.000  N
  N52      1.0000 0.82100  0.61880  0.43160  Biso   1.000  N
  N53      1.0000 0.61880  0.82100  0.56840  Biso   1.000  N
  N54      1.0000 0.38120  0.17900  0.06840  Biso   1.000  N
  N55      1.0000 0.32100  0.88120  0.31840  Biso   1.000  N
  N56      1.0000 0.67900  0.11880  0.81840  Biso   1.000  N
  N57      1.0000 0.82000  0.37330  0.75720  Biso   1.000  N
  N58      1.0000 0.18000  0.62670  0.25720  Biso   1.000  N
  N59      1.0000 0.12670  0.32000  0.00720  Biso   1.000  N
  N60      1.0000 0.87330  0.68000  0.50720  Biso   1.000  N
  N61      1.0000 0.68000  0.87330  0.49280  Biso   1.000  N
  N62      1.0000 0.32000  0.12670  0.99280  Biso   1.000  N
  N63      1.0000 0.37330  0.82000  0.24280  Biso   1.000  N
  N64      1.0000 0.62670  0.18000  0.74280  Biso   1.000  N
  C1       1.0000 0.37610  0.80590  0.74150  Biso   1.000  C
  C2       1.0000 0.62390  0.19410  0.24150  Biso   1.000  C
  C3       1.0000 0.69410  0.87610  0.99150  Biso   1.000  C
  C4       1.0000 0.30590  0.12390  0.49150  Biso   1.000  C
  C5       1.0000 0.12390  0.30590  0.50850  Biso   1.000  C
  C6       1.0000 0.87610  0.69410  0.00850  Biso   1.000  C
  C7       1.0000 0.80590  0.37610  0.25850  Biso   1.000  C
  C8       1.0000 0.19410  0.62390  0.75850  Biso   1.000  C
  H1       1.0000 0.34350  0.84410  0.68110  Biso   1.000  H
  H2       1.0000 0.65650  0.15590  0.18110  Biso   1.000  H
  H3       1.0000 0.65590  0.84350  0.93110  Biso   1.000  H
  H4       1.0000 0.34410  0.15650  0.43110  Biso   1.000  H
  H5       1.0000 0.15650  0.34410  0.56890  Biso   1.000  H
  H6       1.0000 0.84350  0.65590  0.06890  Biso   1.000  H
  H7       1.0000 0.84410  0.34350  0.31890  Biso   1.000  H
  H8       1.0000 0.15590  0.65650  0.81890  Biso   1.000  H
  C9       1.0000 0.35190  0.82750  0.85850  Biso   1.000  C
  C10      1.0000 0.64810  0.17250  0.35850  Biso   1.000  C
  C11      1.0000 0.67250  0.85190  0.10850  Biso   1.000  C
  C12      1.0000 0.32750  0.14810  0.60850  Biso   1.000  C
  C13      1.0000 0.14810  0.32750  0.39150  Biso   1.000  C
  C14      1.0000 0.85190  0.67250  0.89150  Biso   1.000  C
  C15      1.0000 0.82750  0.35190  0.14150  Biso   1.000  C
  C16      1.0000 0.17250  0.64810  0.64150  Biso   1.000  C
  H9       1.0000 0.30360  0.87890  0.87770  Biso   1.000  H
  H10      1.0000 0.69640  0.12110  0.37770  Biso   1.000  H
  H11      1.0000 0.62110  0.80360  0.12770  Biso   1.000  H
  H12      1.0000 0.37890  0.19640  0.62770  Biso   1.000  H
  H13      1.0000 0.19640  0.37890  0.37230  Biso   1.000  H
  H14      1.0000 0.80360  0.62110  0.87230  Biso   1.000  H
  H15      1.0000 0.87890  0.30360  0.12230  Biso   1.000  H
  H16      1.0000 0.12110  0.69640  0.62230  Biso   1.000  H
  C17      1.0000 0.40040  0.77180  0.94600  Biso   1.000  C
  C18      1.0000 0.59960  0.22820  0.44600  Biso   1.000  C
  C19      1.0000 0.72820  0.90040  0.19600  Biso   1.000  C
  C20      1.0000 0.27180  0.09960  0.69600  Biso   1.000  C
  C21      1.0000 0.09960  0.27180  0.30400  Biso   1.000  C
  C22      1.0000 0.90040  0.72820  0.80400  Biso   1.000  C
  C23      1.0000 0.77180  0.40040  0.05400  Biso   1.000  C
  C24      1.0000 0.22820  0.59960  0.55400  Biso   1.000  C
  H17      1.0000 0.38570  0.78510  0.02650  Biso   1.000  H
  H18      1.0000 0.61430  0.21490  0.52650  Biso   1.000  H
  H19      1.0000 0.71490  0.88570  0.27650  Biso   1.000  H
  H20      1.0000 0.28510  0.11430  0.77650  Biso   1.000  H
  H21      1.0000 0.11430  0.28510  0.22350  Biso   1.000  H
  H22      1.0000 0.88570  0.71490  0.72350  Biso   1.000  H
  H23      1.0000 0.78510  0.38570  0.97350  Biso   1.000  H
  H24      1.0000 0.21490  0.61430  0.47350  Biso   1.000  H
  C25      1.0000 0.47090  0.69630  0.91570  Biso   1.000  C
  C26      1.0000 0.52910  0.30370  0.41570  Biso   1.000  C
  C27      1.0000 0.80370  0.97090  0.16570  Biso   1.000  C
  C28      1.0000 0.19630  0.02910  0.66570  Biso   1.000  C
  C29      1.0000 0.02910  0.19630  0.33430  Biso   1.000  C
  C30      1.0000 0.97090  0.80370  0.83430  Biso   1.000  C
  C31      1.0000 0.69630  0.47090  0.08430  Biso   1.000  C
  C32      1.0000 0.30370  0.52910  0.58430  Biso   1.000  C
  H25      1.0000 0.50430  0.65720  0.97470  Biso   1.000  H
  H26      1.0000 0.49570  0.34280  0.47470  Biso   1.000  H
  H27      1.0000 0.84280  0.00430  0.22470  Biso   1.000  H
  H28      1.0000 0.15720  0.99570  0.72470  Biso   1.000  H
  H29      1.0000 0.99570  0.15720  0.27530  Biso   1.000  H
  H30      1.0000 0.00430  0.84280  0.77530  Biso   1.000  H
  H31      1.0000 0.65720  0.50430  0.02530  Biso   1.000  H
  H32      1.0000 0.34280  0.49570  0.52530  Biso   1.000  H
  C33      1.0000 0.49090  0.67960  0.79780  Biso   1.000  C
  C34      1.0000 0.50910  0.32040  0.29780  Biso   1.000  C
  C35      1.0000 0.82040  0.99090  0.04780  Biso   1.000  C
  C36      1.0000 0.17960  0.00910  0.54780  Biso   1.000  C
  C37      1.0000 0.00910  0.17960  0.45220  Biso   1.000  C
  C38      1.0000 0.99090  0.82040  0.95220  Biso   1.000  C
  C39      1.0000 0.67960  0.49090  0.20220  Biso   1.000  C
  C40      1.0000 0.32040  0.50910  0.70220  Biso   1.000  C
  C41      1.0000 0.56420  0.60620  0.75080  Biso   1.000  C
  C42      1.0000 0.43580  0.39380  0.25080  Biso   1.000  C
  C43      1.0000 0.89380  0.06420  0.00080  Biso   1.000  C
  C44      1.0000 0.10620  0.93580  0.50080  Biso   1.000  C
  C45      1.0000 0.93580  0.10620  0.49920  Biso   1.000  C
  C46      1.0000 0.06420  0.89380  0.99920  Biso   1.000  C
  C47      1.0000 0.60620  0.56420  0.24920  Biso   1.000  C
  C48      1.0000 0.39380  0.43580  0.74920  Biso   1.000  C
  C49      1.0000 0.67790  0.50050  0.70710  Biso   1.000  C
  C50      1.0000 0.32210  0.49950  0.20710  Biso   1.000  C
  C51      1.0000 0.99950  0.17790  0.95710  Biso   1.000  C
  C52      1.0000 0.00050  0.82210  0.45710  Biso   1.000  C
  C53      1.0000 0.82210  0.00050  0.54290  Biso   1.000  C
  C54      1.0000 0.17790  0.99950  0.04290  Biso   1.000  C
  C55      1.0000 0.50050  0.67790  0.29290  Biso   1.000  C
  C56      1.0000 0.49950  0.32210  0.79290  Biso   1.000  C
  C57      1.0000 0.75960  0.42600  0.68680  Biso   1.000  C
  C58      1.0000 0.24040  0.57400  0.18680  Biso   1.000  C
  C59      1.0000 0.07400  0.25960  0.93680  Biso   1.000  C
  C60      1.0000 0.92600  0.74040  0.43680  Biso   1.000  C
  C61      1.0000 0.74040  0.92600  0.56320  Biso   1.000  C
  C62      1.0000 0.25960  0.07400  0.06320  Biso   1.000  C
  C63      1.0000 0.42600  0.75960  0.31320  Biso   1.000  C
  C64      1.0000 0.57400  0.24040  0.81320  Biso   1.000  C
