data_image0
_cell_length_a       12.525
_cell_length_b       12.736
_cell_length_c       10.033
_cell_angle_alpha    94.64
_cell_angle_beta     102.51
_cell_angle_gamma    109.32

_symmetry_space_group_name_H-M    "P 1"
_symmetry_int_tables_number       1

loop_
  _symmetry_equiv_pos_as_xyz
  'x, y, z'

loop_
  _atom_site_label
  _atom_site_occupancy
  _atom_site_fract_x
  _atom_site_fract_y
  _atom_site_fract_z
  _atom_site_thermal_displace_type
  _atom_site_B_iso_or_equiv
  _atom_site_type_symbol
  Cu1      1.0000 0.39771  0.98688  0.02690  Biso   1.000  Cu
  Cu2      1.0000 0.60229  0.01312  0.97310  Biso   1.000  Cu
  Cu3      1.0000 0.00000  0.00000  0.00000  Biso   1.000  Cu
  O1       1.0000 0.45720  0.15330  0.06150  Biso   1.000  O
  O2       1.0000 0.54280  0.84670  0.93850  Biso   1.000  O
  O3       1.0000 0.37150  0.82550  0.98600  Biso   1.000  O
  O4       1.0000 0.62850  0.17450  0.01400  Biso   1.000  O
  O5       1.0000 0.34780  0.99050  0.82800  Biso   1.000  O
  O6       1.0000 0.65220  0.00950  0.17200  Biso   1.000  O
  O7       1.0000 0.48090  0.98950  0.21820  Biso   1.000  O
  O8       1.0000 0.51910  0.01050  0.78180  Biso   1.000  O
  O9       1.0000 0.22230  0.96250  0.05120  Biso   1.000  O
  O10      1.0000 0.77770  0.03750  0.94880  Biso   1.000  O
  O11      1.0000 0.06310  0.91540  0.12690  Biso   1.000  O
  O12      1.0000 0.93690  0.08460  0.87310  Biso   1.000  O
  N1       1.0000 0.08610  0.14820  0.13690  Biso   1.000  N
  N2       1.0000 0.91390  0.85180  0.86310  Biso   1.000  N
  C1       1.0000 0.55620  0.21170  0.04730  Biso   1.000  C
  C2       1.0000 0.44380  0.78830  0.95270  Biso   1.000  C
  C3       1.0000 0.59130  0.33900  0.07460  Biso   1.000  C
  C4       1.0000 0.40870  0.66100  0.92540  Biso   1.000  C
  C5       1.0000 0.66230  0.39590  0.22140  Biso   1.000  C
  C6       1.0000 0.33770  0.60410  0.77860  Biso   1.000  C
  C7       1.0000 0.68900  0.52170  0.23340  Biso   1.000  C
  C8       1.0000 0.31100  0.47830  0.76660  Biso   1.000  C
  C9       1.0000 0.77450  0.37490  0.25940  Biso   1.000  C
  C10      1.0000 0.22550  0.62510  0.74060  Biso   1.000  C
  C11      1.0000 0.59000  0.35010  0.32140  Biso   1.000  C
  C12      1.0000 0.41000  0.64990  0.67860  Biso   1.000  C
  C13      1.0000 0.41360  0.00260  0.74820  Biso   1.000  C
  C14      1.0000 0.58640  0.99740  0.25180  Biso   1.000  C
  C15      1.0000 0.36300  0.01120  0.59970  Biso   1.000  C
  C16      1.0000 0.63700  0.98880  0.40030  Biso   1.000  C
  C17      1.0000 0.36770  0.13090  0.57490  Biso   1.000  C
  C18      1.0000 0.63230  0.86910  0.42510  Biso   1.000  C
  C19      1.0000 0.32470  0.12640  0.41970  Biso   1.000  C
  C20      1.0000 0.67530  0.87360  0.58030  Biso   1.000  C
  C21      1.0000 0.29110  0.16860  0.64910  Biso   1.000  C
  C22      1.0000 0.70890  0.83140  0.35090  Biso   1.000  C
  C23      1.0000 0.49380  0.21360  0.62630  Biso   1.000  C
  C24      1.0000 0.50620  0.78640  0.37370  Biso   1.000  C
  C25      1.0000 0.16180  0.90810  0.12250  Biso   1.000  C
  C26      1.0000 0.83820  0.09190  0.87750  Biso   1.000  C
  C27      1.0000 0.20320  0.83010  0.20790  Biso   1.000  C
  C28      1.0000 0.79680  0.16990  0.79210  Biso   1.000  C
  C29      1.0000 0.11380  0.71940  0.22400  Biso   1.000  C
  C30      1.0000 0.88620  0.28060  0.77600  Biso   1.000  C
  C31      1.0000 0.03350  0.65560  0.08780  Biso   1.000  C
  C32      1.0000 0.96650  0.34440  0.91220  Biso   1.000  C
  C33      1.0000 0.04140  0.74250  0.32070  Biso   1.000  C
  C34      1.0000 0.95860  0.25750  0.67930  Biso   1.000  C
  C35      1.0000 0.18130  0.64830  0.28870  Biso   1.000  C
  C36      1.0000 0.81870  0.35170  0.71130  Biso   1.000  C
  C37      1.0000 0.17540  0.23050  0.10930  Biso   1.000  C
  C38      1.0000 0.82460  0.76950  0.89070  Biso   1.000  C
  C39      1.0000 0.22790  0.33440  0.19510  Biso   1.000  C
  C40      1.0000 0.77210  0.66560  0.80490  Biso   1.000  C
  C41      1.0000 0.19020  0.35470  0.30860  Biso   1.000  C
  C42      1.0000 0.80980  0.64530  0.69140  Biso   1.000  C
  C43      1.0000 0.10130  0.27200  0.33670  Biso   1.000  C
  C44      1.0000 0.89870  0.72800  0.66330  Biso   1.000  C
  C45      1.0000 0.04880  0.16770  0.24970  Biso   1.000  C
  C46      1.0000 0.95120  0.83230  0.75030  Biso   1.000  C
  C47      1.0000 0.21450  0.20740  0.98490  Biso   1.000  C
  C48      1.0000 0.78550  0.79260  0.01510  Biso   1.000  C
  C49      1.0000 0.95240  0.07460  0.27840  Biso   1.000  C
  C50      1.0000 0.04760  0.92540  0.72160  Biso   1.000  C
  H1       1.0000 0.63730  0.36980  0.01230  Biso   1.000  H
  H2       1.0000 0.36270  0.63020  0.98770  Biso   1.000  H
  H3       1.0000 0.52110  0.35640  0.05580  Biso   1.000  H
  H4       1.0000 0.47890  0.64360  0.94420  Biso   1.000  H
  H5       1.0000 0.73070  0.55760  0.32690  Biso   1.000  H
  H6       1.0000 0.26930  0.44240  0.67310  Biso   1.000  H
  H7       1.0000 0.73620  0.55160  0.17200  Biso   1.000  H
  H8       1.0000 0.26380  0.44840  0.82800  Biso   1.000  H
  H9       1.0000 0.61700  0.53570  0.20890  Biso   1.000  H
  H10      1.0000 0.38300  0.46430  0.79110  Biso   1.000  H
  H11      1.0000 0.75810  0.29510  0.25200  Biso   1.000  H
  H12      1.0000 0.24190  0.70490  0.74800  Biso   1.000  H
  H13      1.0000 0.82160  0.40490  0.19780  Biso   1.000  H
  H14      1.0000 0.17840  0.59510  0.80220  Biso   1.000  H
  H15      1.0000 0.81620  0.41090  0.35280  Biso   1.000  H
  H16      1.0000 0.18380  0.58910  0.64720  Biso   1.000  H
  H17      1.0000 0.63270  0.38750  0.41400  Biso   1.000  H
  H18      1.0000 0.36730  0.61250  0.58600  Biso   1.000  H
  H19      1.0000 0.51750  0.36330  0.29760  Biso   1.000  H
  H20      1.0000 0.48250  0.63670  0.70240  Biso   1.000  H
  H21      1.0000 0.57380  0.27050  0.31570  Biso   1.000  H
  H22      1.0000 0.42620  0.72950  0.68430  Biso   1.000  H
  H23      1.0000 0.40590  0.98700  0.54300  Biso   1.000  H
  H24      1.0000 0.59410  0.01300  0.45700  Biso   1.000  H
  H25      1.0000 0.28250  0.96160  0.57190  Biso   1.000  H
  H26      1.0000 0.71750  0.03840  0.42810  Biso   1.000  H
  H27      1.0000 0.32730  0.20000  0.40160  Biso   1.000  H
  H28      1.0000 0.67270  0.80000  0.59840  Biso   1.000  H
  H29      1.0000 0.37410  0.10270  0.37290  Biso   1.000  H
  H30      1.0000 0.62590  0.89730  0.62710  Biso   1.000  H
  H31      1.0000 0.24570  0.07380  0.38690  Biso   1.000  H
  H32      1.0000 0.75430  0.92620  0.61310  Biso   1.000  H
  H33      1.0000 0.31890  0.17180  0.74690  Biso   1.000  H
  H34      1.0000 0.68110  0.82820  0.25310  Biso   1.000  H
  H35      1.0000 0.29350  0.24200  0.63060  Biso   1.000  H
  H36      1.0000 0.70650  0.75800  0.36940  Biso   1.000  H
  H37      1.0000 0.21200  0.11590  0.61710  Biso   1.000  H
  H38      1.0000 0.78800  0.88410  0.38290  Biso   1.000  H
  H39      1.0000 0.52140  0.21600  0.72400  Biso   1.000  H
  H40      1.0000 0.47860  0.78400  0.27600  Biso   1.000  H
  H41      1.0000 0.54240  0.18940  0.57860  Biso   1.000  H
  H42      1.0000 0.45760  0.81060  0.42140  Biso   1.000  H
  H43      1.0000 0.49700  0.28740  0.60880  Biso   1.000  H
  H44      1.0000 0.50300  0.71260  0.39120  Biso   1.000  H
  H45      1.0000 0.25820  0.81070  0.16700  Biso   1.000  H
  H46      1.0000 0.74180  0.18930  0.83300  Biso   1.000  H
  H47      1.0000 0.24260  0.87210  0.29930  Biso   1.000  H
  H48      1.0000 0.75740  0.12790  0.70070  Biso   1.000  H
  H49      1.0000 0.99040  0.69990  0.04670  Biso   1.000  H
  H50      1.0000 0.00960  0.30010  0.95330  Biso   1.000  H
  H51      1.0000 0.07850  0.64010  0.02770  Biso   1.000  H
  H52      1.0000 0.92150  0.35990  0.97230  Biso   1.000  H
  H53      1.0000 0.97990  0.58590  0.10120  Biso   1.000  H
  H54      1.0000 0.02010  0.41410  0.89880  Biso   1.000  H
  H55      1.0000 0.09300  0.78300  0.40870  Biso   1.000  H
  H56      1.0000 0.90700  0.21700  0.59130  Biso   1.000  H
  H57      1.0000 0.99790  0.78680  0.28050  Biso   1.000  H
  H58      1.0000 0.00210  0.21320  0.71950  Biso   1.000  H
  H59      1.0000 0.98820  0.67230  0.33330  Biso   1.000  H
  H60      1.0000 0.01180  0.32770  0.66670  Biso   1.000  H
  H61      1.0000 0.12730  0.57860  0.30150  Biso   1.000  H
  H62      1.0000 0.87270  0.42140  0.69850  Biso   1.000  H
  H63      1.0000 0.22640  0.63280  0.22870  Biso   1.000  H
  H64      1.0000 0.77360  0.36720  0.77130  Biso   1.000  H
  H65      1.0000 0.23290  0.68880  0.37670  Biso   1.000  H
  H66      1.0000 0.76710  0.31120  0.62330  Biso   1.000  H
  H67      1.0000 0.29100  0.39230  0.17440  Biso   1.000  H
  H68      1.0000 0.70900  0.60770  0.82560  Biso   1.000  H
  H69      1.0000 0.22620  0.42670  0.36810  Biso   1.000  H
  H70      1.0000 0.77380  0.57330  0.63190  Biso   1.000  H
  H71      1.0000 0.07430  0.28530  0.41680  Biso   1.000  H
  H72      1.0000 0.92570  0.71470  0.58320  Biso   1.000  H
  H73      1.0000 0.23970  0.14420  0.99120  Biso   1.000  H
  H74      1.0000 0.76030  0.85580  0.00880  Biso   1.000  H
  H75      1.0000 0.15070  0.19060  0.90390  Biso   1.000  H
  H76      1.0000 0.84930  0.80940  0.09610  Biso   1.000  H
  H77      1.0000 0.27830  0.27250  0.97880  Biso   1.000  H
  H78      1.0000 0.72170  0.72750  0.02120  Biso   1.000  H
  H79      1.0000 0.93450  0.09940  0.36100  Biso   1.000  H
  H80      1.0000 0.06550  0.90060  0.63900  Biso   1.000  H
  H81      1.0000 0.88410  0.05330  0.20190  Biso   1.000  H
  H82      1.0000 0.11590  0.94670  0.79810  Biso   1.000  H
  H83      1.0000 0.97620  0.01090  0.29070  Biso   1.000  H
  H84      1.0000 0.02380  0.98910  0.70930  Biso   1.000  H
