data_image0
_cell_length_a       9.8944
_cell_length_b       25.2972
_cell_length_c       7.4457
_cell_angle_alpha    90
_cell_angle_beta     90
_cell_angle_gamma    90

_symmetry_space_group_name_H-M    "P 1"
_symmetry_int_tables_number       1

loop_
  _symmetry_equiv_pos_as_xyz
  'x, y, z'

loop_
  _atom_site_label
  _atom_site_occupancy
  _atom_site_fract_x
  _atom_site_fract_y
  _atom_site_fract_z
  _atom_site_thermal_displace_type
  _atom_site_B_iso_or_equiv
  _atom_site_type_symbol
  Cu1      1.0000 0.03902  0.25000  0.46897  Biso   1.000  Cu
  Cu2      1.0000 0.46098  0.75000  0.96897  Biso   1.000  Cu
  Cu3      1.0000 0.53902  0.25000  0.03103  Biso   1.000  Cu
  Cu4      1.0000 0.96098  0.75000  0.53103  Biso   1.000  Cu
  N1       1.0000 0.16420  0.19193  0.53470  Biso   1.000  N
  N2       1.0000 0.33580  0.80807  0.03470  Biso   1.000  N
  N3       1.0000 0.66420  0.30807  0.96530  Biso   1.000  N
  N4       1.0000 0.83580  0.69193  0.46530  Biso   1.000  N
  N5       1.0000 0.83580  0.80807  0.46530  Biso   1.000  N
  N6       1.0000 0.66420  0.19193  0.96530  Biso   1.000  N
  N7       1.0000 0.33580  0.69193  0.03470  Biso   1.000  N
  N8       1.0000 0.16420  0.30807  0.53470  Biso   1.000  N
  O1       1.0000 0.48530  0.25000  0.69020  Biso   1.000  O
  O2       1.0000 0.01470  0.75000  0.19020  Biso   1.000  O
  O3       1.0000 0.98530  0.25000  0.80980  Biso   1.000  O
  O4       1.0000 0.51470  0.75000  0.30980  Biso   1.000  O
  O5       1.0000 0.90110  0.19897  0.40480  Biso   1.000  O
  O6       1.0000 0.59890  0.80103  0.90480  Biso   1.000  O
  O7       1.0000 0.40110  0.30103  0.09520  Biso   1.000  O
  O8       1.0000 0.09890  0.69897  0.59520  Biso   1.000  O
  O9       1.0000 0.09890  0.80103  0.59520  Biso   1.000  O
  O10      1.0000 0.40110  0.19897  0.09520  Biso   1.000  O
  O11      1.0000 0.59890  0.69897  0.90480  Biso   1.000  O
  O12      1.0000 0.90110  0.30103  0.40480  Biso   1.000  O
  O13      1.0000 0.62700  0.04536  0.47750  Biso   1.000  O
  O14      1.0000 0.87300  0.95464  0.97750  Biso   1.000  O
  O15      1.0000 0.12700  0.45464  0.02250  Biso   1.000  O
  O16      1.0000 0.37300  0.54536  0.52250  Biso   1.000  O
  O17      1.0000 0.37300  0.95464  0.52250  Biso   1.000  O
  O18      1.0000 0.12700  0.04536  0.02250  Biso   1.000  O
  O19      1.0000 0.87300  0.54536  0.97750  Biso   1.000  O
  O20      1.0000 0.62700  0.45464  0.47750  Biso   1.000  O
  C1       1.0000 0.34410  0.25000  0.64960  Biso   1.000  C
  C2       1.0000 0.15590  0.75000  0.14960  Biso   1.000  C
  C3       1.0000 0.84410  0.25000  0.85040  Biso   1.000  C
  C4       1.0000 0.65590  0.75000  0.35040  Biso   1.000  C
  H1       1.0000 0.29300  0.25000  0.76230  Biso   1.000  H
  H2       1.0000 0.20700  0.75000  0.26230  Biso   1.000  H
  H3       1.0000 0.79300  0.25000  0.73770  Biso   1.000  H
  H4       1.0000 0.70700  0.75000  0.23770  Biso   1.000  H
  C5       1.0000 0.31350  0.20144  0.55090  Biso   1.000  C
  C6       1.0000 0.18650  0.79856  0.05090  Biso   1.000  C
  C7       1.0000 0.81350  0.29856  0.94910  Biso   1.000  C
  C8       1.0000 0.68650  0.70144  0.44910  Biso   1.000  C
  C9       1.0000 0.68650  0.79856  0.44910  Biso   1.000  C
  C10      1.0000 0.81350  0.20144  0.94910  Biso   1.000  C
  C11      1.0000 0.18650  0.70144  0.05090  Biso   1.000  C
  C12      1.0000 0.31350  0.29856  0.55090  Biso   1.000  C
  H5       1.0000 0.35480  0.17170  0.61220  Biso   1.000  H
  H6       1.0000 0.14520  0.82830  0.11220  Biso   1.000  H
  H7       1.0000 0.85480  0.32830  0.88780  Biso   1.000  H
  H8       1.0000 0.64520  0.67170  0.38780  Biso   1.000  H
  H9       1.0000 0.64520  0.82830  0.38780  Biso   1.000  H
  H10      1.0000 0.85480  0.17170  0.88780  Biso   1.000  H
  H11      1.0000 0.14520  0.67170  0.11220  Biso   1.000  H
  H12      1.0000 0.35480  0.32830  0.61220  Biso   1.000  H
  H13      1.0000 0.35260  0.20370  0.43170  Biso   1.000  H
  H14      1.0000 0.14740  0.79630  0.93170  Biso   1.000  H
  H15      1.0000 0.85260  0.29630  0.06830  Biso   1.000  H
  H16      1.0000 0.64740  0.70370  0.56830  Biso   1.000  H
  H17      1.0000 0.64740  0.79630  0.56830  Biso   1.000  H
  H18      1.0000 0.85260  0.20370  0.06830  Biso   1.000  H
  H19      1.0000 0.14740  0.70370  0.93170  Biso   1.000  H
  H20      1.0000 0.35260  0.29630  0.43170  Biso   1.000  H
  C13      1.0000 0.12210  0.14535  0.57870  Biso   1.000  C
  C14      1.0000 0.37790  0.85465  0.07870  Biso   1.000  C
  C15      1.0000 0.62210  0.35465  0.92130  Biso   1.000  C
  C16      1.0000 0.87790  0.64535  0.42130  Biso   1.000  C
  C17      1.0000 0.87790  0.85465  0.42130  Biso   1.000  C
  C18      1.0000 0.62210  0.14535  0.92130  Biso   1.000  C
  C19      1.0000 0.37790  0.64535  0.07870  Biso   1.000  C
  C20      1.0000 0.12210  0.35465  0.57870  Biso   1.000  C
  H21      1.0000 0.18600  0.12310  0.63030  Biso   1.000  H
  H22      1.0000 0.31400  0.87690  0.13030  Biso   1.000  H
  H23      1.0000 0.68600  0.37690  0.86970  Biso   1.000  H
  H24      1.0000 0.81400  0.62310  0.36970  Biso   1.000  H
  H25      1.0000 0.81400  0.87690  0.36970  Biso   1.000  H
  H26      1.0000 0.68600  0.12310  0.86970  Biso   1.000  H
  H27      1.0000 0.31400  0.62310  0.13030  Biso   1.000  H
  H28      1.0000 0.18600  0.37690  0.63030  Biso   1.000  H
  C21      1.0000 0.99050  0.12399  0.55800  Biso   1.000  C
  C22      1.0000 0.50950  0.87601  0.05800  Biso   1.000  C
  C23      1.0000 0.49050  0.37601  0.94200  Biso   1.000  C
  C24      1.0000 0.00950  0.62399  0.44200  Biso   1.000  C
  C25      1.0000 0.00950  0.87601  0.44200  Biso   1.000  C
  C26      1.0000 0.49050  0.12399  0.94200  Biso   1.000  C
  C27      1.0000 0.50950  0.62399  0.05800  Biso   1.000  C
  C28      1.0000 0.99050  0.37601  0.55800  Biso   1.000  C
  C29      1.0000 0.88700  0.15082  0.46510  Biso   1.000  C
  C30      1.0000 0.61300  0.84918  0.96510  Biso   1.000  C
  C31      1.0000 0.38700  0.34918  0.03490  Biso   1.000  C
  C32      1.0000 0.11300  0.65082  0.53490  Biso   1.000  C
  C33      1.0000 0.11300  0.84918  0.53490  Biso   1.000  C
  C34      1.0000 0.38700  0.15082  0.03490  Biso   1.000  C
  C35      1.0000 0.61300  0.65082  0.96510  Biso   1.000  C
  C36      1.0000 0.88700  0.34918  0.46510  Biso   1.000  C
  C37      1.0000 0.76410  0.12398  0.43380  Biso   1.000  C
  C38      1.0000 0.73590  0.87602  0.93380  Biso   1.000  C
  C39      1.0000 0.26410  0.37602  0.06620  Biso   1.000  C
  C40      1.0000 0.23590  0.62398  0.56620  Biso   1.000  C
  C41      1.0000 0.23590  0.87602  0.56620  Biso   1.000  C
  C42      1.0000 0.26410  0.12398  0.06620  Biso   1.000  C
  C43      1.0000 0.73590  0.62398  0.93380  Biso   1.000  C
  C44      1.0000 0.76410  0.37602  0.43380  Biso   1.000  C
  H29      1.0000 0.69580  0.14060  0.36910  Biso   1.000  H
  H30      1.0000 0.80420  0.85940  0.86910  Biso   1.000  H
  H31      1.0000 0.19580  0.35940  0.13090  Biso   1.000  H
  H32      1.0000 0.30420  0.64060  0.63090  Biso   1.000  H
  H33      1.0000 0.30420  0.85940  0.63090  Biso   1.000  H
  H34      1.0000 0.19580  0.14060  0.13090  Biso   1.000  H
  H35      1.0000 0.80420  0.64060  0.86910  Biso   1.000  H
  H36      1.0000 0.69580  0.35940  0.36910  Biso   1.000  H
  C45      1.0000 0.74390  0.07326  0.49810  Biso   1.000  C
  C46      1.0000 0.75610  0.92674  0.99810  Biso   1.000  C
  C47      1.0000 0.24390  0.42674  0.00190  Biso   1.000  C
  C48      1.0000 0.25610  0.57326  0.50190  Biso   1.000  C
  C49      1.0000 0.25610  0.92674  0.50190  Biso   1.000  C
  C50      1.0000 0.24390  0.07326  0.00190  Biso   1.000  C
  C51      1.0000 0.75610  0.57326  0.99810  Biso   1.000  C
  C52      1.0000 0.74390  0.42674  0.49810  Biso   1.000  C
  C53      1.0000 0.84490  0.04767  0.59400  Biso   1.000  C
  C54      1.0000 0.65510  0.95233  0.09400  Biso   1.000  C
  C55      1.0000 0.34490  0.45233  0.90600  Biso   1.000  C
  C56      1.0000 0.15510  0.54767  0.40600  Biso   1.000  C
  C57      1.0000 0.15510  0.95233  0.40600  Biso   1.000  C
  C58      1.0000 0.34490  0.04767  0.90600  Biso   1.000  C
  C59      1.0000 0.65510  0.54767  0.09400  Biso   1.000  C
  C60      1.0000 0.84490  0.45233  0.59400  Biso   1.000  C
  H37      1.0000 0.83050  0.01400  0.64020  Biso   1.000  H
  H38      1.0000 0.66950  0.98600  0.14020  Biso   1.000  H
  H39      1.0000 0.33050  0.48600  0.85980  Biso   1.000  H
  H40      1.0000 0.16950  0.51400  0.35980  Biso   1.000  H
  H41      1.0000 0.16950  0.98600  0.35980  Biso   1.000  H
  H42      1.0000 0.33050  0.01400  0.85980  Biso   1.000  H
  H43      1.0000 0.66950  0.51400  0.14020  Biso   1.000  H
  H44      1.0000 0.83050  0.48600  0.64020  Biso   1.000  H
  C61      1.0000 0.96490  0.07249  0.61940  Biso   1.000  C
  C62      1.0000 0.53510  0.92751  0.11940  Biso   1.000  C
  C63      1.0000 0.46490  0.42751  0.88060  Biso   1.000  C
  C64      1.0000 0.03510  0.57249  0.38060  Biso   1.000  C
  C65      1.0000 0.03510  0.92751  0.38060  Biso   1.000  C
  C66      1.0000 0.46490  0.07249  0.88060  Biso   1.000  C
  C67      1.0000 0.53510  0.57249  0.11940  Biso   1.000  C
  C68      1.0000 0.96490  0.42751  0.61940  Biso   1.000  C
  H45      1.0000 0.03310  0.05460  0.68010  Biso   1.000  H
  H46      1.0000 0.46690  0.94540  0.18010  Biso   1.000  H
  H47      1.0000 0.53310  0.44540  0.81990  Biso   1.000  H
  H48      1.0000 0.96690  0.55460  0.31990  Biso   1.000  H
  H49      1.0000 0.96690  0.94540  0.31990  Biso   1.000  H
  H50      1.0000 0.53310  0.05460  0.81990  Biso   1.000  H
  H51      1.0000 0.46690  0.55460  0.18010  Biso   1.000  H
  H52      1.0000 0.03310  0.44540  0.68010  Biso   1.000  H
  C69      1.0000 0.51640  0.06968  0.39120  Biso   1.000  C
  C70      1.0000 0.98360  0.93032  0.89120  Biso   1.000  C
  C71      1.0000 0.01640  0.43032  0.10880  Biso   1.000  C
  C72      1.0000 0.48360  0.56968  0.60880  Biso   1.000  C
  C73      1.0000 0.48360  0.93032  0.60880  Biso   1.000  C
  C74      1.0000 0.01640  0.06968  0.10880  Biso   1.000  C
  C75      1.0000 0.98360  0.56968  0.89120  Biso   1.000  C
  C76      1.0000 0.51640  0.43032  0.39120  Biso   1.000  C
  H53      1.0000 0.54040  0.07790  0.26950  Biso   1.000  H
  H54      1.0000 0.95960  0.92210  0.76950  Biso   1.000  H
  H55      1.0000 0.04040  0.42210  0.23050  Biso   1.000  H
  H56      1.0000 0.45960  0.57790  0.73050  Biso   1.000  H
  H57      1.0000 0.45960  0.92210  0.73050  Biso   1.000  H
  H58      1.0000 0.04040  0.07790  0.23050  Biso   1.000  H
  H59      1.0000 0.95960  0.57790  0.76950  Biso   1.000  H
  H60      1.0000 0.54040  0.42210  0.26950  Biso   1.000  H
  H61      1.0000 0.49320  0.10160  0.45360  Biso   1.000  H
  H62      1.0000 0.00680  0.89840  0.95360  Biso   1.000  H
  H63      1.0000 0.99320  0.39840  0.04640  Biso   1.000  H
  H64      1.0000 0.50680  0.60160  0.54640  Biso   1.000  H
  H65      1.0000 0.50680  0.89840  0.54640  Biso   1.000  H
  H66      1.0000 0.99320  0.10160  0.04640  Biso   1.000  H
  H67      1.0000 0.00680  0.60160  0.95360  Biso   1.000  H
  H68      1.0000 0.49320  0.39840  0.45360  Biso   1.000  H
  H69      1.0000 0.44050  0.04610  0.39200  Biso   1.000  H
  H70      1.0000 0.05950  0.95390  0.89200  Biso   1.000  H
  H71      1.0000 0.94050  0.45390  0.10800  Biso   1.000  H
  H72      1.0000 0.55950  0.54610  0.60800  Biso   1.000  H
  H73      1.0000 0.55950  0.95390  0.60800  Biso   1.000  H
  H74      1.0000 0.94050  0.04610  0.10800  Biso   1.000  H
  H75      1.0000 0.05950  0.54610  0.89200  Biso   1.000  H
  H76      1.0000 0.44050  0.45390  0.39200  Biso   1.000  H
  O21      1.0000 0.14330  0.25000  0.12660  Biso   1.000  O
  O22      1.0000 0.35670  0.75000  0.62660  Biso   1.000  O
  O23      1.0000 0.64330  0.25000  0.37340  Biso   1.000  O
  O24      1.0000 0.85670  0.75000  0.87340  Biso   1.000  O
  H77      1.0000 0.19200  0.22690  0.13600  Biso   1.000  H
  H78      1.0000 0.30800  0.77310  0.63600  Biso   1.000  H
  H79      1.0000 0.69200  0.27310  0.36400  Biso   1.000  H
  H80      1.0000 0.80800  0.72690  0.86400  Biso   1.000  H
  H81      1.0000 0.80800  0.77310  0.86400  Biso   1.000  H
  H82      1.0000 0.69200  0.22690  0.36400  Biso   1.000  H
  H83      1.0000 0.30800  0.72690  0.63600  Biso   1.000  H
  H84      1.0000 0.19200  0.27310  0.13600  Biso   1.000  H
  H85      1.0000 0.52850  0.24370  0.59870  Biso   1.000  H
  H86      1.0000 0.97150  0.75630  0.09870  Biso   1.000  H
  H87      1.0000 0.02850  0.25630  0.90130  Biso   1.000  H
  H88      1.0000 0.47150  0.74370  0.40130  Biso   1.000  H
  H89      1.0000 0.47150  0.75630  0.40130  Biso   1.000  H
  H90      1.0000 0.02850  0.24370  0.90130  Biso   1.000  H
  H91      1.0000 0.97150  0.74370  0.09870  Biso   1.000  H
  H92      1.0000 0.52850  0.25630  0.59870  Biso   1.000  H
