data_image0
_cell_length_a       12.553
_cell_length_b       14.4169
_cell_length_c       13.2205
_cell_angle_alpha    90
_cell_angle_beta     94.377
_cell_angle_gamma    90

_symmetry_space_group_name_H-M    "P 1"
_symmetry_int_tables_number       1

loop_
  _symmetry_equiv_pos_as_xyz
  'x, y, z'

loop_
  _atom_site_label
  _atom_site_occupancy
  _atom_site_fract_x
  _atom_site_fract_y
  _atom_site_fract_z
  _atom_site_thermal_displace_type
  _atom_site_B_iso_or_equiv
  _atom_site_type_symbol
  Cu1      1.0000 0.65192  0.28804  0.94659  Biso   1.000  Cu
  Cu2      1.0000 0.15192  0.21196  0.44659  Biso   1.000  Cu
  Cu3      1.0000 0.34808  0.71196  0.05341  Biso   1.000  Cu
  Cu4      1.0000 0.84808  0.78804  0.55341  Biso   1.000  Cu
  Cl1      1.0000 0.37450  0.28470  0.91810  Biso   1.000  Cl
  Cl2      1.0000 0.87450  0.21530  0.41810  Biso   1.000  Cl
  Cl3      1.0000 0.62550  0.71530  0.08190  Biso   1.000  Cl
  Cl4      1.0000 0.12550  0.78470  0.58190  Biso   1.000  Cl
  Cl5      1.0000 0.92690  0.31410  0.82710  Biso   1.000  Cl
  Cl6      1.0000 0.42690  0.18590  0.32710  Biso   1.000  Cl
  Cl7      1.0000 0.07310  0.68590  0.17290  Biso   1.000  Cl
  Cl8      1.0000 0.57310  0.81410  0.67290  Biso   1.000  Cl
  O1       1.0000 0.46940  0.29990  0.98280  Biso   1.000  O
  O2       1.0000 0.96940  0.20010  0.48280  Biso   1.000  O
  O3       1.0000 0.53060  0.70010  0.01720  Biso   1.000  O
  O4       1.0000 0.03060  0.79990  0.51720  Biso   1.000  O
  O5       1.0000 0.28590  0.32160  0.96160  Biso   1.000  O
  O6       1.0000 0.78590  0.17840  0.46160  Biso   1.000  O
  O7       1.0000 0.71410  0.67840  0.03840  Biso   1.000  O
  O8       1.0000 0.21410  0.82160  0.53840  Biso   1.000  O
  O9       1.0000 0.38700  0.31700  0.82270  Biso   1.000  O
  O10      1.0000 0.88700  0.18300  0.32270  Biso   1.000  O
  O11      1.0000 0.61300  0.68300  0.17730  Biso   1.000  O
  O12      1.0000 0.11300  0.81700  0.67730  Biso   1.000  O
  O13      1.0000 0.36150  0.18820  0.90940  Biso   1.000  O
  O14      1.0000 0.86150  0.31180  0.40940  Biso   1.000  O
  O15      1.0000 0.63850  0.81180  0.09060  Biso   1.000  O
  O16      1.0000 0.13850  0.68820  0.59060  Biso   1.000  O
  O17      1.0000 0.85510  0.26910  0.88880  Biso   1.000  O
  O18      1.0000 0.35510  0.23090  0.38880  Biso   1.000  O
  O19      1.0000 0.14490  0.73090  0.11120  Biso   1.000  O
  O20      1.0000 0.64490  0.76910  0.61120  Biso   1.000  O
  O21      1.0000 0.96840  0.39260  0.88080  Biso   1.000  O
  O22      1.0000 0.46840  0.10740  0.38080  Biso   1.000  O
  O23      1.0000 0.03160  0.60740  0.11920  Biso   1.000  O
  O24      1.0000 0.53160  0.89260  0.61920  Biso   1.000  O
  O25      1.0000 0.01140  0.25480  0.80990  Biso   1.000  O
  O26      1.0000 0.51140  0.24520  0.30990  Biso   1.000  O
  O27      1.0000 0.98860  0.74520  0.19010  Biso   1.000  O
  O28      1.0000 0.48860  0.75480  0.69010  Biso   1.000  O
  O29      1.0000 0.87100  0.34210  0.73710  Biso   1.000  O
  O30      1.0000 0.37100  0.15790  0.23710  Biso   1.000  O
  O31      1.0000 0.12900  0.65790  0.26290  Biso   1.000  O
  O32      1.0000 0.62900  0.84210  0.76290  Biso   1.000  O
  O33      1.0000 0.35300  0.04850  0.07700  Biso   1.000  O
  O34      1.0000 0.85300  0.45150  0.57700  Biso   1.000  O
  O35      1.0000 0.64700  0.95150  0.92300  Biso   1.000  O
  O36      1.0000 0.14700  0.54850  0.42300  Biso   1.000  O
  N1       1.0000 0.62530  0.22620  0.81180  Biso   1.000  N
  N2       1.0000 0.12530  0.27380  0.31180  Biso   1.000  N
  N3       1.0000 0.37470  0.77380  0.18820  Biso   1.000  N
  N4       1.0000 0.87470  0.72620  0.68820  Biso   1.000  N
  N5       1.0000 0.63310  0.40390  0.86020  Biso   1.000  N
  N6       1.0000 0.13310  0.09610  0.36020  Biso   1.000  N
  N7       1.0000 0.36690  0.59610  0.13980  Biso   1.000  N
  N8       1.0000 0.86690  0.90390  0.63980  Biso   1.000  N
  N9       1.0000 0.70260  0.35910  0.07190  Biso   1.000  N
  N10      1.0000 0.20260  0.14090  0.57190  Biso   1.000  N
  N11      1.0000 0.29740  0.64090  0.92810  Biso   1.000  N
  N12      1.0000 0.79740  0.85910  0.42810  Biso   1.000  N
  N13      1.0000 0.82340  0.67010  0.47190  Biso   1.000  N
  N14      1.0000 0.32340  0.82990  0.97190  Biso   1.000  N
  N15      1.0000 0.17660  0.32990  0.52810  Biso   1.000  N
  N16      1.0000 0.67660  0.17010  0.02810  Biso   1.000  N
  C1       1.0000 0.61740  0.28710  0.73450  Biso   1.000  C
  C2       1.0000 0.11740  0.21290  0.23450  Biso   1.000  C
  C3       1.0000 0.38260  0.71290  0.26550  Biso   1.000  C
  C4       1.0000 0.88260  0.78710  0.76550  Biso   1.000  C
  C5       1.0000 0.62030  0.13620  0.79030  Biso   1.000  C
  C6       1.0000 0.12030  0.36380  0.29030  Biso   1.000  C
  C7       1.0000 0.37970  0.86380  0.20970  Biso   1.000  C
  C8       1.0000 0.87970  0.63620  0.70970  Biso   1.000  C
  C9       1.0000 0.60710  0.10350  0.69160  Biso   1.000  C
  C10      1.0000 0.10710  0.39650  0.19160  Biso   1.000  C
  C11      1.0000 0.39290  0.89650  0.30840  Biso   1.000  C
  C12      1.0000 0.89290  0.60350  0.80840  Biso   1.000  C
  C13      1.0000 0.60010  0.16420  0.61310  Biso   1.000  C
  C14      1.0000 0.10010  0.33580  0.11310  Biso   1.000  C
  C15      1.0000 0.39990  0.83580  0.38690  Biso   1.000  C
  C16      1.0000 0.89990  0.66420  0.88690  Biso   1.000  C
  C17      1.0000 0.60500  0.26020  0.63240  Biso   1.000  C
  C18      1.0000 0.10500  0.23980  0.13240  Biso   1.000  C
  C19      1.0000 0.39500  0.73980  0.36760  Biso   1.000  C
  C20      1.0000 0.89500  0.76020  0.86760  Biso   1.000  C
  C21      1.0000 0.59730  0.33030  0.55520  Biso   1.000  C
  C22      1.0000 0.09730  0.16970  0.05520  Biso   1.000  C
  C23      1.0000 0.40270  0.66970  0.44480  Biso   1.000  C
  C24      1.0000 0.90270  0.83030  0.94480  Biso   1.000  C
  C25      1.0000 0.60100  0.41920  0.58040  Biso   1.000  C
  C26      1.0000 0.10100  0.08080  0.08040  Biso   1.000  C
  C27      1.0000 0.39900  0.58080  0.41960  Biso   1.000  C
  C28      1.0000 0.89900  0.91920  0.91960  Biso   1.000  C
  C29      1.0000 0.61180  0.44940  0.68400  Biso   1.000  C
  C30      1.0000 0.11180  0.05060  0.18400  Biso   1.000  C
  C31      1.0000 0.38820  0.55060  0.31600  Biso   1.000  C
  C32      1.0000 0.88820  0.94940  0.81600  Biso   1.000  C
  C33      1.0000 0.61310  0.54280  0.71670  Biso   1.000  C
  C34      1.0000 0.11310  0.95720  0.21670  Biso   1.000  C
  C35      1.0000 0.38690  0.45720  0.28330  Biso   1.000  C
  C36      1.0000 0.88690  0.04280  0.78330  Biso   1.000  C
  C37      1.0000 0.62200  0.56370  0.81610  Biso   1.000  C
  C38      1.0000 0.12200  0.93630  0.31610  Biso   1.000  C
  C39      1.0000 0.37800  0.43630  0.18390  Biso   1.000  C
  C40      1.0000 0.87800  0.06370  0.68390  Biso   1.000  C
  C41      1.0000 0.63220  0.49240  0.88630  Biso   1.000  C
  C42      1.0000 0.13220  0.00760  0.38630  Biso   1.000  C
  C43      1.0000 0.36780  0.50760  0.11370  Biso   1.000  C
  C44      1.0000 0.86780  0.99240  0.61370  Biso   1.000  C
  C45      1.0000 0.62150  0.38230  0.76020  Biso   1.000  C
  C46      1.0000 0.12150  0.11770  0.26020  Biso   1.000  C
  C47      1.0000 0.37850  0.61770  0.23980  Biso   1.000  C
  C48      1.0000 0.87850  0.88230  0.73980  Biso   1.000  C
  C49      1.0000 0.64640  0.35700  0.15320  Biso   1.000  C
  C50      1.0000 0.14640  0.14300  0.65320  Biso   1.000  C
  C51      1.0000 0.35360  0.64300  0.84680  Biso   1.000  C
  C52      1.0000 0.85360  0.85700  0.34680  Biso   1.000  C
  C53      1.0000 0.67320  0.40920  0.23720  Biso   1.000  C
  C54      1.0000 0.17320  0.09080  0.73720  Biso   1.000  C
  C55      1.0000 0.32680  0.59080  0.76280  Biso   1.000  C
  C56      1.0000 0.82680  0.90920  0.26280  Biso   1.000  C
  C57      1.0000 0.75890  0.46880  0.24020  Biso   1.000  C
  C58      1.0000 0.25890  0.03120  0.74020  Biso   1.000  C
  C59      1.0000 0.24110  0.53120  0.75980  Biso   1.000  C
  C60      1.0000 0.74110  0.96880  0.25980  Biso   1.000  C
  C61      1.0000 0.81910  0.46820  0.15630  Biso   1.000  C
  C62      1.0000 0.31910  0.03180  0.65630  Biso   1.000  C
  C63      1.0000 0.18090  0.53180  0.84370  Biso   1.000  C
  C64      1.0000 0.68090  0.96820  0.34370  Biso   1.000  C
  C65      1.0000 0.78970  0.41300  0.07540  Biso   1.000  C
  C66      1.0000 0.28970  0.08700  0.57540  Biso   1.000  C
  C67      1.0000 0.21030  0.58700  0.92460  Biso   1.000  C
  C68      1.0000 0.71030  0.91300  0.42460  Biso   1.000  C
  C69      1.0000 0.78360  0.53470  0.32500  Biso   1.000  C
  C70      1.0000 0.28360  0.96530  0.82500  Biso   1.000  C
  C71      1.0000 0.21640  0.46530  0.67500  Biso   1.000  C
  C72      1.0000 0.71640  0.03470  0.17500  Biso   1.000  C
  C73      1.0000 0.70100  0.58110  0.36670  Biso   1.000  C
  C74      1.0000 0.20100  0.91890  0.86670  Biso   1.000  C
  C75      1.0000 0.29900  0.41890  0.63330  Biso   1.000  C
  C76      1.0000 0.79900  0.08110  0.13330  Biso   1.000  C
  C77      1.0000 0.72340  0.64780  0.43810  Biso   1.000  C
  C78      1.0000 0.22340  0.85220  0.93810  Biso   1.000  C
  C79      1.0000 0.27660  0.35220  0.56190  Biso   1.000  C
  C80      1.0000 0.77660  0.14780  0.06190  Biso   1.000  C
  C81      1.0000 0.90380  0.62290  0.43290  Biso   1.000  C
  C82      1.0000 0.40380  0.87710  0.93290  Biso   1.000  C
  C83      1.0000 0.09620  0.37710  0.56710  Biso   1.000  C
  C84      1.0000 0.59620  0.12290  0.06710  Biso   1.000  C
  C85      1.0000 0.88530  0.55630  0.36140  Biso   1.000  C
  C86      1.0000 0.38530  0.94370  0.86140  Biso   1.000  C
  C87      1.0000 0.11470  0.44370  0.63860  Biso   1.000  C
  C88      1.0000 0.61470  0.05630  0.13860  Biso   1.000  C
  H1       1.0000 0.37000  0.09650  0.03640  Biso   1.000  H
  H2       1.0000 0.87000  0.40350  0.53640  Biso   1.000  H
  H3       1.0000 0.63000  0.90350  0.96360  Biso   1.000  H
  H4       1.0000 0.13000  0.59650  0.46360  Biso   1.000  H
  H5       1.0000 0.29910  0.07600  0.10740  Biso   1.000  H
  H6       1.0000 0.79910  0.42400  0.60740  Biso   1.000  H
  H7       1.0000 0.70090  0.92400  0.89260  Biso   1.000  H
  H8       1.0000 0.20090  0.57600  0.39260  Biso   1.000  H
  H9       1.0000 0.62600  0.09360  0.84330  Biso   1.000  H
  H10      1.0000 0.12600  0.40640  0.34330  Biso   1.000  H
  H11      1.0000 0.37400  0.90640  0.15670  Biso   1.000  H
  H12      1.0000 0.87400  0.59360  0.65670  Biso   1.000  H
  H13      1.0000 0.60270  0.04010  0.67920  Biso   1.000  H
  H14      1.0000 0.10270  0.45990  0.17920  Biso   1.000  H
  H15      1.0000 0.39730  0.95990  0.32080  Biso   1.000  H
  H16      1.0000 0.89730  0.54010  0.82080  Biso   1.000  H
  H17      1.0000 0.59230  0.14260  0.54670  Biso   1.000  H
  H18      1.0000 0.09230  0.35740  0.04670  Biso   1.000  H
  H19      1.0000 0.40770  0.85740  0.45330  Biso   1.000  H
  H20      1.0000 0.90770  0.64260  0.95330  Biso   1.000  H
  H21      1.0000 0.58980  0.31320  0.48720  Biso   1.000  H
  H22      1.0000 0.08980  0.18680  0.98720  Biso   1.000  H
  H23      1.0000 0.41020  0.68680  0.51280  Biso   1.000  H
  H24      1.0000 0.91020  0.81320  0.01280  Biso   1.000  H
  H25      1.0000 0.59640  0.46360  0.52920  Biso   1.000  H
  H26      1.0000 0.09640  0.03640  0.02920  Biso   1.000  H
  H27      1.0000 0.40360  0.53640  0.47080  Biso   1.000  H
  H28      1.0000 0.90360  0.96360  0.97080  Biso   1.000  H
  H29      1.0000 0.60790  0.59030  0.66900  Biso   1.000  H
  H30      1.0000 0.10790  0.90970  0.16900  Biso   1.000  H
  H31      1.0000 0.39210  0.40970  0.33100  Biso   1.000  H
  H32      1.0000 0.89210  0.09030  0.83100  Biso   1.000  H
  H33      1.0000 0.62150  0.62520  0.83750  Biso   1.000  H
  H34      1.0000 0.12150  0.87480  0.33750  Biso   1.000  H
  H35      1.0000 0.37850  0.37480  0.16250  Biso   1.000  H
  H36      1.0000 0.87850  0.12520  0.66250  Biso   1.000  H
  H37      1.0000 0.63840  0.50740  0.95490  Biso   1.000  H
  H38      1.0000 0.13840  0.99260  0.45490  Biso   1.000  H
  H39      1.0000 0.36160  0.49260  0.04510  Biso   1.000  H
  H40      1.0000 0.86160  0.00740  0.54510  Biso   1.000  H
  H41      1.0000 0.58690  0.31860  0.15280  Biso   1.000  H
  H42      1.0000 0.08690  0.18140  0.65280  Biso   1.000  H
  H43      1.0000 0.41310  0.68140  0.84720  Biso   1.000  H
  H44      1.0000 0.91310  0.81860  0.34720  Biso   1.000  H
  H45      1.0000 0.63300  0.40470  0.29320  Biso   1.000  H
  H46      1.0000 0.13300  0.09530  0.79320  Biso   1.000  H
  H47      1.0000 0.36700  0.59530  0.70680  Biso   1.000  H
  H48      1.0000 0.86700  0.90470  0.20680  Biso   1.000  H
  H49      1.0000 0.87950  0.50550  0.15540  Biso   1.000  H
  H50      1.0000 0.37950  0.99450  0.65540  Biso   1.000  H
  H51      1.0000 0.12050  0.49450  0.84460  Biso   1.000  H
  H52      1.0000 0.62050  0.00550  0.34460  Biso   1.000  H
  H53      1.0000 0.83180  0.41270  0.02050  Biso   1.000  H
  H54      1.0000 0.33180  0.08730  0.52050  Biso   1.000  H
  H55      1.0000 0.16820  0.58730  0.97950  Biso   1.000  H
  H56      1.0000 0.66820  0.91270  0.47950  Biso   1.000  H
  H57      1.0000 0.63040  0.56690  0.34600  Biso   1.000  H
  H58      1.0000 0.13040  0.93310  0.84600  Biso   1.000  H
  H59      1.0000 0.36960  0.43310  0.65400  Biso   1.000  H
  H60      1.0000 0.86960  0.06690  0.15400  Biso   1.000  H
  H61      1.0000 0.66690  0.67910  0.46450  Biso   1.000  H
  H62      1.0000 0.16690  0.82090  0.96450  Biso   1.000  H
  H63      1.0000 0.33310  0.32090  0.53550  Biso   1.000  H
  H64      1.0000 0.83310  0.17910  0.03550  Biso   1.000  H
  H65      1.0000 0.97400  0.63630  0.45590  Biso   1.000  H
  H66      1.0000 0.47400  0.86370  0.95590  Biso   1.000  H
  H67      1.0000 0.02600  0.36370  0.54410  Biso   1.000  H
  H68      1.0000 0.52600  0.13630  0.04410  Biso   1.000  H
  H69      1.0000 0.94260  0.52500  0.33660  Biso   1.000  H
  H70      1.0000 0.44260  0.97500  0.83660  Biso   1.000  H
  H71      1.0000 0.05740  0.47500  0.66340  Biso   1.000  H
  H72      1.0000 0.55740  0.02500  0.16340  Biso   1.000  H
