data_image0
_cell_length_a       12.557
_cell_length_b       14.434
_cell_length_c       13.236
_cell_angle_alpha    90
_cell_angle_beta     94.4
_cell_angle_gamma    90

_symmetry_space_group_name_H-M    "P 1"
_symmetry_int_tables_number       1

loop_
  _symmetry_equiv_pos_as_xyz
  'x, y, z'

loop_
  _atom_site_label
  _atom_site_occupancy
  _atom_site_fract_x
  _atom_site_fract_y
  _atom_site_fract_z
  _atom_site_thermal_displace_type
  _atom_site_B_iso_or_equiv
  _atom_site_type_symbol
  Cu1      1.0000 0.15148  0.28841  0.94653  Biso   1.000  Cu
  Cu2      1.0000 0.65148  0.21159  0.44653  Biso   1.000  Cu
  Cu3      1.0000 0.84852  0.71159  0.05347  Biso   1.000  Cu
  Cu4      1.0000 0.34852  0.78841  0.55347  Biso   1.000  Cu
  Cl1      1.0000 0.42658  0.31440  0.82696  Biso   1.000  Cl
  Cl2      1.0000 0.92658  0.18560  0.32696  Biso   1.000  Cl
  Cl3      1.0000 0.57342  0.68560  0.17304  Biso   1.000  Cl
  Cl4      1.0000 0.07342  0.81440  0.67304  Biso   1.000  Cl
  Cl5      1.0000 0.87439  0.28467  0.91829  Biso   1.000  Cl
  Cl6      1.0000 0.37439  0.21533  0.41829  Biso   1.000  Cl
  Cl7      1.0000 0.12561  0.71533  0.08171  Biso   1.000  Cl
  Cl8      1.0000 0.62561  0.78467  0.58171  Biso   1.000  Cl
  O1       1.0000 0.50940  0.25520  0.80840  Biso   1.000  O
  O2       1.0000 0.00940  0.24480  0.30840  Biso   1.000  O
  O3       1.0000 0.49060  0.74480  0.19160  Biso   1.000  O
  O4       1.0000 0.99060  0.75520  0.69160  Biso   1.000  O
  O5       1.0000 0.46960  0.39270  0.88160  Biso   1.000  O
  O6       1.0000 0.96960  0.10730  0.38160  Biso   1.000  O
  O7       1.0000 0.53040  0.60730  0.11840  Biso   1.000  O
  O8       1.0000 0.03040  0.89270  0.61840  Biso   1.000  O
  O9       1.0000 0.35570  0.26910  0.88880  Biso   1.000  O
  O10      1.0000 0.85570  0.23090  0.38880  Biso   1.000  O
  O11      1.0000 0.64430  0.73090  0.11120  Biso   1.000  O
  O12      1.0000 0.14430  0.76910  0.61120  Biso   1.000  O
  O13      1.0000 0.37240  0.34330  0.73740  Biso   1.000  O
  O14      1.0000 0.87240  0.15670  0.23740  Biso   1.000  O
  O15      1.0000 0.62760  0.65670  0.26260  Biso   1.000  O
  O16      1.0000 0.12760  0.84330  0.76260  Biso   1.000  O
  O17      1.0000 0.97030  0.30030  0.98390  Biso   1.000  O
  O18      1.0000 0.47030  0.19970  0.48390  Biso   1.000  O
  O19      1.0000 0.02970  0.69970  0.01610  Biso   1.000  O
  O20      1.0000 0.52970  0.80030  0.51610  Biso   1.000  O
  O21      1.0000 0.86140  0.18830  0.91130  Biso   1.000  O
  O22      1.0000 0.36140  0.31170  0.41130  Biso   1.000  O
  O23      1.0000 0.13860  0.81170  0.08870  Biso   1.000  O
  O24      1.0000 0.63860  0.68830  0.58870  Biso   1.000  O
  O25      1.0000 0.88750  0.31770  0.82460  Biso   1.000  O
  O26      1.0000 0.38750  0.18230  0.32460  Biso   1.000  O
  O27      1.0000 0.11250  0.68230  0.17540  Biso   1.000  O
  O28      1.0000 0.61250  0.81770  0.67540  Biso   1.000  O
  O29      1.0000 0.78660  0.32090  0.96210  Biso   1.000  O
  O30      1.0000 0.28660  0.17910  0.46210  Biso   1.000  O
  O31      1.0000 0.21340  0.67910  0.03790  Biso   1.000  O
  O32      1.0000 0.71340  0.82090  0.53790  Biso   1.000  O
  O33      1.0000 0.15110  0.94530  0.92440  Biso   1.000  O
  O34      1.0000 0.65110  0.55470  0.42440  Biso   1.000  O
  O35      1.0000 0.84890  0.05470  0.07560  Biso   1.000  O
  O36      1.0000 0.34890  0.44530  0.57560  Biso   1.000  O
  N1       1.0000 0.12610  0.22610  0.81220  Biso   1.000  N
  N2       1.0000 0.62610  0.27390  0.31220  Biso   1.000  N
  N3       1.0000 0.87390  0.77390  0.18780  Biso   1.000  N
  N4       1.0000 0.37390  0.72610  0.68780  Biso   1.000  N
  N5       1.0000 0.13460  0.40400  0.85990  Biso   1.000  N
  N6       1.0000 0.63460  0.09600  0.35990  Biso   1.000  N
  N7       1.0000 0.86540  0.59600  0.14010  Biso   1.000  N
  N8       1.0000 0.36540  0.90400  0.64010  Biso   1.000  N
  N9       1.0000 0.17610  0.17010  0.02820  Biso   1.000  N
  N10      1.0000 0.67610  0.32990  0.52820  Biso   1.000  N
  N11      1.0000 0.82390  0.82990  0.97180  Biso   1.000  N
  N12      1.0000 0.32390  0.67010  0.47180  Biso   1.000  N
  N13      1.0000 0.29730  0.85880  0.42860  Biso   1.000  N
  N14      1.0000 0.79730  0.64120  0.92860  Biso   1.000  N
  N15      1.0000 0.70270  0.14120  0.57140  Biso   1.000  N
  N16      1.0000 0.20270  0.35880  0.07140  Biso   1.000  N
  C1       1.0000 0.12070  0.13630  0.79010  Biso   1.000  C
  C2       1.0000 0.62070  0.36370  0.29010  Biso   1.000  C
  C3       1.0000 0.87930  0.86370  0.20990  Biso   1.000  C
  C4       1.0000 0.37930  0.63630  0.70990  Biso   1.000  C
  H1       1.0000 0.12660  0.09350  0.84280  Biso   1.000  H
  H2       1.0000 0.62660  0.40650  0.34280  Biso   1.000  H
  H3       1.0000 0.87340  0.90650  0.15720  Biso   1.000  H
  H4       1.0000 0.37340  0.59350  0.65720  Biso   1.000  H
  C5       1.0000 0.10660  0.10390  0.69060  Biso   1.000  C
  C6       1.0000 0.60660  0.39610  0.19060  Biso   1.000  C
  C7       1.0000 0.89340  0.89610  0.30940  Biso   1.000  C
  C8       1.0000 0.39340  0.60390  0.80940  Biso   1.000  C
  H5       1.0000 0.10220  0.04060  0.67800  Biso   1.000  H
  H6       1.0000 0.60220  0.45940  0.17800  Biso   1.000  H
  H7       1.0000 0.89780  0.95940  0.32200  Biso   1.000  H
  H8       1.0000 0.39780  0.54060  0.82200  Biso   1.000  H
  C9       1.0000 0.09940  0.16440  0.61280  Biso   1.000  C
  C10      1.0000 0.59940  0.33560  0.11280  Biso   1.000  C
  C11      1.0000 0.90060  0.83560  0.38720  Biso   1.000  C
  C12      1.0000 0.40060  0.66440  0.88720  Biso   1.000  C
  H9       1.0000 0.09150  0.14310  0.54630  Biso   1.000  H
  H10      1.0000 0.59150  0.35690  0.04630  Biso   1.000  H
  H11      1.0000 0.90850  0.85690  0.45370  Biso   1.000  H
  H12      1.0000 0.40850  0.64310  0.95370  Biso   1.000  H
  C13      1.0000 0.10380  0.26010  0.63280  Biso   1.000  C
  C14      1.0000 0.60380  0.23990  0.13280  Biso   1.000  C
  C15      1.0000 0.89620  0.73990  0.36720  Biso   1.000  C
  C16      1.0000 0.39620  0.76010  0.86720  Biso   1.000  C
  C17      1.0000 0.09760  0.33090  0.55650  Biso   1.000  C
  C18      1.0000 0.59760  0.16910  0.05650  Biso   1.000  C
  C19      1.0000 0.90240  0.66910  0.44350  Biso   1.000  C
  C20      1.0000 0.40240  0.83090  0.94350  Biso   1.000  C
  H13      1.0000 0.09100  0.31360  0.48860  Biso   1.000  H
  H14      1.0000 0.59100  0.18640  0.98860  Biso   1.000  H
  H15      1.0000 0.90900  0.68640  0.51140  Biso   1.000  H
  H16      1.0000 0.40900  0.81360  0.01140  Biso   1.000  H
  C21      1.0000 0.10080  0.42000  0.58000  Biso   1.000  C
  C22      1.0000 0.60080  0.08000  0.08000  Biso   1.000  C
  C23      1.0000 0.89920  0.58000  0.42000  Biso   1.000  C
  C24      1.0000 0.39920  0.92000  0.92000  Biso   1.000  C
  H17      1.0000 0.09600  0.46390  0.52840  Biso   1.000  H
  H18      1.0000 0.59600  0.03610  0.02840  Biso   1.000  H
  H19      1.0000 0.90400  0.53610  0.47160  Biso   1.000  H
  H20      1.0000 0.40400  0.96390  0.97160  Biso   1.000  H
  C25      1.0000 0.11180  0.45050  0.68390  Biso   1.000  C
  C26      1.0000 0.61180  0.04950  0.18390  Biso   1.000  C
  C27      1.0000 0.88820  0.54950  0.31610  Biso   1.000  C
  C28      1.0000 0.38820  0.95050  0.81610  Biso   1.000  C
  C29      1.0000 0.11370  0.54360  0.71510  Biso   1.000  C
  C30      1.0000 0.61370  0.95640  0.21510  Biso   1.000  C
  C31      1.0000 0.88630  0.45640  0.28490  Biso   1.000  C
  C32      1.0000 0.38630  0.04360  0.78490  Biso   1.000  C
  H21      1.0000 0.10900  0.59070  0.66710  Biso   1.000  H
  H22      1.0000 0.60900  0.90930  0.16710  Biso   1.000  H
  H23      1.0000 0.89100  0.40930  0.33290  Biso   1.000  H
  H24      1.0000 0.39100  0.09070  0.83290  Biso   1.000  H
  C33      1.0000 0.12250  0.56430  0.81490  Biso   1.000  C
  C34      1.0000 0.62250  0.93570  0.31490  Biso   1.000  C
  C35      1.0000 0.87750  0.43570  0.18510  Biso   1.000  C
  C36      1.0000 0.37750  0.06430  0.68510  Biso   1.000  C
  H25      1.0000 0.12180  0.62580  0.83590  Biso   1.000  H
  H26      1.0000 0.62180  0.87420  0.33590  Biso   1.000  H
  H27      1.0000 0.87820  0.37420  0.16410  Biso   1.000  H
  H28      1.0000 0.37820  0.12580  0.66410  Biso   1.000  H
  C37      1.0000 0.13260  0.49280  0.88640  Biso   1.000  C
  C38      1.0000 0.63260  0.00720  0.38640  Biso   1.000  C
  C39      1.0000 0.86740  0.50720  0.11360  Biso   1.000  C
  C40      1.0000 0.36740  0.99280  0.61360  Biso   1.000  C
  H29      1.0000 0.13820  0.50790  0.95490  Biso   1.000  H
  H30      1.0000 0.63820  0.99210  0.45490  Biso   1.000  H
  H31      1.0000 0.86180  0.49210  0.04510  Biso   1.000  H
  H32      1.0000 0.36180  0.00790  0.54510  Biso   1.000  H
  C41      1.0000 0.12250  0.38240  0.76000  Biso   1.000  C
  C42      1.0000 0.62250  0.11760  0.26000  Biso   1.000  C
  C43      1.0000 0.87750  0.61760  0.24000  Biso   1.000  C
  C44      1.0000 0.37750  0.88240  0.74000  Biso   1.000  C
  C45      1.0000 0.11810  0.28670  0.73420  Biso   1.000  C
  C46      1.0000 0.61810  0.21330  0.23420  Biso   1.000  C
  C47      1.0000 0.88190  0.71330  0.26580  Biso   1.000  C
  C48      1.0000 0.38190  0.78670  0.76580  Biso   1.000  C
  C49      1.0000 0.09670  0.12370  0.06620  Biso   1.000  C
  C50      1.0000 0.59670  0.37630  0.56620  Biso   1.000  C
  C51      1.0000 0.90330  0.87630  0.93380  Biso   1.000  C
  C52      1.0000 0.40330  0.62370  0.43380  Biso   1.000  C
  H33      1.0000 0.02680  0.13670  0.04200  Biso   1.000  H
  H34      1.0000 0.52680  0.36330  0.54200  Biso   1.000  H
  H35      1.0000 0.97320  0.86330  0.95800  Biso   1.000  H
  H36      1.0000 0.47320  0.63670  0.45800  Biso   1.000  H
  C53      1.0000 0.11420  0.05750  0.13960  Biso   1.000  C
  C54      1.0000 0.61420  0.44250  0.63960  Biso   1.000  C
  C55      1.0000 0.88580  0.94250  0.86040  Biso   1.000  C
  C56      1.0000 0.38580  0.55750  0.36040  Biso   1.000  C
  H37      1.0000 0.05660  0.02750  0.16530  Biso   1.000  H
  H38      1.0000 0.55660  0.47250  0.66530  Biso   1.000  H
  H39      1.0000 0.94340  0.97250  0.83470  Biso   1.000  H
  H40      1.0000 0.44340  0.52750  0.33470  Biso   1.000  H
  C57      1.0000 0.21760  0.03500  0.17580  Biso   1.000  C
  C58      1.0000 0.71760  0.46500  0.67580  Biso   1.000  C
  C59      1.0000 0.78240  0.96500  0.82420  Biso   1.000  C
  C60      1.0000 0.28240  0.53500  0.32420  Biso   1.000  C
  C61      1.0000 0.29990  0.08120  0.13260  Biso   1.000  C
  C62      1.0000 0.79990  0.41880  0.63260  Biso   1.000  C
  C63      1.0000 0.70010  0.91880  0.86740  Biso   1.000  C
  C64      1.0000 0.20010  0.58120  0.36740  Biso   1.000  C
  H41      1.0000 0.37070  0.06680  0.15200  Biso   1.000  H
  H42      1.0000 0.87070  0.43320  0.65200  Biso   1.000  H
  H43      1.0000 0.62930  0.93320  0.84800  Biso   1.000  H
  H44      1.0000 0.12930  0.56680  0.34800  Biso   1.000  H
  C65      1.0000 0.27580  0.14830  0.06100  Biso   1.000  C
  C66      1.0000 0.77580  0.35170  0.56100  Biso   1.000  C
  C67      1.0000 0.72420  0.85170  0.93900  Biso   1.000  C
  C68      1.0000 0.22420  0.64830  0.43900  Biso   1.000  C
  H45      1.0000 0.33160  0.18000  0.03420  Biso   1.000  H
  H46      1.0000 0.83160  0.32000  0.53420  Biso   1.000  H
  H47      1.0000 0.66840  0.82000  0.96580  Biso   1.000  H
  H48      1.0000 0.16840  0.68000  0.46580  Biso   1.000  H
  C69      1.0000 0.24140  0.96910  0.26070  Biso   1.000  C
  C70      1.0000 0.74140  0.53090  0.76070  Biso   1.000  C
  C71      1.0000 0.75860  0.03090  0.73930  Biso   1.000  C
  C72      1.0000 0.25860  0.46910  0.23930  Biso   1.000  C
  C73      1.0000 0.18080  0.96840  0.34370  Biso   1.000  C
  C74      1.0000 0.68080  0.53160  0.84370  Biso   1.000  C
  C75      1.0000 0.81920  0.03160  0.65630  Biso   1.000  C
  C76      1.0000 0.31920  0.46840  0.15630  Biso   1.000  C
  H49      1.0000 0.11990  0.00500  0.34380  Biso   1.000  H
  H50      1.0000 0.61990  0.49500  0.84380  Biso   1.000  H
  H51      1.0000 0.88010  0.99500  0.65620  Biso   1.000  H
  H52      1.0000 0.38010  0.50500  0.15620  Biso   1.000  H
  C77      1.0000 0.21030  0.91400  0.42520  Biso   1.000  C
  C78      1.0000 0.71030  0.58600  0.92520  Biso   1.000  C
  C79      1.0000 0.78970  0.08600  0.57480  Biso   1.000  C
  C80      1.0000 0.28970  0.41400  0.07480  Biso   1.000  C
  H53      1.0000 0.16900  0.91490  0.48060  Biso   1.000  H
  H54      1.0000 0.66900  0.58510  0.98060  Biso   1.000  H
  H55      1.0000 0.83100  0.08510  0.51940  Biso   1.000  H
  H56      1.0000 0.33100  0.41490  0.01940  Biso   1.000  H
  C81      1.0000 0.35420  0.85700  0.34660  Biso   1.000  C
  C82      1.0000 0.85420  0.64300  0.84660  Biso   1.000  C
  C83      1.0000 0.64580  0.14300  0.65340  Biso   1.000  C
  C84      1.0000 0.14580  0.35700  0.15340  Biso   1.000  C
  H57      1.0000 0.41380  0.81870  0.34720  Biso   1.000  H
  H58      1.0000 0.91380  0.68130  0.84720  Biso   1.000  H
  H59      1.0000 0.58620  0.18130  0.65280  Biso   1.000  H
  H60      1.0000 0.08620  0.31870  0.15280  Biso   1.000  H
  C85      1.0000 0.32740  0.90950  0.26180  Biso   1.000  C
  C86      1.0000 0.82740  0.59050  0.76180  Biso   1.000  C
  C87      1.0000 0.67260  0.09050  0.73820  Biso   1.000  C
  C88      1.0000 0.17260  0.40950  0.23820  Biso   1.000  C
  H61      1.0000 0.36710  0.90500  0.20550  Biso   1.000  H
  H62      1.0000 0.86710  0.59500  0.70550  Biso   1.000  H
  H63      1.0000 0.63290  0.09500  0.79450  Biso   1.000  H
  H64      1.0000 0.13290  0.40500  0.29450  Biso   1.000  H
