data_image0
_cell_length_a       9.987
_cell_length_b       8.451
_cell_length_c       14.233
_cell_angle_alpha    90
_cell_angle_beta     90
_cell_angle_gamma    90

_symmetry_space_group_name_H-M    "P 1"
_symmetry_int_tables_number       1

loop_
  _symmetry_equiv_pos_as_xyz
  'x, y, z'

loop_
  _atom_site_label
  _atom_site_occupancy
  _atom_site_fract_x
  _atom_site_fract_y
  _atom_site_fract_z
  _atom_site_thermal_displace_type
  _atom_site_B_iso_or_equiv
  _atom_site_type_symbol
  Cu1      1.0000 0.37947  0.69514  0.99719  Biso   1.000  Cu
  Cu2      1.0000 0.62053  0.30486  0.49719  Biso   1.000  Cu
  Cu3      1.0000 0.87947  0.30486  0.99719  Biso   1.000  Cu
  Cu4      1.0000 0.12053  0.69514  0.49719  Biso   1.000  Cu
  N1       1.0000 0.42150  0.90340  0.93210  Biso   1.000  N
  N2       1.0000 0.57850  0.09660  0.43210  Biso   1.000  N
  N3       1.0000 0.92150  0.09660  0.93210  Biso   1.000  N
  N4       1.0000 0.07850  0.90340  0.43210  Biso   1.000  N
  C1       1.0000 0.34320  0.02960  0.94220  Biso   1.000  C
  C2       1.0000 0.65680  0.97040  0.44220  Biso   1.000  C
  C3       1.0000 0.84320  0.97040  0.94220  Biso   1.000  C
  C4       1.0000 0.15680  0.02960  0.44220  Biso   1.000  C
  H1       1.0000 0.26760  0.01860  0.98210  Biso   1.000  H
  H2       1.0000 0.73240  0.98140  0.48210  Biso   1.000  H
  H3       1.0000 0.76760  0.98140  0.98210  Biso   1.000  H
  H4       1.0000 0.23240  0.01860  0.48210  Biso   1.000  H
  N5       1.0000 0.36090  0.16980  0.90150  Biso   1.000  N
  N6       1.0000 0.63910  0.83020  0.40150  Biso   1.000  N
  N7       1.0000 0.86090  0.83020  0.90150  Biso   1.000  N
  N8       1.0000 0.13910  0.16980  0.40150  Biso   1.000  N
  C5       1.0000 0.46820  0.18410  0.84770  Biso   1.000  C
  C6       1.0000 0.53180  0.81590  0.34770  Biso   1.000  C
  C7       1.0000 0.96820  0.81590  0.84770  Biso   1.000  C
  C8       1.0000 0.03180  0.18410  0.34770  Biso   1.000  C
  H5       1.0000 0.48550  0.28310  0.81860  Biso   1.000  H
  H6       1.0000 0.51450  0.71690  0.31860  Biso   1.000  H
  H7       1.0000 0.98550  0.71690  0.81860  Biso   1.000  H
  H8       1.0000 0.01450  0.28310  0.31860  Biso   1.000  H
  C9       1.0000 0.55470  0.06240  0.83260  Biso   1.000  C
  C10      1.0000 0.44530  0.93760  0.33260  Biso   1.000  C
  C11      1.0000 0.05470  0.93760  0.83260  Biso   1.000  C
  C12      1.0000 0.94530  0.06240  0.33260  Biso   1.000  C
  H9       1.0000 0.63090  0.07510  0.79340  Biso   1.000  H
  H10      1.0000 0.36910  0.92490  0.29340  Biso   1.000  H
  H11      1.0000 0.13090  0.92490  0.79340  Biso   1.000  H
  H12      1.0000 0.86910  0.07510  0.29340  Biso   1.000  H
  C13      1.0000 0.52810  0.91920  0.87650  Biso   1.000  C
  C14      1.0000 0.47190  0.08080  0.37650  Biso   1.000  C
  C15      1.0000 0.02810  0.08080  0.87650  Biso   1.000  C
  C16      1.0000 0.97190  0.91920  0.37650  Biso   1.000  C
  H13      1.0000 0.58620  0.83170  0.86670  Biso   1.000  H
  H14      1.0000 0.41380  0.16830  0.36670  Biso   1.000  H
  H15      1.0000 0.08620  0.16830  0.86670  Biso   1.000  H
  H16      1.0000 0.91380  0.83170  0.36670  Biso   1.000  H
  N9       1.0000 0.29140  0.49580  0.04630  Biso   1.000  N
  N10      1.0000 0.70860  0.50420  0.54630  Biso   1.000  N
  N11      1.0000 0.79140  0.50420  0.04630  Biso   1.000  N
  N12      1.0000 0.20860  0.49580  0.54630  Biso   1.000  N
  C17      1.0000 0.16730  0.46130  0.01800  Biso   1.000  C
  C18      1.0000 0.83270  0.53870  0.51800  Biso   1.000  C
  C19      1.0000 0.66730  0.53870  0.01800  Biso   1.000  C
  C20      1.0000 0.33270  0.46130  0.51800  Biso   1.000  C
  H17      1.0000 0.12810  0.52820  0.97200  Biso   1.000  H
  H18      1.0000 0.87190  0.47180  0.47200  Biso   1.000  H
  H19      1.0000 0.62810  0.47180  0.97200  Biso   1.000  H
  H20      1.0000 0.37190  0.52820  0.47200  Biso   1.000  H
  N13      1.0000 0.09440  0.34100  0.04920  Biso   1.000  N
  N14      1.0000 0.90560  0.65900  0.54920  Biso   1.000  N
  N15      1.0000 0.59440  0.65900  0.04920  Biso   1.000  N
  N16      1.0000 0.40560  0.34100  0.54920  Biso   1.000  N
  C21      1.0000 0.15260  0.24420  0.11160  Biso   1.000  C
  C22      1.0000 0.84740  0.75580  0.61160  Biso   1.000  C
  C23      1.0000 0.65260  0.75580  0.11160  Biso   1.000  C
  C24      1.0000 0.34740  0.24420  0.61160  Biso   1.000  C
  H21      1.0000 0.10340  0.15670  0.13540  Biso   1.000  H
  H22      1.0000 0.89660  0.84330  0.63540  Biso   1.000  H
  H23      1.0000 0.60340  0.84330  0.13540  Biso   1.000  H
  H24      1.0000 0.39660  0.15670  0.63540  Biso   1.000  H
  C25      1.0000 0.28060  0.26800  0.14200  Biso   1.000  C
  C26      1.0000 0.71940  0.73200  0.64200  Biso   1.000  C
  C27      1.0000 0.78060  0.73200  0.14200  Biso   1.000  C
  C28      1.0000 0.21940  0.26800  0.64200  Biso   1.000  C
  H25      1.0000 0.32180  0.19700  0.18490  Biso   1.000  H
  H26      1.0000 0.67820  0.80300  0.68490  Biso   1.000  H
  H27      1.0000 0.82180  0.80300  0.18490  Biso   1.000  H
  H28      1.0000 0.17820  0.19700  0.68490  Biso   1.000  H
  C29      1.0000 0.34830  0.39880  0.10840  Biso   1.000  C
  C30      1.0000 0.65170  0.60120  0.60840  Biso   1.000  C
  C31      1.0000 0.84830  0.60120  0.10840  Biso   1.000  C
  C32      1.0000 0.15170  0.39880  0.60840  Biso   1.000  C
  H29      1.0000 0.43660  0.41980  0.12980  Biso   1.000  H
  H30      1.0000 0.56340  0.58020  0.62980  Biso   1.000  H
  H31      1.0000 0.93660  0.58020  0.12980  Biso   1.000  H
  H32      1.0000 0.06340  0.41980  0.62980  Biso   1.000  H
  N17      1.0000 0.34980  0.58630  0.81560  Biso   1.000  N
  N18      1.0000 0.65020  0.41370  0.31560  Biso   1.000  N
  N19      1.0000 0.84980  0.41370  0.81560  Biso   1.000  N
  N20      1.0000 0.15020  0.58630  0.31560  Biso   1.000  N
  O1       1.0000 0.43960  0.58450  0.88150  Biso   1.000  O
  O2       1.0000 0.56040  0.41550  0.38150  Biso   1.000  O
  O3       1.0000 0.93960  0.41550  0.88150  Biso   1.000  O
  O4       1.0000 0.06040  0.58450  0.38150  Biso   1.000  O
  O5       1.0000 0.23770  0.63700  0.83490  Biso   1.000  O
  O6       1.0000 0.76230  0.36300  0.33490  Biso   1.000  O
  O7       1.0000 0.73770  0.36300  0.83490  Biso   1.000  O
  O8       1.0000 0.26230  0.63700  0.33490  Biso   1.000  O
  O9       1.0000 0.38310  0.53840  0.73790  Biso   1.000  O
  O10      1.0000 0.61690  0.46160  0.23790  Biso   1.000  O
  O11      1.0000 0.88310  0.46160  0.73790  Biso   1.000  O
  O12      1.0000 0.11690  0.53840  0.23790  Biso   1.000  O
  N21      1.0000 0.20540  0.83630  0.12380  Biso   1.000  N
  N22      1.0000 0.79460  0.16370  0.62380  Biso   1.000  N
  N23      1.0000 0.70540  0.16370  0.12380  Biso   1.000  N
  N24      1.0000 0.29460  0.83630  0.62380  Biso   1.000  N
  O13      1.0000 0.33220  0.80580  0.11470  Biso   1.000  O
  O14      1.0000 0.66780  0.19420  0.61470  Biso   1.000  O
  O15      1.0000 0.83220  0.19420  0.11470  Biso   1.000  O
  O16      1.0000 0.16780  0.80580  0.61470  Biso   1.000  O
  O17      1.0000 0.13150  0.80580  0.05710  Biso   1.000  O
  O18      1.0000 0.86850  0.19420  0.55710  Biso   1.000  O
  O19      1.0000 0.63150  0.19420  0.05710  Biso   1.000  O
  O20      1.0000 0.36850  0.80580  0.55710  Biso   1.000  O
  O21      1.0000 0.16730  0.89790  0.19650  Biso   1.000  O
  O22      1.0000 0.83270  0.10210  0.69650  Biso   1.000  O
  O23      1.0000 0.66730  0.10210  0.19650  Biso   1.000  O
  O24      1.0000 0.33270  0.89790  0.69650  Biso   1.000  O
