data_image0
_cell_length_a       9.991
_cell_length_b       8.531
_cell_length_c       14.359
_cell_angle_alpha    90
_cell_angle_beta     90
_cell_angle_gamma    90

_symmetry_space_group_name_H-M    "P 1"
_symmetry_int_tables_number       1

loop_
  _symmetry_equiv_pos_as_xyz
  'x, y, z'

loop_
  _atom_site_label
  _atom_site_occupancy
  _atom_site_fract_x
  _atom_site_fract_y
  _atom_site_fract_z
  _atom_site_thermal_displace_type
  _atom_site_B_iso_or_equiv
  _atom_site_type_symbol
  Cu1      1.0000 0.62030  0.30440  0.49625  Biso   1.000  Cu
  Cu2      1.0000 0.37970  0.69560  0.99625  Biso   1.000  Cu
  Cu3      1.0000 0.87970  0.30440  0.99625  Biso   1.000  Cu
  Cu4      1.0000 0.12030  0.69560  0.49625  Biso   1.000  Cu
  O1       1.0000 0.66620  0.19360  0.61400  Biso   1.000  O
  O2       1.0000 0.33380  0.80640  0.11400  Biso   1.000  O
  O3       1.0000 0.83380  0.19360  0.11400  Biso   1.000  O
  O4       1.0000 0.16620  0.80640  0.61400  Biso   1.000  O
  O5       1.0000 0.83030  0.10100  0.69500  Biso   1.000  O
  O6       1.0000 0.16970  0.89900  0.19500  Biso   1.000  O
  O7       1.0000 0.66970  0.10100  0.19500  Biso   1.000  O
  O8       1.0000 0.33030  0.89900  0.69500  Biso   1.000  O
  O9       1.0000 0.86650  0.19340  0.55680  Biso   1.000  O
  O10      1.0000 0.13350  0.80660  0.05680  Biso   1.000  O
  O11      1.0000 0.63350  0.19340  0.05680  Biso   1.000  O
  O12      1.0000 0.36650  0.80660  0.55680  Biso   1.000  O
  O13      1.0000 0.56020  0.41500  0.38263  Biso   1.000  O
  O14      1.0000 0.43980  0.58500  0.88263  Biso   1.000  O
  O15      1.0000 0.93980  0.41500  0.88263  Biso   1.000  O
  O16      1.0000 0.06020  0.58500  0.38263  Biso   1.000  O
  O17      1.0000 0.76120  0.36240  0.33520  Biso   1.000  O
  O18      1.0000 0.23880  0.63760  0.83520  Biso   1.000  O
  O19      1.0000 0.73880  0.36240  0.83520  Biso   1.000  O
  O20      1.0000 0.26120  0.63760  0.33520  Biso   1.000  O
  O21      1.0000 0.61640  0.46130  0.23950  Biso   1.000  O
  O22      1.0000 0.38360  0.53870  0.73950  Biso   1.000  O
  O23      1.0000 0.88360  0.46130  0.73950  Biso   1.000  O
  O24      1.0000 0.11640  0.53870  0.23950  Biso   1.000  O
  N1       1.0000 0.79260  0.16250  0.62240  Biso   1.000  N
  N2       1.0000 0.20740  0.83750  0.12240  Biso   1.000  N
  N3       1.0000 0.70740  0.16250  0.12240  Biso   1.000  N
  N4       1.0000 0.29260  0.83750  0.62240  Biso   1.000  N
  N5       1.0000 0.64900  0.41320  0.31670  Biso   1.000  N
  N6       1.0000 0.35100  0.58680  0.81670  Biso   1.000  N
  N7       1.0000 0.85100  0.41320  0.81670  Biso   1.000  N
  N8       1.0000 0.14900  0.58680  0.31670  Biso   1.000  N
  N9       1.0000 0.57730  0.09680  0.43230  Biso   1.000  N
  N10      1.0000 0.42270  0.90320  0.93230  Biso   1.000  N
  N11      1.0000 0.92270  0.09680  0.93230  Biso   1.000  N
  N12      1.0000 0.07730  0.90320  0.43230  Biso   1.000  N
  N13      1.0000 0.63750  0.83160  0.40310  Biso   1.000  N
  N14      1.0000 0.36250  0.16840  0.90310  Biso   1.000  N
  N15      1.0000 0.86250  0.83160  0.90310  Biso   1.000  N
  N16      1.0000 0.13750  0.16840  0.40310  Biso   1.000  N
  N17      1.0000 0.70830  0.50320  0.54530  Biso   1.000  N
  N18      1.0000 0.29170  0.49680  0.04530  Biso   1.000  N
  N19      1.0000 0.79170  0.50320  0.04530  Biso   1.000  N
  N20      1.0000 0.20830  0.49680  0.54530  Biso   1.000  N
  N21      1.0000 0.90500  0.65830  0.54910  Biso   1.000  N
  N22      1.0000 0.09500  0.34170  0.04910  Biso   1.000  N
  N23      1.0000 0.59500  0.65830  0.04910  Biso   1.000  N
  N24      1.0000 0.40500  0.34170  0.54910  Biso   1.000  N
  C1       1.0000 0.65540  0.97140  0.44330  Biso   1.000  C
  C2       1.0000 0.34460  0.02860  0.94330  Biso   1.000  C
  C3       1.0000 0.84460  0.97140  0.94330  Biso   1.000  C
  C4       1.0000 0.15540  0.02860  0.44330  Biso   1.000  C
  H1       1.0000 0.72890  0.98210  0.48250  Biso   1.000  H
  H2       1.0000 0.27110  0.01790  0.98250  Biso   1.000  H
  H3       1.0000 0.77110  0.98210  0.98250  Biso   1.000  H
  H4       1.0000 0.22890  0.01790  0.48250  Biso   1.000  H
  C5       1.0000 0.53110  0.81840  0.34800  Biso   1.000  C
  C6       1.0000 0.46890  0.18160  0.84800  Biso   1.000  C
  C7       1.0000 0.96890  0.81840  0.84800  Biso   1.000  C
  C8       1.0000 0.03110  0.18160  0.34800  Biso   1.000  C
  H5       1.0000 0.51450  0.72270  0.31920  Biso   1.000  H
  H6       1.0000 0.48550  0.27730  0.81920  Biso   1.000  H
  H7       1.0000 0.98550  0.72270  0.81920  Biso   1.000  H
  H8       1.0000 0.01450  0.27730  0.31920  Biso   1.000  H
  C9       1.0000 0.44590  0.93950  0.33230  Biso   1.000  C
  C10      1.0000 0.55410  0.06050  0.83230  Biso   1.000  C
  C11      1.0000 0.05410  0.93950  0.83230  Biso   1.000  C
  C12      1.0000 0.94590  0.06050  0.33230  Biso   1.000  C
  H9       1.0000 0.37190  0.92770  0.29360  Biso   1.000  H
  H10      1.0000 0.62810  0.07230  0.79360  Biso   1.000  H
  H11      1.0000 0.12810  0.92770  0.79360  Biso   1.000  H
  H12      1.0000 0.87190  0.07230  0.29360  Biso   1.000  H
  C13      1.0000 0.47240  0.08150  0.37560  Biso   1.000  C
  C14      1.0000 0.52760  0.91850  0.87560  Biso   1.000  C
  C15      1.0000 0.02760  0.08150  0.87560  Biso   1.000  C
  C16      1.0000 0.97240  0.91850  0.37560  Biso   1.000  C
  H13      1.0000 0.41640  0.16680  0.36510  Biso   1.000  H
  H14      1.0000 0.58360  0.83320  0.86510  Biso   1.000  H
  H15      1.0000 0.08360  0.16680  0.86510  Biso   1.000  H
  H16      1.0000 0.91640  0.83320  0.36510  Biso   1.000  H
  C17      1.0000 0.83180  0.53890  0.51810  Biso   1.000  C
  C18      1.0000 0.16820  0.46110  0.01810  Biso   1.000  C
  C19      1.0000 0.66820  0.53890  0.01810  Biso   1.000  C
  C20      1.0000 0.33180  0.46110  0.51810  Biso   1.000  C
  H17      1.0000 0.87050  0.47450  0.47330  Biso   1.000  H
  H18      1.0000 0.12950  0.52550  0.97330  Biso   1.000  H
  H19      1.0000 0.62950  0.47450  0.97330  Biso   1.000  H
  H20      1.0000 0.37050  0.52550  0.47330  Biso   1.000  H
  C21      1.0000 0.84610  0.75340  0.61190  Biso   1.000  C
  C22      1.0000 0.15390  0.24660  0.11190  Biso   1.000  C
  C23      1.0000 0.65390  0.75340  0.11190  Biso   1.000  C
  C24      1.0000 0.34610  0.24660  0.61190  Biso   1.000  C
  H21      1.0000 0.89380  0.83830  0.63530  Biso   1.000  H
  H22      1.0000 0.10620  0.16170  0.13530  Biso   1.000  H
  H23      1.0000 0.60620  0.83830  0.13530  Biso   1.000  H
  H24      1.0000 0.39380  0.16170  0.63530  Biso   1.000  H
  C25      1.0000 0.71920  0.72840  0.64170  Biso   1.000  C
  C26      1.0000 0.28080  0.27160  0.14170  Biso   1.000  C
  C27      1.0000 0.78080  0.72840  0.14170  Biso   1.000  C
  C28      1.0000 0.21920  0.27160  0.64170  Biso   1.000  C
  H25      1.0000 0.67850  0.79710  0.68330  Biso   1.000  H
  H26      1.0000 0.32150  0.20290  0.18330  Biso   1.000  H
  H27      1.0000 0.82150  0.79710  0.18330  Biso   1.000  H
  H28      1.0000 0.17850  0.20290  0.68330  Biso   1.000  H
  C29      1.0000 0.65180  0.59820  0.60870  Biso   1.000  C
  C30      1.0000 0.34820  0.40180  0.10870  Biso   1.000  C
  C31      1.0000 0.84820  0.59820  0.10870  Biso   1.000  C
  C32      1.0000 0.15180  0.40180  0.60870  Biso   1.000  C
  H29      1.0000 0.56630  0.57600  0.63070  Biso   1.000  H
  H30      1.0000 0.43370  0.42400  0.13070  Biso   1.000  H
  H31      1.0000 0.93370  0.57600  0.13070  Biso   1.000  H
  H32      1.0000 0.06630  0.42400  0.63070  Biso   1.000  H
