data_image0
_cell_length_a       10
_cell_length_b       8.4519
_cell_length_c       14.187
_cell_angle_alpha    90
_cell_angle_beta     90
_cell_angle_gamma    90

_symmetry_space_group_name_H-M    "P 1"
_symmetry_int_tables_number       1

loop_
  _symmetry_equiv_pos_as_xyz
  'x, y, z'

loop_
  _atom_site_label
  _atom_site_occupancy
  _atom_site_fract_x
  _atom_site_fract_y
  _atom_site_fract_z
  _atom_site_thermal_displace_type
  _atom_site_B_iso_or_equiv
  _atom_site_type_symbol
  Cu1      1.0000 0.62021  0.30507  0.50000  Biso   1.000  Cu
  Cu2      1.0000 0.37979  0.69493  0.00000  Biso   1.000  Cu
  Cu3      1.0000 0.87979  0.30507  0.00000  Biso   1.000  Cu
  Cu4      1.0000 0.12021  0.69493  0.50000  Biso   1.000  Cu
  O1       1.0000 0.66770  0.19270  0.61950  Biso   1.000  O
  O2       1.0000 0.33230  0.80730  0.11950  Biso   1.000  O
  O3       1.0000 0.83230  0.19270  0.11950  Biso   1.000  O
  O4       1.0000 0.16770  0.80730  0.61950  Biso   1.000  O
  O5       1.0000 0.83330  0.10300  0.70201  Biso   1.000  O
  O6       1.0000 0.16670  0.89700  0.20201  Biso   1.000  O
  O7       1.0000 0.66670  0.10300  0.20201  Biso   1.000  O
  O8       1.0000 0.33330  0.89700  0.70201  Biso   1.000  O
  O9       1.0000 0.86950  0.19470  0.56093  Biso   1.000  O
  O10      1.0000 0.13050  0.80530  0.06093  Biso   1.000  O
  O11      1.0000 0.63050  0.19470  0.06093  Biso   1.000  O
  O12      1.0000 0.36950  0.80530  0.56093  Biso   1.000  O
  O13      1.0000 0.55990  0.41590  0.38476  Biso   1.000  O
  O14      1.0000 0.44010  0.58410  0.88476  Biso   1.000  O
  O15      1.0000 0.94010  0.41590  0.88476  Biso   1.000  O
  O16      1.0000 0.05990  0.58410  0.38476  Biso   1.000  O
  O17      1.0000 0.76260  0.36290  0.33843  Biso   1.000  O
  O18      1.0000 0.23740  0.63710  0.83843  Biso   1.000  O
  O19      1.0000 0.73740  0.36290  0.83843  Biso   1.000  O
  O20      1.0000 0.26260  0.63710  0.33843  Biso   1.000  O
  O21      1.0000 0.61850  0.46140  0.24014  Biso   1.000  O
  O22      1.0000 0.38150  0.53860  0.74014  Biso   1.000  O
  O23      1.0000 0.88150  0.46140  0.74014  Biso   1.000  O
  O24      1.0000 0.11850  0.53860  0.24014  Biso   1.000  O
  N1       1.0000 0.79450  0.16330  0.62841  Biso   1.000  N
  N2       1.0000 0.20550  0.83670  0.12841  Biso   1.000  N
  N3       1.0000 0.70550  0.16330  0.12841  Biso   1.000  N
  N4       1.0000 0.29450  0.83670  0.62841  Biso   1.000  N
  N5       1.0000 0.65030  0.41330  0.31875  Biso   1.000  N
  N6       1.0000 0.34970  0.58670  0.81875  Biso   1.000  N
  N7       1.0000 0.84970  0.41330  0.81875  Biso   1.000  N
  N8       1.0000 0.15030  0.58670  0.31875  Biso   1.000  N
  N9       1.0000 0.57843  0.09630  0.43616  Biso   1.000  N
  N10      1.0000 0.42157  0.90370  0.93616  Biso   1.000  N
  N11      1.0000 0.92157  0.09630  0.93616  Biso   1.000  N
  N12      1.0000 0.07843  0.90370  0.43616  Biso   1.000  N
  N13      1.0000 0.64110  0.82910  0.40536  Biso   1.000  N
  N14      1.0000 0.35890  0.17090  0.90536  Biso   1.000  N
  N15      1.0000 0.85890  0.82910  0.90536  Biso   1.000  N
  N16      1.0000 0.14110  0.17090  0.40536  Biso   1.000  N
  N17      1.0000 0.70849  0.50470  0.55017  Biso   1.000  N
  N18      1.0000 0.29151  0.49530  0.05017  Biso   1.000  N
  N19      1.0000 0.79151  0.50470  0.05017  Biso   1.000  N
  N20      1.0000 0.20849  0.49530  0.55017  Biso   1.000  N
  N21      1.0000 0.90607  0.65920  0.55368  Biso   1.000  N
  N22      1.0000 0.09393  0.34080  0.05368  Biso   1.000  N
  N23      1.0000 0.59393  0.65920  0.05368  Biso   1.000  N
  N24      1.0000 0.40607  0.34080  0.55368  Biso   1.000  N
  C1       1.0000 0.65830  0.96920  0.44610  Biso   1.000  C
  C2       1.0000 0.34170  0.03080  0.94610  Biso   1.000  C
  C3       1.0000 0.84170  0.96920  0.94610  Biso   1.000  C
  C4       1.0000 0.15830  0.03080  0.44610  Biso   1.000  C
  C5       1.0000 0.53170  0.81250  0.35149  Biso   1.000  C
  C6       1.0000 0.46830  0.18750  0.85149  Biso   1.000  C
  C7       1.0000 0.96830  0.81250  0.85149  Biso   1.000  C
  C8       1.0000 0.03170  0.18750  0.35149  Biso   1.000  C
  C9       1.0000 0.44310  0.93670  0.33617  Biso   1.000  C
  C10      1.0000 0.55690  0.06330  0.83617  Biso   1.000  C
  C11      1.0000 0.05690  0.93670  0.83617  Biso   1.000  C
  C12      1.0000 0.94310  0.06330  0.33617  Biso   1.000  C
  C13      1.0000 0.47090  0.07940  0.37983  Biso   1.000  C
  C14      1.0000 0.52910  0.92060  0.87983  Biso   1.000  C
  C15      1.0000 0.02910  0.07940  0.87983  Biso   1.000  C
  C16      1.0000 0.97090  0.92060  0.37983  Biso   1.000  C
  C17      1.0000 0.83337  0.53910  0.52203  Biso   1.000  C
  C18      1.0000 0.16663  0.46090  0.02203  Biso   1.000  C
  C19      1.0000 0.66663  0.53910  0.02203  Biso   1.000  C
  C20      1.0000 0.33337  0.46090  0.52203  Biso   1.000  C
  C21      1.0000 0.84900  0.75770  0.61613  Biso   1.000  C
  C22      1.0000 0.15100  0.24230  0.11613  Biso   1.000  C
  C23      1.0000 0.65100  0.75770  0.11613  Biso   1.000  C
  C24      1.0000 0.34900  0.24230  0.61613  Biso   1.000  C
  C25      1.0000 0.71830  0.73520  0.64669  Biso   1.000  C
  C26      1.0000 0.28170  0.26480  0.14669  Biso   1.000  C
  C27      1.0000 0.78170  0.73520  0.14669  Biso   1.000  C
  C28      1.0000 0.21830  0.26480  0.64669  Biso   1.000  C
  C29      1.0000 0.65120  0.60270  0.61287  Biso   1.000  C
  C30      1.0000 0.34880  0.39730  0.11287  Biso   1.000  C
  C31      1.0000 0.84880  0.60270  0.11287  Biso   1.000  C
  C32      1.0000 0.15120  0.39730  0.61287  Biso   1.000  C
  H1       1.0000 0.73450  0.98140  0.48550  Biso   1.000  H
  H2       1.0000 0.26550  0.01860  0.98550  Biso   1.000  H
  H3       1.0000 0.76550  0.98140  0.98550  Biso   1.000  H
  H4       1.0000 0.23450  0.01860  0.48550  Biso   1.000  H
  H5       1.0000 0.51440  0.71310  0.32300  Biso   1.000  H
  H6       1.0000 0.48560  0.28690  0.82300  Biso   1.000  H
  H7       1.0000 0.98560  0.71310  0.82300  Biso   1.000  H
  H8       1.0000 0.01440  0.28690  0.32300  Biso   1.000  H
  H9       1.0000 0.36670  0.92380  0.29730  Biso   1.000  H
  H10      1.0000 0.63330  0.07620  0.79730  Biso   1.000  H
  H11      1.0000 0.13330  0.92380  0.79730  Biso   1.000  H
  H12      1.0000 0.86670  0.07620  0.29730  Biso   1.000  H
  H13      1.0000 0.41310  0.16710  0.37010  Biso   1.000  H
  H14      1.0000 0.58690  0.83290  0.87010  Biso   1.000  H
  H15      1.0000 0.08690  0.16710  0.87010  Biso   1.000  H
  H16      1.0000 0.91310  0.83290  0.37010  Biso   1.000  H
  H17      1.0000 0.87270  0.47160  0.47620  Biso   1.000  H
  H18      1.0000 0.12730  0.52840  0.97620  Biso   1.000  H
  H19      1.0000 0.62730  0.47160  0.97620  Biso   1.000  H
  H20      1.0000 0.37270  0.52840  0.47620  Biso   1.000  H
  H21      1.0000 0.89870  0.84450  0.64010  Biso   1.000  H
  H22      1.0000 0.10130  0.15550  0.14010  Biso   1.000  H
  H23      1.0000 0.60130  0.84450  0.14010  Biso   1.000  H
  H24      1.0000 0.39870  0.15550  0.64010  Biso   1.000  H
  H25      1.0000 0.67700  0.80680  0.68890  Biso   1.000  H
  H26      1.0000 0.32300  0.19320  0.18890  Biso   1.000  H
  H27      1.0000 0.82300  0.80680  0.18890  Biso   1.000  H
  H28      1.0000 0.17700  0.19320  0.68890  Biso   1.000  H
  H29      1.0000 0.56320  0.58180  0.63450  Biso   1.000  H
  H30      1.0000 0.43680  0.41820  0.13450  Biso   1.000  H
  H31      1.0000 0.93680  0.58180  0.13450  Biso   1.000  H
  H32      1.0000 0.06320  0.41820  0.63450  Biso   1.000  H
