data_image0
_cell_length_a       8.3845
_cell_length_b       8.3845
_cell_length_c       19.2943
_cell_angle_alpha    90
_cell_angle_beta     90
_cell_angle_gamma    90

_symmetry_space_group_name_H-M    "P 1"
_symmetry_int_tables_number       1

loop_
  _symmetry_equiv_pos_as_xyz
  'x, y, z'

loop_
  _atom_site_label
  _atom_site_occupancy
  _atom_site_fract_x
  _atom_site_fract_y
  _atom_site_fract_z
  _atom_site_thermal_displace_type
  _atom_site_B_iso_or_equiv
  _atom_site_type_symbol
  Cu1      1.0000 0.05700  0.02292  0.08701  Biso   1.000  Cu
  Cu2      1.0000 0.94300  0.97708  0.58701  Biso   1.000  Cu
  Cu3      1.0000 0.97708  0.05700  0.33701  Biso   1.000  Cu
  Cu4      1.0000 0.02292  0.94300  0.83701  Biso   1.000  Cu
  C1       1.0000 0.85350  0.41390  0.98530  Biso   1.000  C
  C2       1.0000 0.14650  0.58610  0.48530  Biso   1.000  C
  C3       1.0000 0.58610  0.85350  0.23530  Biso   1.000  C
  C4       1.0000 0.41390  0.14650  0.73530  Biso   1.000  C
  H1       1.0000 0.82670  0.42980  0.93900  Biso   1.000  H
  H2       1.0000 0.17330  0.57020  0.43900  Biso   1.000  H
  H3       1.0000 0.57020  0.82670  0.18900  Biso   1.000  H
  H4       1.0000 0.42980  0.17330  0.68900  Biso   1.000  H
  N1       1.0000 0.82510  0.52910  0.03050  Biso   1.000  N
  N2       1.0000 0.17490  0.47090  0.53050  Biso   1.000  N
  N3       1.0000 0.47090  0.82510  0.28050  Biso   1.000  N
  N4       1.0000 0.52910  0.17490  0.78050  Biso   1.000  N
  C5       1.0000 0.91870  0.35510  0.11810  Biso   1.000  C
  C6       1.0000 0.08130  0.64490  0.61810  Biso   1.000  C
  C7       1.0000 0.64490  0.91870  0.36810  Biso   1.000  C
  C8       1.0000 0.35510  0.08130  0.86810  Biso   1.000  C
  H5       1.0000 0.93710  0.33740  0.16500  Biso   1.000  H
  H6       1.0000 0.06290  0.66260  0.66500  Biso   1.000  H
  H7       1.0000 0.66260  0.93710  0.41500  Biso   1.000  H
  H8       1.0000 0.33740  0.06290  0.91500  Biso   1.000  H
  N5       1.0000 0.95780  0.24090  0.07130  Biso   1.000  N
  N6       1.0000 0.04220  0.75910  0.57130  Biso   1.000  N
  N7       1.0000 0.75910  0.95780  0.32130  Biso   1.000  N
  N8       1.0000 0.24090  0.04220  0.82130  Biso   1.000  N
  C9       1.0000 0.96020  0.14140  0.95510  Biso   1.000  C
  C10      1.0000 0.03980  0.85860  0.45510  Biso   1.000  C
  C11      1.0000 0.85860  0.96020  0.20510  Biso   1.000  C
  C12      1.0000 0.14140  0.03980  0.70510  Biso   1.000  C
  C13      1.0000 0.14390  0.77300  0.96120  Biso   1.000  C
  C14      1.0000 0.85610  0.22700  0.46120  Biso   1.000  C
  C15      1.0000 0.22700  0.14390  0.21120  Biso   1.000  C
  C16      1.0000 0.77300  0.85610  0.71120  Biso   1.000  C
  H9       1.0000 0.17100  0.70180  0.92620  Biso   1.000  H
  H10      1.0000 0.82900  0.29820  0.42620  Biso   1.000  H
  H11      1.0000 0.29820  0.17100  0.17620  Biso   1.000  H
  H12      1.0000 0.70180  0.82900  0.67620  Biso   1.000  H
  C17      1.0000 0.18940  0.72030  0.03130  Biso   1.000  C
  C18      1.0000 0.81060  0.27970  0.53130  Biso   1.000  C
  C19      1.0000 0.27970  0.18940  0.28130  Biso   1.000  C
  C20      1.0000 0.72030  0.81060  0.78130  Biso   1.000  C
  C21      1.0000 0.26920  0.57820  0.03470  Biso   1.000  C
  C22      1.0000 0.73080  0.42180  0.53470  Biso   1.000  C
  C23      1.0000 0.42180  0.26920  0.28470  Biso   1.000  C
  C24      1.0000 0.57820  0.73080  0.78470  Biso   1.000  C
  H13      1.0000 0.29130  0.52290  0.99400  Biso   1.000  H
  H14      1.0000 0.70870  0.47710  0.49400  Biso   1.000  H
  H15      1.0000 0.47710  0.29130  0.24400  Biso   1.000  H
  H16      1.0000 0.52290  0.70870  0.74400  Biso   1.000  H
  C25      1.0000 0.31740  0.51560  0.09730  Biso   1.000  C
  C26      1.0000 0.68260  0.48440  0.59730  Biso   1.000  C
  C27      1.0000 0.48440  0.31740  0.34730  Biso   1.000  C
  C28      1.0000 0.51560  0.68260  0.84730  Biso   1.000  C
  H17      1.0000 0.37110  0.41880  0.09970  Biso   1.000  H
  H18      1.0000 0.62890  0.58120  0.59970  Biso   1.000  H
  H19      1.0000 0.58120  0.37110  0.34970  Biso   1.000  H
  H20      1.0000 0.41880  0.62890  0.84970  Biso   1.000  H
  C29      1.0000 0.28340  0.60070  0.15540  Biso   1.000  C
  C30      1.0000 0.71660  0.39930  0.65540  Biso   1.000  C
  C31      1.0000 0.39930  0.28340  0.40540  Biso   1.000  C
  C32      1.0000 0.60070  0.71660  0.90540  Biso   1.000  C
  H21      1.0000 0.31390  0.56270  0.19870  Biso   1.000  H
  H22      1.0000 0.68610  0.43730  0.69870  Biso   1.000  H
  H23      1.0000 0.43730  0.31390  0.44870  Biso   1.000  H
  H24      1.0000 0.56270  0.68610  0.94870  Biso   1.000  H
  C33      1.0000 0.20520  0.74050  0.14960  Biso   1.000  C
  C34      1.0000 0.79480  0.25950  0.64960  Biso   1.000  C
  C35      1.0000 0.25950  0.20520  0.39960  Biso   1.000  C
  C36      1.0000 0.74050  0.79480  0.89960  Biso   1.000  C
  H25      1.0000 0.18160  0.79580  0.19010  Biso   1.000  H
  H26      1.0000 0.81840  0.20420  0.69010  Biso   1.000  H
  H27      1.0000 0.20420  0.18160  0.44010  Biso   1.000  H
  H28      1.0000 0.79580  0.81840  0.94010  Biso   1.000  H
  O1       1.0000 0.92720  0.15220  0.89400  Biso   1.000  O
  O2       1.0000 0.07280  0.84780  0.39400  Biso   1.000  O
  O3       1.0000 0.84780  0.92720  0.14400  Biso   1.000  O
  O4       1.0000 0.15220  0.07280  0.64400  Biso   1.000  O
  C37      1.0000 0.85170  0.49750  0.09670  Biso   1.000  C
  C38      1.0000 0.14830  0.50250  0.59670  Biso   1.000  C
  C39      1.0000 0.50250  0.85170  0.34670  Biso   1.000  C
  C40      1.0000 0.49750  0.14830  0.84670  Biso   1.000  C
  H29      1.0000 0.82450  0.57330  0.12980  Biso   1.000  H
  H30      1.0000 0.17550  0.42670  0.62980  Biso   1.000  H
  H31      1.0000 0.42670  0.82450  0.37980  Biso   1.000  H
  H32      1.0000 0.57330  0.17550  0.87980  Biso   1.000  H
  C41      1.0000 0.92330  0.26810  0.00510  Biso   1.000  C
  C42      1.0000 0.07670  0.73190  0.50510  Biso   1.000  C
  C43      1.0000 0.73190  0.92330  0.25510  Biso   1.000  C
  C44      1.0000 0.26810  0.07670  0.75510  Biso   1.000  C
  N9       1.0000 0.03310  0.00910  0.98730  Biso   1.000  N
  N10      1.0000 0.96690  0.99090  0.48730  Biso   1.000  N
  N11      1.0000 0.99090  0.03310  0.23730  Biso   1.000  N
  N12      1.0000 0.00910  0.96690  0.73730  Biso   1.000  N
  N13      1.0000 0.07560  0.89560  0.94050  Biso   1.000  N
  N14      1.0000 0.92440  0.10440  0.44050  Biso   1.000  N
  N15      1.0000 0.10440  0.07560  0.19050  Biso   1.000  N
  N16      1.0000 0.89560  0.92440  0.69050  Biso   1.000  N
  N17      1.0000 0.15970  0.80420  0.09000  Biso   1.000  N
  N18      1.0000 0.84030  0.19580  0.59000  Biso   1.000  N
  N19      1.0000 0.19580  0.15970  0.34000  Biso   1.000  N
  N20      1.0000 0.80420  0.84030  0.84000  Biso   1.000  N
  Cl1      1.0000 0.51107  0.08990  0.05520  Biso   1.000  Cl
  Cl2      1.0000 0.48893  0.91010  0.55520  Biso   1.000  Cl
  Cl3      1.0000 0.91010  0.51107  0.30520  Biso   1.000  Cl
  Cl4      1.0000 0.08990  0.48893  0.80520  Biso   1.000  Cl
  O5       1.0000 0.56410  0.16600  0.11600  Biso   1.000  O
  O6       1.0000 0.43590  0.83400  0.61600  Biso   1.000  O
  O7       1.0000 0.83400  0.56410  0.36600  Biso   1.000  O
  O8       1.0000 0.16600  0.43590  0.86600  Biso   1.000  O
  O9       1.0000 0.50310  0.91360  0.06800  Biso   1.000  O
  O10      1.0000 0.49690  0.08640  0.56800  Biso   1.000  O
  O11      1.0000 0.08640  0.50310  0.31800  Biso   1.000  O
  O12      1.0000 0.91360  0.49690  0.81800  Biso   1.000  O
  O13      1.0000 0.34760  0.13090  0.04280  Biso   1.000  O
  O14      1.0000 0.65240  0.86910  0.54280  Biso   1.000  O
  O15      1.0000 0.86910  0.34760  0.29280  Biso   1.000  O
  O16      1.0000 0.13090  0.65240  0.79280  Biso   1.000  O
  O17      1.0000 0.61420  0.10660  0.00140  Biso   1.000  O
  O18      1.0000 0.38580  0.89340  0.50140  Biso   1.000  O
  O19      1.0000 0.89340  0.61420  0.25140  Biso   1.000  O
  O20      1.0000 0.10660  0.38580  0.75140  Biso   1.000  O
