data_image0
_cell_length_a       8.3845
_cell_length_b       8.3845
_cell_length_c       19.2943
_cell_angle_alpha    90
_cell_angle_beta     90
_cell_angle_gamma    90

_symmetry_space_group_name_H-M    "P 1"
_symmetry_int_tables_number       1

loop_
  _symmetry_equiv_pos_as_xyz
  'x, y, z'

loop_
  _atom_site_label
  _atom_site_occupancy
  _atom_site_fract_x
  _atom_site_fract_y
  _atom_site_fract_z
  _atom_site_thermal_displace_type
  _atom_site_B_iso_or_equiv
  _atom_site_type_symbol
  Cu1      1.0000 0.97718  0.05703  0.33698  Biso   1.000  Cu
  Cu2      1.0000 0.02282  0.94297  0.83698  Biso   1.000  Cu
  Cu3      1.0000 0.94297  0.97718  0.58698  Biso   1.000  Cu
  Cu4      1.0000 0.05703  0.02282  0.08698  Biso   1.000  Cu
  C1       1.0000 0.58600  0.85440  0.23550  Biso   1.000  C
  C2       1.0000 0.41400  0.14560  0.73550  Biso   1.000  C
  C3       1.0000 0.14560  0.58600  0.48550  Biso   1.000  C
  C4       1.0000 0.85440  0.41400  0.98550  Biso   1.000  C
  H1       1.0000 0.56970  0.82900  0.18910  Biso   1.000  H
  H2       1.0000 0.43030  0.17100  0.68910  Biso   1.000  H
  H3       1.0000 0.17100  0.56970  0.43910  Biso   1.000  H
  H4       1.0000 0.82900  0.43030  0.93910  Biso   1.000  H
  N1       1.0000 0.46950  0.82360  0.28110  Biso   1.000  N
  N2       1.0000 0.53050  0.17640  0.78110  Biso   1.000  N
  N3       1.0000 0.17640  0.46950  0.53110  Biso   1.000  N
  N4       1.0000 0.82360  0.53050  0.03110  Biso   1.000  N
  C5       1.0000 0.64550  0.91850  0.36810  Biso   1.000  C
  C6       1.0000 0.35450  0.08150  0.86810  Biso   1.000  C
  C7       1.0000 0.08150  0.64550  0.61810  Biso   1.000  C
  C8       1.0000 0.91850  0.35450  0.11810  Biso   1.000  C
  H5       1.0000 0.66340  0.93580  0.41510  Biso   1.000  H
  H6       1.0000 0.33660  0.06420  0.91510  Biso   1.000  H
  H7       1.0000 0.06420  0.66340  0.66510  Biso   1.000  H
  H8       1.0000 0.93580  0.33660  0.16510  Biso   1.000  H
  N5       1.0000 0.75890  0.95820  0.32140  Biso   1.000  N
  N6       1.0000 0.24110  0.04180  0.82140  Biso   1.000  N
  N7       1.0000 0.04180  0.75890  0.57140  Biso   1.000  N
  N8       1.0000 0.95820  0.24110  0.07140  Biso   1.000  N
  C9       1.0000 0.85950  0.96090  0.20450  Biso   1.000  C
  C10      1.0000 0.14050  0.03910  0.70450  Biso   1.000  C
  C11      1.0000 0.03910  0.85950  0.45450  Biso   1.000  C
  C12      1.0000 0.96090  0.14050  0.95450  Biso   1.000  C
  C13      1.0000 0.22610  0.14440  0.21140  Biso   1.000  C
  C14      1.0000 0.77390  0.85560  0.71140  Biso   1.000  C
  C15      1.0000 0.85560  0.22610  0.46140  Biso   1.000  C
  C16      1.0000 0.14440  0.77390  0.96140  Biso   1.000  C
  H9       1.0000 0.29670  0.17220  0.17630  Biso   1.000  H
  H10      1.0000 0.70330  0.82780  0.67630  Biso   1.000  H
  H11      1.0000 0.82780  0.29670  0.42630  Biso   1.000  H
  H12      1.0000 0.17220  0.70330  0.92630  Biso   1.000  H
  C17      1.0000 0.28000  0.19100  0.28120  Biso   1.000  C
  C18      1.0000 0.72000  0.80900  0.78120  Biso   1.000  C
  C19      1.0000 0.80900  0.28000  0.53120  Biso   1.000  C
  C20      1.0000 0.19100  0.72000  0.03120  Biso   1.000  C
  C21      1.0000 0.42190  0.26910  0.28500  Biso   1.000  C
  C22      1.0000 0.57810  0.73090  0.78500  Biso   1.000  C
  C23      1.0000 0.73090  0.42190  0.53500  Biso   1.000  C
  C24      1.0000 0.26910  0.57810  0.03500  Biso   1.000  C
  H13      1.0000 0.47820  0.28940  0.24440  Biso   1.000  H
  H14      1.0000 0.52180  0.71060  0.74440  Biso   1.000  H
  H15      1.0000 0.71060  0.47820  0.49440  Biso   1.000  H
  H16      1.0000 0.28940  0.52180  0.99440  Biso   1.000  H
  C25      1.0000 0.48360  0.31810  0.34650  Biso   1.000  C
  C26      1.0000 0.51640  0.68190  0.84650  Biso   1.000  C
  C27      1.0000 0.68190  0.48360  0.59650  Biso   1.000  C
  C28      1.0000 0.31810  0.51640  0.09650  Biso   1.000  C
  H17      1.0000 0.57990  0.37300  0.34830  Biso   1.000  H
  H18      1.0000 0.42010  0.62700  0.84830  Biso   1.000  H
  H19      1.0000 0.62700  0.57990  0.59830  Biso   1.000  H
  H20      1.0000 0.37300  0.42010  0.09830  Biso   1.000  H
  C29      1.0000 0.40080  0.28480  0.40540  Biso   1.000  C
  C30      1.0000 0.59920  0.71520  0.90540  Biso   1.000  C
  C31      1.0000 0.71520  0.40080  0.65540  Biso   1.000  C
  C32      1.0000 0.28480  0.59920  0.15540  Biso   1.000  C
  H21      1.0000 0.43910  0.31630  0.44860  Biso   1.000  H
  H22      1.0000 0.56090  0.68370  0.94860  Biso   1.000  H
  H23      1.0000 0.68370  0.43910  0.69860  Biso   1.000  H
  H24      1.0000 0.31630  0.56090  0.19860  Biso   1.000  H
  C33      1.0000 0.26110  0.20450  0.39970  Biso   1.000  C
  C34      1.0000 0.73890  0.79550  0.89970  Biso   1.000  C
  C35      1.0000 0.79550  0.26110  0.64970  Biso   1.000  C
  C36      1.0000 0.20450  0.73890  0.14970  Biso   1.000  C
  H25      1.0000 0.20750  0.17850  0.44030  Biso   1.000  H
  H26      1.0000 0.79250  0.82150  0.94030  Biso   1.000  H
  H27      1.0000 0.82150  0.20750  0.69030  Biso   1.000  H
  H28      1.0000 0.17850  0.79250  0.19030  Biso   1.000  H
  O1       1.0000 0.84680  0.92710  0.14420  Biso   1.000  O
  O2       1.0000 0.15320  0.07290  0.64420  Biso   1.000  O
  O3       1.0000 0.07290  0.84680  0.39420  Biso   1.000  O
  O4       1.0000 0.92710  0.15320  0.89420  Biso   1.000  O
  C37      1.0000 0.50260  0.85190  0.34630  Biso   1.000  C
  C38      1.0000 0.49740  0.14810  0.84630  Biso   1.000  C
  C39      1.0000 0.14810  0.50260  0.59630  Biso   1.000  C
  C40      1.0000 0.85190  0.49740  0.09630  Biso   1.000  C
  H29      1.0000 0.42660  0.82620  0.37960  Biso   1.000  H
  H30      1.0000 0.57340  0.17380  0.87960  Biso   1.000  H
  H31      1.0000 0.17380  0.42660  0.62960  Biso   1.000  H
  H32      1.0000 0.82620  0.57340  0.12960  Biso   1.000  H
  C41      1.0000 0.73170  0.92350  0.25510  Biso   1.000  C
  C42      1.0000 0.26830  0.07650  0.75510  Biso   1.000  C
  C43      1.0000 0.07650  0.73170  0.50510  Biso   1.000  C
  C44      1.0000 0.92350  0.26830  0.00510  Biso   1.000  C
  N9       1.0000 0.99080  0.03290  0.23750  Biso   1.000  N
  N10      1.0000 0.00920  0.96710  0.73750  Biso   1.000  N
  N11      1.0000 0.96710  0.99080  0.48750  Biso   1.000  N
  N12      1.0000 0.03290  0.00920  0.98750  Biso   1.000  N
  N13      1.0000 0.10500  0.07550  0.19070  Biso   1.000  N
  N14      1.0000 0.89500  0.92450  0.69070  Biso   1.000  N
  N15      1.0000 0.92450  0.10500  0.44070  Biso   1.000  N
  N16      1.0000 0.07550  0.89500  0.94070  Biso   1.000  N
  N17      1.0000 0.19530  0.16060  0.34010  Biso   1.000  N
  N18      1.0000 0.80470  0.83940  0.84010  Biso   1.000  N
  N19      1.0000 0.83940  0.19530  0.59010  Biso   1.000  N
  N20      1.0000 0.16060  0.80470  0.09010  Biso   1.000  N
  O5       1.0000 0.83190  0.56430  0.36550  Biso   1.000  O
  O6       1.0000 0.16810  0.43570  0.86550  Biso   1.000  O
  O7       1.0000 0.43570  0.83190  0.61550  Biso   1.000  O
  O8       1.0000 0.56430  0.16810  0.11550  Biso   1.000  O
  O9       1.0000 0.86730  0.34760  0.29310  Biso   1.000  O
  O10      1.0000 0.13270  0.65240  0.79310  Biso   1.000  O
  O11      1.0000 0.65240  0.86730  0.54310  Biso   1.000  O
  O12      1.0000 0.34760  0.13270  0.04310  Biso   1.000  O
  O13      1.0000 0.89940  0.61250  0.25040  Biso   1.000  O
  O14      1.0000 0.10060  0.38750  0.75040  Biso   1.000  O
  O15      1.0000 0.38750  0.89940  0.50040  Biso   1.000  O
  O16      1.0000 0.61250  0.10060  0.00040  Biso   1.000  O
  O17      1.0000 0.08560  0.50230  0.31850  Biso   1.000  O
  O18      1.0000 0.91440  0.49770  0.81850  Biso   1.000  O
  O19      1.0000 0.49770  0.08560  0.56850  Biso   1.000  O
  O20      1.0000 0.50230  0.91440  0.06850  Biso   1.000  O
  Cl1      1.0000 0.90980  0.51104  0.30537  Biso   1.000  Cl
  Cl2      1.0000 0.09020  0.48896  0.80537  Biso   1.000  Cl
  Cl3      1.0000 0.48896  0.90980  0.55537  Biso   1.000  Cl
  Cl4      1.0000 0.51104  0.09020  0.05537  Biso   1.000  Cl
