data_image0
_cell_length_a       8.3792
_cell_length_b       8.3792
_cell_length_c       19.3387
_cell_angle_alpha    90
_cell_angle_beta     90
_cell_angle_gamma    90

_symmetry_space_group_name_H-M    "P 1"
_symmetry_int_tables_number       1

loop_
  _symmetry_equiv_pos_as_xyz
  'x, y, z'

loop_
  _atom_site_label
  _atom_site_occupancy
  _atom_site_fract_x
  _atom_site_fract_y
  _atom_site_fract_z
  _atom_site_thermal_displace_type
  _atom_site_B_iso_or_equiv
  _atom_site_type_symbol
  Cu1      1.0000 0.52405  0.55583  0.16642  Biso   1.000  Cu
  Cu2      1.0000 0.47595  0.44417  0.66642  Biso   1.000  Cu
  Cu3      1.0000 0.44417  0.52405  0.91642  Biso   1.000  Cu
  Cu4      1.0000 0.55583  0.47595  0.41642  Biso   1.000  Cu
  N1       1.0000 0.45530  0.25700  0.40057  Biso   1.000  N
  N2       1.0000 0.54470  0.74300  0.90057  Biso   1.000  N
  N3       1.0000 0.74300  0.45530  0.15057  Biso   1.000  N
  N4       1.0000 0.25700  0.54470  0.65057  Biso   1.000  N
  N5       1.0000 0.57720  0.60350  0.27054  Biso   1.000  N
  N6       1.0000 0.42280  0.39650  0.77054  Biso   1.000  N
  N7       1.0000 0.39650  0.57720  0.02054  Biso   1.000  N
  N8       1.0000 0.60350  0.42280  0.52054  Biso   1.000  N
  N9       1.0000 0.53310  0.49160  0.31704  Biso   1.000  N
  N10      1.0000 0.46690  0.50840  0.81704  Biso   1.000  N
  N11      1.0000 0.50840  0.53310  0.06704  Biso   1.000  N
  N12      1.0000 0.49160  0.46690  0.56704  Biso   1.000  N
  C1       1.0000 0.70210  0.75900  0.47846  Biso   1.000  C
  C2       1.0000 0.29790  0.24100  0.97846  Biso   1.000  C
  C3       1.0000 0.24100  0.70210  0.22846  Biso   1.000  C
  C4       1.0000 0.75900  0.29790  0.72846  Biso   1.000  C
  H1       1.0000 0.68020  0.70410  0.51920  Biso   1.000  H
  H2       1.0000 0.31980  0.29590  0.01920  Biso   1.000  H
  H3       1.0000 0.29590  0.68020  0.26920  Biso   1.000  H
  H4       1.0000 0.70410  0.31980  0.76920  Biso   1.000  H
  N13      1.0000 0.65730  0.69310  0.41940  Biso   1.000  N
  N14      1.0000 0.34270  0.30690  0.91940  Biso   1.000  N
  N15      1.0000 0.30690  0.65730  0.16940  Biso   1.000  N
  N16      1.0000 0.69310  0.34270  0.66940  Biso   1.000  N
  C5       1.0000 0.68620  0.78040  0.36029  Biso   1.000  C
  C6       1.0000 0.31380  0.21960  0.86029  Biso   1.000  C
  C7       1.0000 0.21960  0.68620  0.11029  Biso   1.000  C
  C8       1.0000 0.78040  0.31380  0.61029  Biso   1.000  C
  C9       1.0000 0.81070  0.98650  0.42600  Biso   1.000  C
  C10      1.0000 0.18930  0.01350  0.92600  Biso   1.000  C
  C11      1.0000 0.01350  0.81070  0.17600  Biso   1.000  C
  C12      1.0000 0.98650  0.18930  0.67600  Biso   1.000  C
  H5       1.0000 0.86210  0.08460  0.42840  Biso   1.000  H
  H6       1.0000 0.13790  0.91540  0.92840  Biso   1.000  H
  H7       1.0000 0.91540  0.86210  0.17840  Biso   1.000  H
  H8       1.0000 0.08460  0.13790  0.67840  Biso   1.000  H
  C13      1.0000 0.77890  0.90330  0.48337  Biso   1.000  C
  C14      1.0000 0.22110  0.09670  0.98337  Biso   1.000  C
  C15      1.0000 0.09670  0.77890  0.23337  Biso   1.000  C
  C16      1.0000 0.90330  0.22110  0.73337  Biso   1.000  C
  H9       1.0000 0.80860  0.94310  0.52640  Biso   1.000  H
  H10      1.0000 0.19140  0.05690  0.02640  Biso   1.000  H
  H11      1.0000 0.05690  0.80860  0.27640  Biso   1.000  H
  H12      1.0000 0.94310  0.19140  0.77640  Biso   1.000  H
  C17      1.0000 0.41580  0.14470  0.44787  Biso   1.000  C
  C18      1.0000 0.58420  0.85530  0.94787  Biso   1.000  C
  C19      1.0000 0.85530  0.41580  0.19787  Biso   1.000  C
  C20      1.0000 0.14470  0.58420  0.69787  Biso   1.000  C
  H13      1.0000 0.43690  0.16220  0.49450  Biso   1.000  H
  H14      1.0000 0.56310  0.83780  0.99450  Biso   1.000  H
  H15      1.0000 0.83780  0.43690  0.24450  Biso   1.000  H
  H16      1.0000 0.16220  0.56310  0.74450  Biso   1.000  H
  C21      1.0000 0.76620  0.92450  0.36399  Biso   1.000  C
  C22      1.0000 0.23380  0.07550  0.86399  Biso   1.000  C
  C23      1.0000 0.07550  0.76620  0.11399  Biso   1.000  C
  C24      1.0000 0.92450  0.23380  0.61399  Biso   1.000  C
  H17      1.0000 0.78990  0.97960  0.32350  Biso   1.000  H
  H18      1.0000 0.21010  0.02040  0.82350  Biso   1.000  H
  H19      1.0000 0.02040  0.78990  0.07350  Biso   1.000  H
  H20      1.0000 0.97960  0.21010  0.57350  Biso   1.000  H
  O1       1.0000 0.42660  0.34690  0.22311  Biso   1.000  O
  O2       1.0000 0.57340  0.65310  0.72311  Biso   1.000  O
  O3       1.0000 0.65310  0.42660  0.97311  Biso   1.000  O
  O4       1.0000 0.34690  0.57340  0.47311  Biso   1.000  O
  C25      1.0000 0.42060  0.22670  0.33491  Biso   1.000  C
  C26      1.0000 0.57940  0.77330  0.83491  Biso   1.000  C
  C27      1.0000 0.77330  0.42060  0.08491  Biso   1.000  C
  C28      1.0000 0.22670  0.57940  0.58491  Biso   1.000  C
  C29      1.0000 0.46120  0.36000  0.28314  Biso   1.000  C
  C30      1.0000 0.53880  0.64000  0.78314  Biso   1.000  C
  C31      1.0000 0.64000  0.46120  0.03314  Biso   1.000  C
  C32      1.0000 0.36000  0.53880  0.53314  Biso   1.000  C
  C33      1.0000 0.64360  0.72630  0.28810  Biso   1.000  C
  C34      1.0000 0.35640  0.27370  0.78810  Biso   1.000  C
  C35      1.0000 0.27370  0.64360  0.03810  Biso   1.000  C
  C36      1.0000 0.72630  0.35640  0.53810  Biso   1.000  C
  H21      1.0000 0.67160  0.79560  0.25250  Biso   1.000  H
  H22      1.0000 0.32840  0.20440  0.75250  Biso   1.000  H
  H23      1.0000 0.20440  0.67160  0.00250  Biso   1.000  H
  H24      1.0000 0.79560  0.32840  0.50250  Biso   1.000  H
  N17      1.0000 0.31670  0.97030  0.36086  Biso   1.000  N
  N18      1.0000 0.68330  0.02970  0.86086  Biso   1.000  N
  N19      1.0000 0.02970  0.31670  0.11086  Biso   1.000  N
  N20      1.0000 0.97030  0.68330  0.61086  Biso   1.000  N
  C37      1.0000 0.34530  0.00600  0.42730  Biso   1.000  C
  C38      1.0000 0.65470  0.99400  0.92730  Biso   1.000  C
  C39      1.0000 0.99400  0.34530  0.17730  Biso   1.000  C
  C40      1.0000 0.00600  0.65470  0.67730  Biso   1.000  C
  H25      1.0000 0.31550  0.93260  0.46100  Biso   1.000  H
  H26      1.0000 0.68450  0.06740  0.96100  Biso   1.000  H
  H27      1.0000 0.06740  0.31550  0.21100  Biso   1.000  H
  H28      1.0000 0.93260  0.68450  0.71100  Biso   1.000  H
  C41      1.0000 0.35520  0.08160  0.31549  Biso   1.000  C
  C42      1.0000 0.64480  0.91840  0.81549  Biso   1.000  C
  C43      1.0000 0.91840  0.35520  0.06549  Biso   1.000  C
  C44      1.0000 0.08160  0.64480  0.56549  Biso   1.000  C
  H29      1.0000 0.33780  0.06180  0.26880  Biso   1.000  H
  H30      1.0000 0.66220  0.93820  0.76880  Biso   1.000  H
  H31      1.0000 0.93820  0.33780  0.01880  Biso   1.000  H
  H32      1.0000 0.06180  0.66220  0.51880  Biso   1.000  H
  Cl1      1.0000 0.58639  0.01004  0.13527  Biso   1.000  Cl
  Cl2      1.0000 0.41361  0.98996  0.63527  Biso   1.000  Cl
  Cl3      1.0000 0.98996  0.58639  0.88527  Biso   1.000  Cl
  Cl4      1.0000 0.01004  0.41361  0.38527  Biso   1.000  Cl
  O5       1.0000 0.41030  0.00730  0.14930  Biso   1.000  O
  O6       1.0000 0.58970  0.99270  0.64930  Biso   1.000  O
  O7       1.0000 0.99270  0.41030  0.89930  Biso   1.000  O
  O8       1.0000 0.00730  0.58970  0.39930  Biso   1.000  O
  O9       1.0000 0.66250  0.06500  0.19637  Biso   1.000  O
  O10      1.0000 0.33750  0.93500  0.69637  Biso   1.000  O
  O11      1.0000 0.93500  0.66250  0.94637  Biso   1.000  O
  O12      1.0000 0.06500  0.33750  0.44637  Biso   1.000  O
  O13      1.0000 0.62280  0.85120  0.12292  Biso   1.000  O
  O14      1.0000 0.37720  0.14880  0.62292  Biso   1.000  O
  O15      1.0000 0.14880  0.62280  0.87292  Biso   1.000  O
  O16      1.0000 0.85120  0.37720  0.37292  Biso   1.000  O
  O17      1.0000 0.60640  0.11380  0.08150  Biso   1.000  O
  O18      1.0000 0.39360  0.88620  0.58150  Biso   1.000  O
  O19      1.0000 0.88620  0.60640  0.83150  Biso   1.000  O
  O20      1.0000 0.11380  0.39360  0.33150  Biso   1.000  O
