data_image0
_cell_length_a       10.641
_cell_length_b       17.603
_cell_length_c       13.776
_cell_angle_alpha    90
_cell_angle_beta     129.64
_cell_angle_gamma    90

_symmetry_space_group_name_H-M    "P 1"
_symmetry_int_tables_number       1

loop_
  _symmetry_equiv_pos_as_xyz
  'x, y, z'

loop_
  _atom_site_label
  _atom_site_occupancy
  _atom_site_fract_x
  _atom_site_fract_y
  _atom_site_fract_z
  _atom_site_thermal_displace_type
  _atom_site_B_iso_or_equiv
  _atom_site_type_symbol
  Cu1      1.0000 0.53477  0.10125  0.31460  Biso   1.000  Cu
  Cu2      1.0000 0.46523  0.60125  0.18540  Biso   1.000  Cu
  Cu3      1.0000 0.46523  0.89875  0.68540  Biso   1.000  Cu
  Cu4      1.0000 0.53477  0.39875  0.81460  Biso   1.000  Cu
  N1       1.0000 0.69680  0.01930  0.42210  Biso   1.000  N
  N2       1.0000 0.30320  0.51930  0.07790  Biso   1.000  N
  N3       1.0000 0.30320  0.98070  0.57790  Biso   1.000  N
  N4       1.0000 0.69680  0.48070  0.92210  Biso   1.000  N
  N5       1.0000 0.55760  0.11460  0.47110  Biso   1.000  N
  N6       1.0000 0.44240  0.61460  0.02890  Biso   1.000  N
  N7       1.0000 0.44240  0.88540  0.52890  Biso   1.000  N
  N8       1.0000 0.55760  0.38540  0.97110  Biso   1.000  N
  O1       1.0000 0.36750  0.17780  0.22360  Biso   1.000  O
  O2       1.0000 0.63250  0.67780  0.27640  Biso   1.000  O
  O3       1.0000 0.63250  0.82220  0.77640  Biso   1.000  O
  O4       1.0000 0.36750  0.32220  0.72360  Biso   1.000  O
  O5       1.0000 0.17280  0.09140  0.14840  Biso   1.000  O
  O6       1.0000 0.82720  0.59140  0.35160  Biso   1.000  O
  O7       1.0000 0.82720  0.90860  0.85160  Biso   1.000  O
  O8       1.0000 0.17280  0.40860  0.64840  Biso   1.000  O
  O9       1.0000 0.58030  0.34590  0.61380  Biso   1.000  O
  O10      1.0000 0.41970  0.84590  0.88620  Biso   1.000  O
  O11      1.0000 0.41970  0.65410  0.38620  Biso   1.000  O
  O12      1.0000 0.58030  0.15410  0.11380  Biso   1.000  O
  O13      1.0000 0.47570  0.43800  0.65680  Biso   1.000  O
  O14      1.0000 0.52430  0.93800  0.84320  Biso   1.000  O
  O15      1.0000 0.52430  0.56200  0.34320  Biso   1.000  O
  O16      1.0000 0.47570  0.06200  0.15680  Biso   1.000  O
  O17      1.0000 0.72610  0.18870  0.36270  Biso   1.000  O
  O18      1.0000 0.27390  0.68870  0.13730  Biso   1.000  O
  O19      1.0000 0.27390  0.81130  0.63730  Biso   1.000  O
  O20      1.0000 0.72610  0.31130  0.86270  Biso   1.000  O
  C1       1.0000 0.10610  0.26990  0.19960  Biso   1.000  C
  C2       1.0000 0.89390  0.76990  0.30040  Biso   1.000  C
  C3       1.0000 0.89390  0.73010  0.80040  Biso   1.000  C
  C4       1.0000 0.10610  0.23010  0.69960  Biso   1.000  C
  C5       1.0000 0.98590  0.26150  0.21170  Biso   1.000  C
  C6       1.0000 0.01410  0.76150  0.28830  Biso   1.000  C
  C7       1.0000 0.01410  0.73850  0.78830  Biso   1.000  C
  C8       1.0000 0.98590  0.23850  0.71170  Biso   1.000  C
  H1       1.0000 0.90210  0.22670  0.16120  Biso   1.000  H
  H2       1.0000 0.09790  0.72670  0.33880  Biso   1.000  H
  H3       1.0000 0.09790  0.77330  0.83880  Biso   1.000  H
  H4       1.0000 0.90210  0.27330  0.66120  Biso   1.000  H
  C9       1.0000 0.99040  0.30460  0.29800  Biso   1.000  C
  C10      1.0000 0.00960  0.80460  0.20200  Biso   1.000  C
  C11      1.0000 0.00960  0.69540  0.70200  Biso   1.000  C
  C12      1.0000 0.99040  0.19540  0.79800  Biso   1.000  C
  H5       1.0000 0.91120  0.29850  0.30670  Biso   1.000  H
  H6       1.0000 0.08880  0.79850  0.19330  Biso   1.000  H
  H7       1.0000 0.08880  0.70150  0.69330  Biso   1.000  H
  H8       1.0000 0.91120  0.20150  0.80670  Biso   1.000  H
  C13      1.0000 0.11310  0.35640  0.37010  Biso   1.000  C
  C14      1.0000 0.88690  0.85640  0.12990  Biso   1.000  C
  C15      1.0000 0.88690  0.64360  0.62990  Biso   1.000  C
  C16      1.0000 0.11310  0.14360  0.87010  Biso   1.000  C
  H9       1.0000 0.11390  0.38590  0.42650  Biso   1.000  H
  H10      1.0000 0.88610  0.88590  0.07350  Biso   1.000  H
  H11      1.0000 0.88610  0.61410  0.57350  Biso   1.000  H
  H12      1.0000 0.11390  0.11410  0.92650  Biso   1.000  H
  C17      1.0000 0.23750  0.36740  0.36350  Biso   1.000  C
  C18      1.0000 0.76250  0.86740  0.13650  Biso   1.000  C
  C19      1.0000 0.76250  0.63260  0.63650  Biso   1.000  C
  C20      1.0000 0.23750  0.13260  0.86350  Biso   1.000  C
  C21      1.0000 0.23070  0.32170  0.27700  Biso   1.000  C
  C22      1.0000 0.76930  0.82170  0.22300  Biso   1.000  C
  C23      1.0000 0.76930  0.67830  0.72300  Biso   1.000  C
  C24      1.0000 0.23070  0.17830  0.77700  Biso   1.000  C
  H13      1.0000 0.31280  0.32620  0.27130  Biso   1.000  H
  H14      1.0000 0.68720  0.82620  0.22870  Biso   1.000  H
  H15      1.0000 0.68720  0.67380  0.72870  Biso   1.000  H
  H16      1.0000 0.31280  0.17380  0.77130  Biso   1.000  H
  C25      1.0000 0.09570  0.22300  0.10140  Biso   1.000  C
  C26      1.0000 0.90430  0.72300  0.39860  Biso   1.000  C
  C27      1.0000 0.90430  0.77700  0.89860  Biso   1.000  C
  C28      1.0000 0.09570  0.27700  0.60140  Biso   1.000  C
  H17      1.0000 0.98660  0.20210  0.04150  Biso   1.000  H
  H18      1.0000 0.01340  0.70210  0.45850  Biso   1.000  H
  H19      1.0000 0.01340  0.79790  0.95850  Biso   1.000  H
  H20      1.0000 0.98660  0.29790  0.54150  Biso   1.000  H
  H21      1.0000 0.11500  0.25580  0.05550  Biso   1.000  H
  H22      1.0000 0.88500  0.75580  0.44450  Biso   1.000  H
  H23      1.0000 0.88500  0.74420  0.94450  Biso   1.000  H
  H24      1.0000 0.11500  0.24420  0.55550  Biso   1.000  H
  C29      1.0000 0.21950  0.15820  0.16140  Biso   1.000  C
  C30      1.0000 0.78050  0.65820  0.33860  Biso   1.000  C
  C31      1.0000 0.78050  0.84180  0.83860  Biso   1.000  C
  C32      1.0000 0.21950  0.34180  0.66140  Biso   1.000  C
  C33      1.0000 0.37110  0.42410  0.44580  Biso   1.000  C
  C34      1.0000 0.62890  0.92410  0.05420  Biso   1.000  C
  C35      1.0000 0.62890  0.57590  0.55420  Biso   1.000  C
  C36      1.0000 0.37110  0.07590  0.94580  Biso   1.000  C
  H25      1.0000 0.32290  0.47250  0.43990  Biso   1.000  H
  H26      1.0000 0.67710  0.97250  0.06010  Biso   1.000  H
  H27      1.0000 0.67710  0.52750  0.56010  Biso   1.000  H
  H28      1.0000 0.32290  0.02750  0.93990  Biso   1.000  H
  H29      1.0000 0.43070  0.43140  0.41510  Biso   1.000  H
  H30      1.0000 0.56930  0.93140  0.08490  Biso   1.000  H
  H31      1.0000 0.56930  0.56860  0.58490  Biso   1.000  H
  H32      1.0000 0.43070  0.06860  0.91510  Biso   1.000  H
  C37      1.0000 0.48880  0.40010  0.58210  Biso   1.000  C
  C38      1.0000 0.51120  0.90010  0.91790  Biso   1.000  C
  C39      1.0000 0.51120  0.59990  0.41790  Biso   1.000  C
  C40      1.0000 0.48880  0.09990  0.08210  Biso   1.000  C
  C41      1.0000 0.47600  0.16660  0.48440  Biso   1.000  C
  C42      1.0000 0.52400  0.66660  0.01560  Biso   1.000  C
  C43      1.0000 0.52400  0.83340  0.51560  Biso   1.000  C
  C44      1.0000 0.47600  0.33340  0.98440  Biso   1.000  C
  H33      1.0000 0.41140  0.20250  0.42130  Biso   1.000  H
  H34      1.0000 0.58860  0.70250  0.07870  Biso   1.000  H
  H35      1.0000 0.58860  0.79750  0.57870  Biso   1.000  H
  H36      1.0000 0.41140  0.29750  0.92130  Biso   1.000  H
  C45      1.0000 0.48670  0.16770  0.59080  Biso   1.000  C
  C46      1.0000 0.51330  0.66770  0.90920  Biso   1.000  C
  C47      1.0000 0.51330  0.83230  0.40920  Biso   1.000  C
  C48      1.0000 0.48670  0.33230  0.09080  Biso   1.000  C
  H37      1.0000 0.42800  0.20320  0.59760  Biso   1.000  H
  H38      1.0000 0.57200  0.70320  0.90240  Biso   1.000  H
  H39      1.0000 0.57200  0.79680  0.40240  Biso   1.000  H
  H40      1.0000 0.42800  0.29680  0.09760  Biso   1.000  H
  C49      1.0000 0.58290  0.11670  0.68340  Biso   1.000  C
  C50      1.0000 0.41710  0.61670  0.81660  Biso   1.000  C
  C51      1.0000 0.41710  0.88330  0.31660  Biso   1.000  C
  C52      1.0000 0.58290  0.38330  0.18340  Biso   1.000  C
  H41      1.0000 0.59100  0.11680  0.75470  Biso   1.000  H
  H42      1.0000 0.40900  0.61680  0.74530  Biso   1.000  H
  H43      1.0000 0.40900  0.88320  0.24530  Biso   1.000  H
  H44      1.0000 0.59100  0.38320  0.25470  Biso   1.000  H
  C53      1.0000 0.67020  0.06410  0.67200  Biso   1.000  C
  C54      1.0000 0.32980  0.56410  0.82800  Biso   1.000  C
  C55      1.0000 0.32980  0.93590  0.32800  Biso   1.000  C
  C56      1.0000 0.67020  0.43590  0.17200  Biso   1.000  C
  H45      1.0000 0.73710  0.02860  0.73510  Biso   1.000  H
  H46      1.0000 0.26290  0.52860  0.76490  Biso   1.000  H
  H47      1.0000 0.26290  0.97140  0.26490  Biso   1.000  H
  H48      1.0000 0.73710  0.47140  0.23510  Biso   1.000  H
  C57      1.0000 0.65500  0.06580  0.56320  Biso   1.000  C
  C58      1.0000 0.34500  0.56580  0.93680  Biso   1.000  C
  C59      1.0000 0.34500  0.93420  0.43680  Biso   1.000  C
  C60      1.0000 0.65500  0.43420  0.06320  Biso   1.000  C
  C61      1.0000 0.74550  0.01490  0.54210  Biso   1.000  C
  C62      1.0000 0.25450  0.51490  0.95790  Biso   1.000  C
  C63      1.0000 0.25450  0.98510  0.45790  Biso   1.000  C
  C64      1.0000 0.74550  0.48510  0.04210  Biso   1.000  C
  C65      1.0000 0.86720  0.96570  0.63090  Biso   1.000  C
  C66      1.0000 0.13280  0.46570  0.86910  Biso   1.000  C
  C67      1.0000 0.13280  0.03430  0.36910  Biso   1.000  C
  C68      1.0000 0.86720  0.53430  0.13090  Biso   1.000  C
  H49      1.0000 0.89860  0.96320  0.71120  Biso   1.000  H
  H50      1.0000 0.10140  0.46320  0.78880  Biso   1.000  H
  H51      1.0000 0.10140  0.03680  0.28880  Biso   1.000  H
  H52      1.0000 0.89860  0.53680  0.21120  Biso   1.000  H
  C69      1.0000 0.94300  0.91940  0.59850  Biso   1.000  C
  C70      1.0000 0.05700  0.41940  0.90150  Biso   1.000  C
  C71      1.0000 0.05700  0.08060  0.40150  Biso   1.000  C
  C72      1.0000 0.94300  0.58060  0.09850  Biso   1.000  C
  H53      1.0000 0.02520  0.88590  0.65710  Biso   1.000  H
  H54      1.0000 0.97480  0.38590  0.84290  Biso   1.000  H
  H55      1.0000 0.97480  0.11410  0.34290  Biso   1.000  H
  H56      1.0000 0.02520  0.61410  0.15710  Biso   1.000  H
  C73      1.0000 0.89520  0.92420  0.48070  Biso   1.000  C
  C74      1.0000 0.10480  0.42420  0.01930  Biso   1.000  C
  C75      1.0000 0.10480  0.07580  0.51930  Biso   1.000  C
  C76      1.0000 0.89520  0.57580  0.98070  Biso   1.000  C
  H57      1.0000 0.94340  0.89380  0.45730  Biso   1.000  H
  H58      1.0000 0.05660  0.39380  0.04270  Biso   1.000  H
  H59      1.0000 0.05660  0.10620  0.54270  Biso   1.000  H
  H60      1.0000 0.94340  0.60620  0.95730  Biso   1.000  H
  C77      1.0000 0.77490  0.97440  0.39760  Biso   1.000  C
  C78      1.0000 0.22510  0.47440  0.10240  Biso   1.000  C
  C79      1.0000 0.22510  0.02560  0.60240  Biso   1.000  C
  C80      1.0000 0.77490  0.52560  0.89760  Biso   1.000  C
  H61      1.0000 0.74510  0.97770  0.31790  Biso   1.000  H
  H62      1.0000 0.25490  0.47770  0.18210  Biso   1.000  H
  H63      1.0000 0.25490  0.02230  0.68210  Biso   1.000  H
  H64      1.0000 0.74510  0.52230  0.81790  Biso   1.000  H
  H65      1.0000 0.72500  0.22400  0.37800  Biso   1.000  H
  H66      1.0000 0.27500  0.72400  0.12200  Biso   1.000  H
  H67      1.0000 0.27500  0.77600  0.62200  Biso   1.000  H
  H68      1.0000 0.72500  0.27600  0.87800  Biso   1.000  H
  H69      1.0000 0.67400  0.19200  0.27800  Biso   1.000  H
  H70      1.0000 0.32600  0.69200  0.22200  Biso   1.000  H
  H71      1.0000 0.32600  0.80800  0.72200  Biso   1.000  H
  H72      1.0000 0.67400  0.30800  0.77800  Biso   1.000  H
  O21      1.0000 0.64950  0.32160  0.44400  Biso   1.000  O
  O22      1.0000 0.35050  0.82160  0.05600  Biso   1.000  O
  O23      1.0000 0.35050  0.67840  0.55600  Biso   1.000  O
  O24      1.0000 0.64950  0.17840  0.94400  Biso   1.000  O
  H73      1.0000 0.72800  0.34400  0.45440  Biso   1.000  H
  H74      1.0000 0.27200  0.84400  0.04560  Biso   1.000  H
  H75      1.0000 0.27200  0.65600  0.54560  Biso   1.000  H
  H76      1.0000 0.72800  0.15600  0.95440  Biso   1.000  H
  H77      1.0000 0.59480  0.34460  0.46040  Biso   1.000  H
  H78      1.0000 0.40520  0.84460  0.03960  Biso   1.000  H
  H79      1.0000 0.40520  0.65540  0.53960  Biso   1.000  H
  H80      1.0000 0.59480  0.15540  0.96040  Biso   1.000  H
  O25      1.0000 0.84350  0.44700  0.49710  Biso   1.000  O
  O26      1.0000 0.15650  0.94700  0.00290  Biso   1.000  O
  O27      1.0000 0.15650  0.55300  0.50290  Biso   1.000  O
  O28      1.0000 0.84350  0.05300  0.99710  Biso   1.000  O
  H81      1.0000 0.96400  0.43800  0.55200  Biso   1.000  H
  H82      1.0000 0.03600  0.93800  0.94800  Biso   1.000  H
  H83      1.0000 0.03600  0.56200  0.44800  Biso   1.000  H
  H84      1.0000 0.96400  0.06200  0.05200  Biso   1.000  H
  H85      1.0000 0.82200  0.48100  0.47100  Biso   1.000  H
  H86      1.0000 0.17800  0.98100  0.02900  Biso   1.000  H
  H87      1.0000 0.17800  0.51900  0.52900  Biso   1.000  H
  H88      1.0000 0.82200  0.01900  0.97100  Biso   1.000  H
