data_image0
_cell_length_a       7.8124
_cell_length_b       8.5139
_cell_length_c       12.8593
_cell_angle_alpha    104.458
_cell_angle_beta     103.562
_cell_angle_gamma    96.755

_symmetry_space_group_name_H-M    "P 1"
_symmetry_int_tables_number       1

loop_
  _symmetry_equiv_pos_as_xyz
  'x, y, z'

loop_
  _atom_site_label
  _atom_site_occupancy
  _atom_site_fract_x
  _atom_site_fract_y
  _atom_site_fract_z
  _atom_site_thermal_displace_type
  _atom_site_B_iso_or_equiv
  _atom_site_type_symbol
  Au1      1.0000 0.00000  0.50000  0.50000  Biso   1.000  Au
  Au2      1.0000 0.00000  0.00000  0.50000  Biso   1.000  Au
  Cu1      1.0000 0.39687  0.58245  0.25286  Biso   1.000  Cu
  Cu2      1.0000 0.60313  0.41755  0.74714  Biso   1.000  Cu
  O1       1.0000 0.62370  0.76930  0.04840  Biso   1.000  O
  O2       1.0000 0.37630  0.23070  0.95160  Biso   1.000  O
  O3       1.0000 0.78820  0.50270  0.10100  Biso   1.000  O
  O4       1.0000 0.21180  0.49730  0.89900  Biso   1.000  O
  N1       1.0000 0.30180  0.76410  0.19990  Biso   1.000  N
  N2       1.0000 0.69820  0.23590  0.80010  Biso   1.000  N
  N3       1.0000 0.55170  0.60560  0.15790  Biso   1.000  N
  N4       1.0000 0.44830  0.39440  0.84210  Biso   1.000  N
  N5       1.0000 0.52830  0.40030  0.27410  Biso   1.000  N
  N6       1.0000 0.47170  0.59970  0.72590  Biso   1.000  N
  N7       1.0000 0.23440  0.55180  0.34260  Biso   1.000  N
  N8       1.0000 0.76560  0.44820  0.65740  Biso   1.000  N
  N9       1.0000 0.62230  0.77550  0.42270  Biso   1.000  N
  N10      1.0000 0.37770  0.22450  0.57730  Biso   1.000  N
  C1       1.0000 0.16900  0.83860  0.22490  Biso   1.000  C
  C2       1.0000 0.83100  0.16140  0.77510  Biso   1.000  C
  H1       1.0000 0.11100  0.80570  0.27360  Biso   1.000  H
  H2       1.0000 0.88900  0.19430  0.72640  Biso   1.000  H
  C3       1.0000 0.11540  0.96250  0.18090  Biso   1.000  C
  C4       1.0000 0.88460  0.03750  0.81910  Biso   1.000  C
  H3       1.0000 0.02370  0.01290  0.20070  Biso   1.000  H
  H4       1.0000 0.97630  0.98710  0.79930  Biso   1.000  H
  C5       1.0000 0.19720  0.01110  0.10820  Biso   1.000  C
  C6       1.0000 0.80280  0.98890  0.89180  Biso   1.000  C
  H5       1.0000 0.16240  0.09420  0.07740  Biso   1.000  H
  H6       1.0000 0.83760  0.90580  0.92260  Biso   1.000  H
  C7       1.0000 0.33300  0.93340  0.08160  Biso   1.000  C
  C8       1.0000 0.66700  0.06660  0.91840  Biso   1.000  C
  H7       1.0000 0.39050  0.96280  0.03170  Biso   1.000  H
  H8       1.0000 0.60950  0.03720  0.96830  Biso   1.000  H
  C9       1.0000 0.38250  0.81300  0.12900  Biso   1.000  C
  C10      1.0000 0.61750  0.18700  0.87100  Biso   1.000  C
  C11      1.0000 0.53520  0.72690  0.10620  Biso   1.000  C
  C12      1.0000 0.46480  0.27310  0.89380  Biso   1.000  C
  C13      1.0000 0.67320  0.50470  0.15150  Biso   1.000  C
  C14      1.0000 0.32680  0.49530  0.84850  Biso   1.000  C
  C15      1.0000 0.65230  0.38170  0.21700  Biso   1.000  C
  C16      1.0000 0.34770  0.61830  0.78300  Biso   1.000  C
  C17      1.0000 0.75370  0.26100  0.21990  Biso   1.000  C
  C18      1.0000 0.24630  0.73900  0.78010  Biso   1.000  C
  H9       1.0000 0.83790  0.24970  0.17940  Biso   1.000  H
  H10      1.0000 0.16210  0.75030  0.82060  Biso   1.000  H
  C19      1.0000 0.72920  0.15640  0.28390  Biso   1.000  C
  C20      1.0000 0.27080  0.84360  0.71610  Biso   1.000  C
  H11      1.0000 0.79560  0.07300  0.28660  Biso   1.000  H
  H12      1.0000 0.20440  0.92700  0.71340  Biso   1.000  H
  C21      1.0000 0.60460  0.17810  0.34350  Biso   1.000  C
  C22      1.0000 0.39540  0.82190  0.65650  Biso   1.000  C
  H13      1.0000 0.58740  0.11010  0.38810  Biso   1.000  H
  H14      1.0000 0.41260  0.88990  0.61190  Biso   1.000  H
  C23      1.0000 0.50600  0.29980  0.33710  Biso   1.000  C
  C24      1.0000 0.49400  0.70020  0.66290  Biso   1.000  C
  H15      1.0000 0.42160  0.31310  0.37740  Biso   1.000  H
  H16      1.0000 0.57840  0.68690  0.62260  Biso   1.000  H
  C25      1.0000 0.14690  0.53390  0.39940  Biso   1.000  C
  C26      1.0000 0.85310  0.46610  0.60060  Biso   1.000  C
  C27      1.0000 0.76090  0.85660  0.45370  Biso   1.000  C
  C28      1.0000 0.23910  0.14340  0.54630  Biso   1.000  C
  O5       1.0000 0.86730  0.61950  0.91320  Biso   1.000  O
  O6       1.0000 0.13270  0.38050  0.08680  Biso   1.000  O
  H17      1.0000 0.84010  0.63750  0.97480  Biso   1.000  H
  H18      1.0000 0.15990  0.36250  0.02520  Biso   1.000  H
  H19      1.0000 0.96310  0.58180  0.91180  Biso   1.000  H
  H20      1.0000 0.03690  0.41820  0.08820  Biso   1.000  H
