data_image0
_cell_length_a       10.9357
_cell_length_b       9.2133
_cell_length_c       18.0899
_cell_angle_alpha    90
_cell_angle_beta     104.605
_cell_angle_gamma    90

_symmetry_space_group_name_H-M    "P 1"
_symmetry_int_tables_number       1

loop_
  _symmetry_equiv_pos_as_xyz
  'x, y, z'

loop_
  _atom_site_label
  _atom_site_occupancy
  _atom_site_fract_x
  _atom_site_fract_y
  _atom_site_fract_z
  _atom_site_thermal_displace_type
  _atom_site_B_iso_or_equiv
  _atom_site_type_symbol
  Cu1      1.0000 0.99322  0.00192  0.25315  Biso   1.000  Cu
  Cu2      1.0000 0.00678  0.50192  0.24685  Biso   1.000  Cu
  Cu3      1.0000 0.00678  0.99808  0.74685  Biso   1.000  Cu
  Cu4      1.0000 0.99322  0.49808  0.75315  Biso   1.000  Cu
  P1       1.0000 0.16368  0.76053  0.20272  Biso   1.000  P
  P2       1.0000 0.83632  0.26053  0.29728  Biso   1.000  P
  P3       1.0000 0.83632  0.23947  0.79728  Biso   1.000  P
  P4       1.0000 0.16368  0.73947  0.70272  Biso   1.000  P
  P5       1.0000 0.89700  0.75147  0.13034  Biso   1.000  P
  P6       1.0000 0.10300  0.25147  0.36966  Biso   1.000  P
  P7       1.0000 0.10300  0.24853  0.86966  Biso   1.000  P
  P8       1.0000 0.89700  0.74853  0.63034  Biso   1.000  P
  O1       1.0000 0.14111  0.88383  0.25288  Biso   1.000  O
  O2       1.0000 0.85889  0.38383  0.24712  Biso   1.000  O
  O3       1.0000 0.85889  0.11617  0.74712  Biso   1.000  O
  O4       1.0000 0.14111  0.61617  0.75288  Biso   1.000  O
  O5       1.0000 0.15376  0.60746  0.23155  Biso   1.000  O
  O6       1.0000 0.84624  0.10746  0.26845  Biso   1.000  O
  O7       1.0000 0.84624  0.39254  0.76845  Biso   1.000  O
  O8       1.0000 0.15376  0.89254  0.73155  Biso   1.000  O
  O9       1.0000 0.87845  0.86642  0.18607  Biso   1.000  O
  O10      1.0000 0.12155  0.36642  0.31393  Biso   1.000  O
  O11      1.0000 0.12155  0.13358  0.81393  Biso   1.000  O
  O12      1.0000 0.87845  0.63358  0.68607  Biso   1.000  O
  O13      1.0000 0.89298  0.59442  0.15587  Biso   1.000  O
  O14      1.0000 0.10702  0.09442  0.34413  Biso   1.000  O
  O15      1.0000 0.10702  0.40558  0.84413  Biso   1.000  O
  O16      1.0000 0.89298  0.90558  0.65587  Biso   1.000  O
  O17      1.0000 0.01278  0.14001  0.15528  Biso   1.000  O
  O18      1.0000 0.98722  0.64001  0.34472  Biso   1.000  O
  O19      1.0000 0.98722  0.85999  0.84472  Biso   1.000  O
  O20      1.0000 0.01278  0.35999  0.65528  Biso   1.000  O
  C1       1.0000 0.13018  0.19813  0.14772  Biso   1.000  C
  C2       1.0000 0.86982  0.69813  0.35228  Biso   1.000  C
  C3       1.0000 0.86982  0.80187  0.85228  Biso   1.000  C
  C4       1.0000 0.13018  0.30187  0.64772  Biso   1.000  C
  C5       1.0000 0.05007  0.78002  0.11095  Biso   1.000  C
  C6       1.0000 0.94993  0.28002  0.38905  Biso   1.000  C
  C7       1.0000 0.94993  0.21998  0.88905  Biso   1.000  C
  C8       1.0000 0.05007  0.71998  0.61095  Biso   1.000  C
  C9       1.0000 0.32029  0.78200  0.18967  Biso   1.000  C
  C10      1.0000 0.67971  0.28200  0.31033  Biso   1.000  C
  C11      1.0000 0.67971  0.21800  0.81033  Biso   1.000  C
  C12      1.0000 0.32029  0.71800  0.68967  Biso   1.000  C
  C13      1.0000 0.36283  0.69201  0.13892  Biso   1.000  C
  C14      1.0000 0.63717  0.19201  0.36108  Biso   1.000  C
  C15      1.0000 0.63717  0.30799  0.86108  Biso   1.000  C
  C16      1.0000 0.36283  0.80799  0.63892  Biso   1.000  C
  C17      1.0000 0.48655  0.70321  0.13214  Biso   1.000  C
  C18      1.0000 0.51345  0.20321  0.36786  Biso   1.000  C
  C19      1.0000 0.51345  0.29679  0.86786  Biso   1.000  C
  C20      1.0000 0.48655  0.79679  0.63214  Biso   1.000  C
  C21      1.0000 0.56872  0.80405  0.17644  Biso   1.000  C
  C22      1.0000 0.43128  0.30405  0.32356  Biso   1.000  C
  C23      1.0000 0.43128  0.19595  0.82356  Biso   1.000  C
  C24      1.0000 0.56872  0.69595  0.67644  Biso   1.000  C
  C25      1.0000 0.52621  0.89530  0.22586  Biso   1.000  C
  C26      1.0000 0.47379  0.39530  0.27414  Biso   1.000  C
  C27      1.0000 0.47379  0.10470  0.77414  Biso   1.000  C
  C28      1.0000 0.52621  0.60470  0.72586  Biso   1.000  C
  C29      1.0000 0.40206  0.88501  0.23248  Biso   1.000  C
  C30      1.0000 0.59794  0.38501  0.26752  Biso   1.000  C
  C31      1.0000 0.59794  0.11499  0.76752  Biso   1.000  C
  C32      1.0000 0.40206  0.61499  0.73248  Biso   1.000  C
  C33      1.0000 0.77536  0.77592  0.04375  Biso   1.000  C
  C34      1.0000 0.22464  0.27592  0.45625  Biso   1.000  C
  C35      1.0000 0.22464  0.22408  0.95625  Biso   1.000  C
  C36      1.0000 0.77536  0.72408  0.54375  Biso   1.000  C
  C37      1.0000 0.72439  0.65989  0.99634  Biso   1.000  C
  C38      1.0000 0.27561  0.15989  0.50366  Biso   1.000  C
  C39      1.0000 0.27561  0.34011  0.00366  Biso   1.000  C
  C40      1.0000 0.72439  0.84011  0.49634  Biso   1.000  C
  C41      1.0000 0.62813  0.68460  0.93051  Biso   1.000  C
  C42      1.0000 0.37187  0.18460  0.56949  Biso   1.000  C
  C43      1.0000 0.37187  0.31540  0.06949  Biso   1.000  C
  C44      1.0000 0.62813  0.81540  0.43051  Biso   1.000  C
  C45      1.0000 0.58395  0.82424  0.91132  Biso   1.000  C
  C46      1.0000 0.41605  0.32424  0.58868  Biso   1.000  C
  C47      1.0000 0.41605  0.17576  0.08868  Biso   1.000  C
  C48      1.0000 0.58395  0.67576  0.41132  Biso   1.000  C
  C49      1.0000 0.63484  0.94021  0.95800  Biso   1.000  C
  C50      1.0000 0.36516  0.44021  0.54200  Biso   1.000  C
  C51      1.0000 0.36516  0.05979  0.04200  Biso   1.000  C
  C52      1.0000 0.63484  0.55979  0.45800  Biso   1.000  C
  C53      1.0000 0.73009  0.91624  0.02422  Biso   1.000  C
  C54      1.0000 0.26991  0.41624  0.47578  Biso   1.000  C
  C55      1.0000 0.26991  0.08376  0.97578  Biso   1.000  C
  C56      1.0000 0.73009  0.58376  0.52422  Biso   1.000  C
  H1       1.0000 0.05560  0.87410  0.09210  Biso   1.000  H
  H2       1.0000 0.94440  0.37410  0.40790  Biso   1.000  H
  H3       1.0000 0.94440  0.12590  0.90790  Biso   1.000  H
  H4       1.0000 0.05560  0.62590  0.59210  Biso   1.000  H
  H5       1.0000 0.06310  0.70780  0.07160  Biso   1.000  H
  H6       1.0000 0.93690  0.20780  0.42840  Biso   1.000  H
  H7       1.0000 0.93690  0.29220  0.92840  Biso   1.000  H
  H8       1.0000 0.06310  0.79220  0.57160  Biso   1.000  H
  H9       1.0000 0.30890  0.62250  0.10850  Biso   1.000  H
  H10      1.0000 0.69110  0.12250  0.39150  Biso   1.000  H
  H11      1.0000 0.69110  0.37750  0.89150  Biso   1.000  H
  H12      1.0000 0.30890  0.87750  0.60850  Biso   1.000  H
  H13      1.0000 0.51470  0.64710  0.09620  Biso   1.000  H
  H14      1.0000 0.48530  0.14710  0.40380  Biso   1.000  H
  H15      1.0000 0.48530  0.35290  0.90380  Biso   1.000  H
  H16      1.0000 0.51470  0.85290  0.59620  Biso   1.000  H
  H17      1.0000 0.65100  0.81630  0.17130  Biso   1.000  H
  H18      1.0000 0.34900  0.31630  0.32870  Biso   1.000  H
  H19      1.0000 0.34900  0.18370  0.82870  Biso   1.000  H
  H20      1.0000 0.65100  0.68370  0.67130  Biso   1.000  H
  H21      1.0000 0.58080  0.96550  0.25570  Biso   1.000  H
  H22      1.0000 0.41920  0.46550  0.24430  Biso   1.000  H
  H23      1.0000 0.41920  0.03450  0.74430  Biso   1.000  H
  H24      1.0000 0.58080  0.53450  0.75570  Biso   1.000  H
  H25      1.0000 0.37350  0.94860  0.26740  Biso   1.000  H
  H26      1.0000 0.62650  0.44860  0.23260  Biso   1.000  H
  H27      1.0000 0.62650  0.05140  0.73260  Biso   1.000  H
  H28      1.0000 0.37350  0.55140  0.76740  Biso   1.000  H
  H29      1.0000 0.75800  0.56130  0.00850  Biso   1.000  H
  H30      1.0000 0.24200  0.06130  0.49150  Biso   1.000  H
  H31      1.0000 0.24200  0.43870  0.99150  Biso   1.000  H
  H32      1.0000 0.75800  0.93870  0.50850  Biso   1.000  H
  H33      1.0000 0.59110  0.60330  0.89440  Biso   1.000  H
  H34      1.0000 0.40890  0.10330  0.60560  Biso   1.000  H
  H35      1.0000 0.40890  0.39670  0.10560  Biso   1.000  H
  H36      1.0000 0.59110  0.89670  0.39440  Biso   1.000  H
  H37      1.0000 0.51830  0.84690  0.86760  Biso   1.000  H
  H38      1.0000 0.48170  0.34690  0.63240  Biso   1.000  H
  H39      1.0000 0.48170  0.15310  0.13240  Biso   1.000  H
  H40      1.0000 0.51830  0.65310  0.36760  Biso   1.000  H
  H41      1.0000 0.60410  0.02980  0.94660  Biso   1.000  H
  H42      1.0000 0.39590  0.52980  0.55340  Biso   1.000  H
  H43      1.0000 0.39590  0.97020  0.05340  Biso   1.000  H
  H44      1.0000 0.60410  0.47020  0.44660  Biso   1.000  H
  H45      1.0000 0.76340  0.99170  0.05580  Biso   1.000  H
  H46      1.0000 0.23660  0.49170  0.44420  Biso   1.000  H
  H47      1.0000 0.23660  0.00830  0.94420  Biso   1.000  H
  H48      1.0000 0.76340  0.50830  0.55580  Biso   1.000  H
  H49      1.0000 0.95250  0.20130  0.13390  Biso   1.000  H
  H50      1.0000 0.04750  0.70130  0.36610  Biso   1.000  H
  H51      1.0000 0.04750  0.79870  0.86610  Biso   1.000  H
  H52      1.0000 0.95250  0.29870  0.63390  Biso   1.000  H
  H53      1.0000 0.13210  0.20300  0.09730  Biso   1.000  H
  H54      1.0000 0.86790  0.70300  0.40270  Biso   1.000  H
  H55      1.0000 0.86790  0.79700  0.90270  Biso   1.000  H
  H56      1.0000 0.13210  0.29700  0.59730  Biso   1.000  H
  H57      1.0000 0.19510  0.15600  0.17810  Biso   1.000  H
  H58      1.0000 0.80490  0.65600  0.32190  Biso   1.000  H
  H59      1.0000 0.80490  0.84400  0.82190  Biso   1.000  H
  H60      1.0000 0.19510  0.34400  0.67810  Biso   1.000  H
  H61      1.0000 0.14910  0.29170  0.16640  Biso   1.000  H
  H62      1.0000 0.85090  0.79170  0.33360  Biso   1.000  H
  H63      1.0000 0.85090  0.70830  0.83360  Biso   1.000  H
  H64      1.0000 0.14910  0.20830  0.66640  Biso   1.000  H
  O21      1.0000 0.16868  0.66690  0.92344  Biso   1.000  O
  O22      1.0000 0.83132  0.16690  0.57656  Biso   1.000  O
  O23      1.0000 0.83132  0.33310  0.07656  Biso   1.000  O
  O24      1.0000 0.16868  0.83310  0.42344  Biso   1.000  O
  C57      1.0000 0.29403  0.70628  0.92103  Biso   1.000  C
  C58      1.0000 0.70597  0.20628  0.57897  Biso   1.000  C
  C59      1.0000 0.70597  0.29372  0.07897  Biso   1.000  C
  C60      1.0000 0.29403  0.79372  0.42103  Biso   1.000  C
  H65      1.0000 0.33170  0.75760  0.96810  Biso   1.000  H
  H66      1.0000 0.66830  0.25760  0.53190  Biso   1.000  H
  H67      1.0000 0.66830  0.24240  0.03190  Biso   1.000  H
  H68      1.0000 0.33170  0.74240  0.46810  Biso   1.000  H
  H69      1.0000 0.29740  0.77100  0.88040  Biso   1.000  H
  H70      1.0000 0.70260  0.27100  0.61960  Biso   1.000  H
  H71      1.0000 0.70260  0.22900  0.11960  Biso   1.000  H
  H72      1.0000 0.29740  0.72900  0.38040  Biso   1.000  H
  H73      1.0000 0.15110  0.59230  0.89540  Biso   1.000  H
  H74      1.0000 0.84890  0.09230  0.60460  Biso   1.000  H
  H75      1.0000 0.84890  0.40770  0.10460  Biso   1.000  H
  H76      1.0000 0.15110  0.90770  0.39540  Biso   1.000  H
  H77      1.0000 0.34810  0.62530  0.91810  Biso   1.000  H
  H78      1.0000 0.65190  0.12530  0.58190  Biso   1.000  H
  H79      1.0000 0.65190  0.37470  0.08190  Biso   1.000  H
  H80      1.0000 0.34810  0.87470  0.41810  Biso   1.000  H
