data_image0
_cell_length_a       11.244
_cell_length_b       7.4944
_cell_length_c       12.4931
_cell_angle_alpha    90
_cell_angle_beta     89.091
_cell_angle_gamma    90

_symmetry_space_group_name_H-M    "P 1"
_symmetry_int_tables_number       1

loop_
  _symmetry_equiv_pos_as_xyz
  'x, y, z'

loop_
  _atom_site_label
  _atom_site_occupancy
  _atom_site_fract_x
  _atom_site_fract_y
  _atom_site_fract_z
  _atom_site_thermal_displace_type
  _atom_site_B_iso_or_equiv
  _atom_site_type_symbol
  Cu1      1.0000 0.00887  0.41221  0.62144  Biso   1.000  Cu
  Cu2      1.0000 0.00887  0.08779  0.12144  Biso   1.000  Cu
  Cu3      1.0000 0.99113  0.58779  0.37856  Biso   1.000  Cu
  Cu4      1.0000 0.99113  0.91221  0.87856  Biso   1.000  Cu
  O1       1.0000 0.12530  0.49030  0.51830  Biso   1.000  O
  O2       1.0000 0.12530  0.00970  0.01830  Biso   1.000  O
  O3       1.0000 0.87470  0.50970  0.48170  Biso   1.000  O
  O4       1.0000 0.87470  0.99030  0.98170  Biso   1.000  O
  O5       1.0000 0.02060  0.63720  0.69750  Biso   1.000  O
  O6       1.0000 0.02060  0.86280  0.19750  Biso   1.000  O
  O7       1.0000 0.97940  0.36280  0.30250  Biso   1.000  O
  O8       1.0000 0.97940  0.13720  0.80250  Biso   1.000  O
  O9       1.0000 0.11860  0.85440  0.77560  Biso   1.000  O
  O10      1.0000 0.11860  0.64560  0.27560  Biso   1.000  O
  O11      1.0000 0.88140  0.14560  0.22440  Biso   1.000  O
  O12      1.0000 0.88140  0.35440  0.72440  Biso   1.000  O
  O13      1.0000 0.19130  0.29980  0.73220  Biso   1.000  O
  O14      1.0000 0.19130  0.20020  0.23220  Biso   1.000  O
  O15      1.0000 0.80870  0.70020  0.26780  Biso   1.000  O
  O16      1.0000 0.80870  0.79980  0.76780  Biso   1.000  O
  N1       1.0000 0.00330  0.16460  0.55210  Biso   1.000  N
  N2       1.0000 0.00330  0.33540  0.05210  Biso   1.000  N
  N3       1.0000 0.99670  0.83540  0.44790  Biso   1.000  N
  N4       1.0000 0.99670  0.66460  0.94790  Biso   1.000  N
  C1       1.0000 0.21510  0.59320  0.54280  Biso   1.000  C
  C2       1.0000 0.21510  0.90680  0.04280  Biso   1.000  C
  C3       1.0000 0.78490  0.40680  0.45720  Biso   1.000  C
  C4       1.0000 0.78490  0.09320  0.95720  Biso   1.000  C
  C5       1.0000 0.31550  0.59500  0.47410  Biso   1.000  C
  C6       1.0000 0.31550  0.90500  0.97410  Biso   1.000  C
  C7       1.0000 0.68450  0.40500  0.52590  Biso   1.000  C
  C8       1.0000 0.68450  0.09500  0.02590  Biso   1.000  C
  C9       1.0000 0.41260  0.70010  0.49250  Biso   1.000  C
  C10      1.0000 0.41260  0.79990  0.99250  Biso   1.000  C
  C11      1.0000 0.58740  0.29990  0.50750  Biso   1.000  C
  C12      1.0000 0.58740  0.20010  0.00750  Biso   1.000  C
  C13      1.0000 0.41410  0.81150  0.58110  Biso   1.000  C
  C14      1.0000 0.41410  0.68850  0.08110  Biso   1.000  C
  C15      1.0000 0.58590  0.18850  0.41890  Biso   1.000  C
  C16      1.0000 0.58590  0.31150  0.91890  Biso   1.000  C
  C17      1.0000 0.31770  0.81450  0.65010  Biso   1.000  C
  C18      1.0000 0.31770  0.68550  0.15010  Biso   1.000  C
  C19      1.0000 0.68230  0.18550  0.34990  Biso   1.000  C
  C20      1.0000 0.68230  0.31450  0.84990  Biso   1.000  C
  C21      1.0000 0.21650  0.71070  0.63200  Biso   1.000  C
  C22      1.0000 0.21650  0.78930  0.13200  Biso   1.000  C
  C23      1.0000 0.78350  0.28930  0.36800  Biso   1.000  C
  C24      1.0000 0.78350  0.21070  0.86800  Biso   1.000  C
  C25      1.0000 0.11290  0.73350  0.70560  Biso   1.000  C
  C26      1.0000 0.11290  0.76650  0.20560  Biso   1.000  C
  C27      1.0000 0.88710  0.26650  0.29440  Biso   1.000  C
  C28      1.0000 0.88710  0.23350  0.79440  Biso   1.000  C
  C29      1.0000 0.09630  0.10330  0.49410  Biso   1.000  C
  C30      1.0000 0.09630  0.39670  0.99410  Biso   1.000  C
  C31      1.0000 0.90370  0.89670  0.50590  Biso   1.000  C
  C32      1.0000 0.90370  0.60330  0.00590  Biso   1.000  C
  C33      1.0000 0.90750  0.05950  0.55690  Biso   1.000  C
  C34      1.0000 0.90750  0.44050  0.05690  Biso   1.000  C
  C35      1.0000 0.09250  0.94050  0.44310  Biso   1.000  C
  C36      1.0000 0.09250  0.55950  0.94310  Biso   1.000  C
  C37      1.0000 0.30920  0.29450  0.73850  Biso   1.000  C
  C38      1.0000 0.30920  0.20550  0.23850  Biso   1.000  C
  C39      1.0000 0.69080  0.70550  0.26150  Biso   1.000  C
  C40      1.0000 0.69080  0.79450  0.76150  Biso   1.000  C
  H1       1.0000 0.31180  0.51730  0.42500  Biso   1.000  H
  H2       1.0000 0.31180  0.98270  0.92500  Biso   1.000  H
  H3       1.0000 0.68820  0.48270  0.57500  Biso   1.000  H
  H4       1.0000 0.68820  0.01730  0.07500  Biso   1.000  H
  H5       1.0000 0.48770  0.69580  0.44280  Biso   1.000  H
  H6       1.0000 0.48770  0.80420  0.94280  Biso   1.000  H
  H7       1.0000 0.51230  0.30420  0.55720  Biso   1.000  H
  H8       1.0000 0.51230  0.19580  0.05720  Biso   1.000  H
  H9       1.0000 0.48280  0.87540  0.60000  Biso   1.000  H
  H10      1.0000 0.48280  0.62460  0.10000  Biso   1.000  H
  H11      1.0000 0.51720  0.12460  0.40000  Biso   1.000  H
  H12      1.0000 0.51720  0.37540  0.90000  Biso   1.000  H
  H13      1.0000 0.31750  0.88360  0.72360  Biso   1.000  H
  H14      1.0000 0.31750  0.61640  0.22360  Biso   1.000  H
  H15      1.0000 0.68250  0.11640  0.27640  Biso   1.000  H
  H16      1.0000 0.68250  0.38360  0.77640  Biso   1.000  H
  H17      1.0000 0.16010  0.18020  0.48440  Biso   1.000  H
  H18      1.0000 0.16010  0.31980  0.98440  Biso   1.000  H
  H19      1.0000 0.83990  0.81980  0.51560  Biso   1.000  H
  H20      1.0000 0.83990  0.68020  0.01560  Biso   1.000  H
  H21      1.0000 0.84390  0.09850  0.59320  Biso   1.000  H
  H22      1.0000 0.84390  0.40150  0.09320  Biso   1.000  H
  H23      1.0000 0.15610  0.90150  0.40680  Biso   1.000  H
  H24      1.0000 0.15610  0.59850  0.90680  Biso   1.000  H
  H25      1.0000 0.17350  0.23440  0.74420  Biso   1.000  H
  H26      1.0000 0.17350  0.26560  0.24420  Biso   1.000  H
  H27      1.0000 0.82650  0.76560  0.25580  Biso   1.000  H
  H28      1.0000 0.82650  0.73440  0.75580  Biso   1.000  H
  H29      1.0000 0.33530  0.18420  0.70320  Biso   1.000  H
  H30      1.0000 0.33530  0.31580  0.20320  Biso   1.000  H
  H31      1.0000 0.66470  0.81580  0.29680  Biso   1.000  H
  H32      1.0000 0.66470  0.68420  0.79680  Biso   1.000  H
  H33      1.0000 0.33280  0.29420  0.80840  Biso   1.000  H
  H34      1.0000 0.33280  0.20580  0.30840  Biso   1.000  H
  H35      1.0000 0.66720  0.70580  0.19160  Biso   1.000  H
  H36      1.0000 0.66720  0.79420  0.69160  Biso   1.000  H
  H37      1.0000 0.34170  0.39080  0.69870  Biso   1.000  H
  H38      1.0000 0.34170  0.10920  0.19870  Biso   1.000  H
  H39      1.0000 0.65830  0.60920  0.30130  Biso   1.000  H
  H40      1.0000 0.65830  0.89080  0.80130  Biso   1.000  H
