data_image0
_cell_length_a       6.9707
_cell_length_b       12.2828
_cell_length_c       16.3843
_cell_angle_alpha    90
_cell_angle_beta     90
_cell_angle_gamma    90

_symmetry_space_group_name_H-M    "P 1"
_symmetry_int_tables_number       1

loop_
  _symmetry_equiv_pos_as_xyz
  'x, y, z'

loop_
  _atom_site_label
  _atom_site_occupancy
  _atom_site_fract_x
  _atom_site_fract_y
  _atom_site_fract_z
  _atom_site_thermal_displace_type
  _atom_site_B_iso_or_equiv
  _atom_site_type_symbol
  Cl1      1.0000 0.16806  0.06772  0.01004  Biso   1.000  Cl
  Cl2      1.0000 0.83194  0.93228  0.51004  Biso   1.000  Cl
  Cl3      1.0000 0.33194  0.06772  0.51004  Biso   1.000  Cl
  Cl4      1.0000 0.66806  0.93228  0.01004  Biso   1.000  Cl
  C1       1.0000 0.07490  0.96760  0.81813  Biso   1.000  C
  C2       1.0000 0.92510  0.03240  0.31813  Biso   1.000  C
  C3       1.0000 0.42510  0.96760  0.31813  Biso   1.000  C
  C4       1.0000 0.57490  0.03240  0.81813  Biso   1.000  C
  H1       1.0000 0.11590  0.03580  0.83560  Biso   1.000  H
  H2       1.0000 0.88410  0.96420  0.33560  Biso   1.000  H
  H3       1.0000 0.38410  0.03580  0.33560  Biso   1.000  H
  H4       1.0000 0.61590  0.96420  0.83560  Biso   1.000  H
  C5       1.0000 0.04340  0.95160  0.73557  Biso   1.000  C
  C6       1.0000 0.95660  0.04840  0.23557  Biso   1.000  C
  C7       1.0000 0.45660  0.95160  0.23557  Biso   1.000  C
  C8       1.0000 0.54340  0.04840  0.73557  Biso   1.000  C
  H5       1.0000 0.06270  0.00780  0.69850  Biso   1.000  H
  H6       1.0000 0.93730  0.99220  0.19850  Biso   1.000  H
  H7       1.0000 0.43730  0.00780  0.19850  Biso   1.000  H
  H8       1.0000 0.56270  0.99220  0.69850  Biso   1.000  H
  C9       1.0000 0.98280  0.85060  0.70950  Biso   1.000  C
  C10      1.0000 0.01720  0.14940  0.20950  Biso   1.000  C
  C11      1.0000 0.51720  0.85060  0.20950  Biso   1.000  C
  C12      1.0000 0.48280  0.14940  0.70950  Biso   1.000  C
  H9       1.0000 0.96010  0.83800  0.65440  Biso   1.000  H
  H10      1.0000 0.03990  0.16200  0.15440  Biso   1.000  H
  H11      1.0000 0.53990  0.83800  0.15440  Biso   1.000  H
  H12      1.0000 0.46010  0.16200  0.65440  Biso   1.000  H
  C13      1.0000 0.95580  0.76770  0.76609  Biso   1.000  C
  C14      1.0000 0.04420  0.23230  0.26609  Biso   1.000  C
  C15      1.0000 0.54420  0.76770  0.26609  Biso   1.000  C
  C16      1.0000 0.45580  0.23230  0.76609  Biso   1.000  C
  H13      1.0000 0.91500  0.69910  0.74950  Biso   1.000  H
  H14      1.0000 0.08500  0.30090  0.24950  Biso   1.000  H
  H15      1.0000 0.58500  0.69910  0.24950  Biso   1.000  H
  H16      1.0000 0.41500  0.30090  0.74950  Biso   1.000  H
  C17      1.0000 0.99100  0.78940  0.84802  Biso   1.000  C
  C18      1.0000 0.00900  0.21060  0.34802  Biso   1.000  C
  C19      1.0000 0.50900  0.78940  0.34802  Biso   1.000  C
  C20      1.0000 0.49100  0.21060  0.84802  Biso   1.000  C
  C21      1.0000 0.97100  0.70940  0.91264  Biso   1.000  C
  C22      1.0000 0.02900  0.29060  0.41264  Biso   1.000  C
  C23      1.0000 0.52900  0.70940  0.41264  Biso   1.000  C
  C24      1.0000 0.47100  0.29060  0.91264  Biso   1.000  C
  H17      1.0000 0.93690  0.63760  0.90230  Biso   1.000  H
  H18      1.0000 0.06310  0.36240  0.40230  Biso   1.000  H
  H19      1.0000 0.56310  0.63760  0.40230  Biso   1.000  H
  H20      1.0000 0.43690  0.36240  0.90230  Biso   1.000  H
  C25      1.0000 0.02700  0.74460  0.11698  Biso   1.000  C
  C26      1.0000 0.97300  0.25540  0.61698  Biso   1.000  C
  C27      1.0000 0.47300  0.74460  0.61698  Biso   1.000  C
  C28      1.0000 0.52700  0.25540  0.11698  Biso   1.000  C
  C29      1.0000 0.00720  0.69310  0.19800  Biso   1.000  C
  C30      1.0000 0.99280  0.30690  0.69800  Biso   1.000  C
  C31      1.0000 0.49280  0.69310  0.69800  Biso   1.000  C
  C32      1.0000 0.50720  0.30690  0.19800  Biso   1.000  C
  C33      1.0000 0.93060  0.58810  0.20701  Biso   1.000  C
  C34      1.0000 0.06940  0.41190  0.70701  Biso   1.000  C
  C35      1.0000 0.56940  0.58810  0.70701  Biso   1.000  C
  C36      1.0000 0.43060  0.41190  0.20701  Biso   1.000  C
  H21      1.0000 0.89650  0.54830  0.16100  Biso   1.000  H
  H22      1.0000 0.10350  0.45170  0.66100  Biso   1.000  H
  H23      1.0000 0.60350  0.54830  0.66100  Biso   1.000  H
  H24      1.0000 0.39650  0.45170  0.16100  Biso   1.000  H
  C37      1.0000 0.90550  0.54340  0.28352  Biso   1.000  C
  C38      1.0000 0.09450  0.45660  0.78352  Biso   1.000  C
  C39      1.0000 0.59450  0.54340  0.78352  Biso   1.000  C
  C40      1.0000 0.40550  0.45660  0.28352  Biso   1.000  C
  H25      1.0000 0.85440  0.47380  0.28870  Biso   1.000  H
  H26      1.0000 0.14560  0.52620  0.78870  Biso   1.000  H
  H27      1.0000 0.64560  0.47380  0.78870  Biso   1.000  H
  H28      1.0000 0.35440  0.52620  0.28870  Biso   1.000  H
  C41      1.0000 0.95630  0.60210  0.35330  Biso   1.000  C
  C42      1.0000 0.04370  0.39790  0.85330  Biso   1.000  C
  C43      1.0000 0.54370  0.60210  0.85330  Biso   1.000  C
  C44      1.0000 0.45630  0.39790  0.35330  Biso   1.000  C
  C45      1.0000 0.03060  0.70680  0.34535  Biso   1.000  C
  C46      1.0000 0.96940  0.29320  0.84535  Biso   1.000  C
  C47      1.0000 0.46940  0.70680  0.84535  Biso   1.000  C
  C48      1.0000 0.53060  0.29320  0.34535  Biso   1.000  C
  H29      1.0000 0.06390  0.74680  0.39140  Biso   1.000  H
  H30      1.0000 0.93610  0.25320  0.89140  Biso   1.000  H
  H31      1.0000 0.43610  0.74680  0.89140  Biso   1.000  H
  H32      1.0000 0.56390  0.25320  0.39140  Biso   1.000  H
  C49      1.0000 0.05460  0.75110  0.26798  Biso   1.000  C
  C50      1.0000 0.94540  0.24890  0.76798  Biso   1.000  C
  C51      1.0000 0.44540  0.75110  0.76798  Biso   1.000  C
  C52      1.0000 0.55460  0.24890  0.26798  Biso   1.000  C
  H33      1.0000 0.10350  0.82120  0.26290  Biso   1.000  H
  H34      1.0000 0.89650  0.17880  0.76290  Biso   1.000  H
  H35      1.0000 0.39650  0.82120  0.76290  Biso   1.000  H
  H36      1.0000 0.60350  0.17880  0.26290  Biso   1.000  H
  C53      1.0000 0.98580  0.60140  0.49940  Biso   1.000  C
  C54      1.0000 0.01420  0.39860  0.99940  Biso   1.000  C
  C55      1.0000 0.51420  0.60140  0.99940  Biso   1.000  C
  C56      1.0000 0.48580  0.39860  0.49940  Biso   1.000  C
  H37      1.0000 0.95290  0.55600  0.54490  Biso   1.000  H
  H38      1.0000 0.04710  0.44400  0.04490  Biso   1.000  H
  H39      1.0000 0.54710  0.55600  0.04490  Biso   1.000  H
  H40      1.0000 0.45290  0.44400  0.54490  Biso   1.000  H
  H41      1.0000 0.92390  0.67080  0.50510  Biso   1.000  H
  H42      1.0000 0.07610  0.32920  0.00510  Biso   1.000  H
  H43      1.0000 0.57610  0.67080  0.00510  Biso   1.000  H
  H44      1.0000 0.42390  0.32920  0.50510  Biso   1.000  H
  H45      1.0000 0.12230  0.61160  0.49780  Biso   1.000  H
  H46      1.0000 0.87770  0.38840  0.99780  Biso   1.000  H
  H47      1.0000 0.37770  0.61160  0.99780  Biso   1.000  H
  H48      1.0000 0.62230  0.38840  0.49780  Biso   1.000  H
  N1       1.0000 0.04880  0.88933  0.87393  Biso   1.000  N
  N2       1.0000 0.95120  0.11067  0.37393  Biso   1.000  N
  N3       1.0000 0.45120  0.88933  0.37393  Biso   1.000  N
  N4       1.0000 0.54880  0.11067  0.87393  Biso   1.000  N
  N5       1.0000 0.00340  0.74436  0.98449  Biso   1.000  N
  N6       1.0000 0.99660  0.25564  0.48449  Biso   1.000  N
  N7       1.0000 0.49660  0.74436  0.48449  Biso   1.000  N
  N8       1.0000 0.50340  0.25564  0.98449  Biso   1.000  N
  N9       1.0000 0.98820  0.68169  0.05281  Biso   1.000  N
  N10      1.0000 0.01180  0.31831  0.55281  Biso   1.000  N
  N11      1.0000 0.51180  0.68169  0.55281  Biso   1.000  N
  N12      1.0000 0.48820  0.31831  0.05281  Biso   1.000  N
  O1       1.0000 0.07790  0.84488  0.11275  Biso   1.000  O
  O2       1.0000 0.92210  0.15512  0.61275  Biso   1.000  O
  O3       1.0000 0.42210  0.84488  0.61275  Biso   1.000  O
  O4       1.0000 0.57790  0.15512  0.11275  Biso   1.000  O
  O5       1.0000 0.92370  0.55070  0.42541  Biso   1.000  O
  O6       1.0000 0.07630  0.44930  0.92541  Biso   1.000  O
  O7       1.0000 0.57630  0.55070  0.92541  Biso   1.000  O
  O8       1.0000 0.42370  0.44930  0.42541  Biso   1.000  O
  Cu1      1.0000 0.06203  0.89782  0.99820  Biso   1.000  Cu
  Cu2      1.0000 0.93797  0.10218  0.49820  Biso   1.000  Cu
  Cu3      1.0000 0.43797  0.89782  0.49820  Biso   1.000  Cu
  Cu4      1.0000 0.56203  0.10218  0.99820  Biso   1.000  Cu
