data_image0
_cell_length_a       6.9561
_cell_length_b       12.2621
_cell_length_c       16.355
_cell_angle_alpha    90
_cell_angle_beta     90
_cell_angle_gamma    90

_symmetry_space_group_name_H-M    "P 1"
_symmetry_int_tables_number       1

loop_
  _symmetry_equiv_pos_as_xyz
  'x, y, z'

loop_
  _atom_site_label
  _atom_site_occupancy
  _atom_site_fract_x
  _atom_site_fract_y
  _atom_site_fract_z
  _atom_site_thermal_displace_type
  _atom_site_B_iso_or_equiv
  _atom_site_type_symbol
  Cu1      1.0000 0.43828  0.89783  0.33119  Biso   1.000  Cu
  Cu2      1.0000 0.56172  0.10217  0.83119  Biso   1.000  Cu
  Cu3      1.0000 0.93828  0.10217  0.33119  Biso   1.000  Cu
  Cu4      1.0000 0.06172  0.89783  0.83119  Biso   1.000  Cu
  Cl1      1.0000 0.33271  0.06781  0.31979  Biso   1.000  Cl
  Cl2      1.0000 0.66729  0.93219  0.81979  Biso   1.000  Cl
  Cl3      1.0000 0.83271  0.93219  0.31979  Biso   1.000  Cl
  Cl4      1.0000 0.16729  0.06781  0.81979  Biso   1.000  Cl
  N1       1.0000 0.45210  0.88980  0.45590  Biso   1.000  N
  N2       1.0000 0.54790  0.11020  0.95590  Biso   1.000  N
  N3       1.0000 0.95210  0.11020  0.45590  Biso   1.000  N
  N4       1.0000 0.04790  0.88980  0.95590  Biso   1.000  N
  N5       1.0000 0.49560  0.74470  0.34500  Biso   1.000  N
  N6       1.0000 0.50440  0.25530  0.84500  Biso   1.000  N
  N7       1.0000 0.99560  0.25530  0.34500  Biso   1.000  N
  N8       1.0000 0.00440  0.74470  0.84500  Biso   1.000  N
  O1       1.0000 0.57630  0.55050  0.90456  Biso   1.000  O
  O2       1.0000 0.42370  0.44950  0.40456  Biso   1.000  O
  O3       1.0000 0.07630  0.44950  0.90456  Biso   1.000  O
  O4       1.0000 0.92370  0.55050  0.40456  Biso   1.000  O
  N9       1.0000 0.51090  0.68170  0.27730  Biso   1.000  N
  N10      1.0000 0.48910  0.31830  0.77730  Biso   1.000  N
  N11      1.0000 0.01090  0.31830  0.27730  Biso   1.000  N
  N12      1.0000 0.98910  0.68170  0.77730  Biso   1.000  N
  O5       1.0000 0.42180  0.84480  0.21720  Biso   1.000  O
  O6       1.0000 0.57820  0.15520  0.71720  Biso   1.000  O
  O7       1.0000 0.92180  0.15520  0.21720  Biso   1.000  O
  O8       1.0000 0.07820  0.84480  0.71720  Biso   1.000  O
  C1       1.0000 0.42540  0.96720  0.51200  Biso   1.000  C
  C2       1.0000 0.57460  0.03280  0.01200  Biso   1.000  C
  C3       1.0000 0.92540  0.03280  0.51200  Biso   1.000  C
  C4       1.0000 0.07460  0.96720  0.01200  Biso   1.000  C
  H1       1.0000 0.38310  0.03540  0.49460  Biso   1.000  H
  H2       1.0000 0.61690  0.96460  0.99460  Biso   1.000  H
  H3       1.0000 0.88310  0.96460  0.49460  Biso   1.000  H
  H4       1.0000 0.11690  0.03540  0.99460  Biso   1.000  H
  C5       1.0000 0.45710  0.95160  0.59430  Biso   1.000  C
  C6       1.0000 0.54290  0.04840  0.09430  Biso   1.000  C
  C7       1.0000 0.95710  0.04840  0.59430  Biso   1.000  C
  C8       1.0000 0.04290  0.95160  0.09430  Biso   1.000  C
  H5       1.0000 0.43830  0.00810  0.63140  Biso   1.000  H
  H6       1.0000 0.56170  0.99190  0.13140  Biso   1.000  H
  H7       1.0000 0.93830  0.99190  0.63140  Biso   1.000  H
  H8       1.0000 0.06170  0.00810  0.13140  Biso   1.000  H
  C9       1.0000 0.51720  0.85060  0.62040  Biso   1.000  C
  C10      1.0000 0.48280  0.14940  0.12040  Biso   1.000  C
  C11      1.0000 0.01720  0.14940  0.62040  Biso   1.000  C
  C12      1.0000 0.98280  0.85060  0.12040  Biso   1.000  C
  H9       1.0000 0.54020  0.83820  0.67560  Biso   1.000  H
  H10      1.0000 0.45980  0.16180  0.17560  Biso   1.000  H
  H11      1.0000 0.04020  0.16180  0.67560  Biso   1.000  H
  H12      1.0000 0.95980  0.83820  0.17560  Biso   1.000  H
  C13      1.0000 0.54340  0.76730  0.56400  Biso   1.000  C
  C14      1.0000 0.45660  0.23270  0.06400  Biso   1.000  C
  C15      1.0000 0.04340  0.23270  0.56400  Biso   1.000  C
  C16      1.0000 0.95660  0.76730  0.06400  Biso   1.000  C
  H13      1.0000 0.58290  0.69830  0.58060  Biso   1.000  H
  H14      1.0000 0.41710  0.30170  0.08060  Biso   1.000  H
  H15      1.0000 0.08290  0.30170  0.58060  Biso   1.000  H
  H16      1.0000 0.91710  0.69830  0.08060  Biso   1.000  H
  C17      1.0000 0.50880  0.79000  0.48180  Biso   1.000  C
  C18      1.0000 0.49120  0.21000  0.98180  Biso   1.000  C
  C19      1.0000 0.00880  0.21000  0.48180  Biso   1.000  C
  C20      1.0000 0.99120  0.79000  0.98180  Biso   1.000  C
  C21      1.0000 0.52880  0.70920  0.41710  Biso   1.000  C
  C22      1.0000 0.47120  0.29080  0.91710  Biso   1.000  C
  C23      1.0000 0.02880  0.29080  0.41710  Biso   1.000  C
  C24      1.0000 0.97120  0.70920  0.91710  Biso   1.000  C
  H17      1.0000 0.56320  0.63730  0.42750  Biso   1.000  H
  H18      1.0000 0.43680  0.36270  0.92750  Biso   1.000  H
  H19      1.0000 0.06320  0.36270  0.42750  Biso   1.000  H
  H20      1.0000 0.93680  0.63730  0.92750  Biso   1.000  H
  C25      1.0000 0.47380  0.74480  0.21310  Biso   1.000  C
  C26      1.0000 0.52620  0.25520  0.71310  Biso   1.000  C
  C27      1.0000 0.97380  0.25520  0.21310  Biso   1.000  C
  C28      1.0000 0.02620  0.74480  0.71310  Biso   1.000  C
  C29      1.0000 0.49280  0.69400  0.13170  Biso   1.000  C
  C30      1.0000 0.50720  0.30600  0.63170  Biso   1.000  C
  C31      1.0000 0.99280  0.30600  0.13170  Biso   1.000  C
  C32      1.0000 0.00720  0.69400  0.63170  Biso   1.000  C
  C33      1.0000 0.57100  0.58800  0.12320  Biso   1.000  C
  C34      1.0000 0.42900  0.41200  0.62320  Biso   1.000  C
  C35      1.0000 0.07100  0.41200  0.12320  Biso   1.000  C
  C36      1.0000 0.92900  0.58800  0.62320  Biso   1.000  C
  H21      1.0000 0.60600  0.54840  0.16940  Biso   1.000  H
  H22      1.0000 0.39400  0.45160  0.66940  Biso   1.000  H
  H23      1.0000 0.10600  0.45160  0.16940  Biso   1.000  H
  H24      1.0000 0.89400  0.54840  0.66940  Biso   1.000  H
  C37      1.0000 0.59500  0.54380  0.04710  Biso   1.000  C
  C38      1.0000 0.40500  0.45620  0.54710  Biso   1.000  C
  C39      1.0000 0.09500  0.45620  0.04710  Biso   1.000  C
  C40      1.0000 0.90500  0.54380  0.54710  Biso   1.000  C
  H25      1.0000 0.64590  0.47400  0.04190  Biso   1.000  H
  H26      1.0000 0.35410  0.52600  0.54190  Biso   1.000  H
  H27      1.0000 0.14590  0.52600  0.04190  Biso   1.000  H
  H28      1.0000 0.85410  0.47400  0.54190  Biso   1.000  H
  C41      1.0000 0.54380  0.60250  0.97660  Biso   1.000  C
  C42      1.0000 0.45620  0.39750  0.47660  Biso   1.000  C
  C43      1.0000 0.04380  0.39750  0.97660  Biso   1.000  C
  C44      1.0000 0.95620  0.60250  0.47660  Biso   1.000  C
  C45      1.0000 0.47030  0.70610  0.98420  Biso   1.000  C
  C46      1.0000 0.52970  0.29390  0.48420  Biso   1.000  C
  C47      1.0000 0.97030  0.29390  0.98420  Biso   1.000  C
  C48      1.0000 0.02970  0.70610  0.48420  Biso   1.000  C
  H29      1.0000 0.43770  0.74600  0.93790  Biso   1.000  H
  H30      1.0000 0.56230  0.25400  0.43790  Biso   1.000  H
  H31      1.0000 0.93770  0.25400  0.93790  Biso   1.000  H
  H32      1.0000 0.06230  0.74600  0.43790  Biso   1.000  H
  C49      1.0000 0.44490  0.75090  0.06190  Biso   1.000  C
  C50      1.0000 0.55510  0.24910  0.56190  Biso   1.000  C
  C51      1.0000 0.94490  0.24910  0.06190  Biso   1.000  C
  C52      1.0000 0.05510  0.75090  0.56190  Biso   1.000  C
  H33      1.0000 0.39440  0.82090  0.06670  Biso   1.000  H
  H34      1.0000 0.60560  0.17910  0.56670  Biso   1.000  H
  H35      1.0000 0.89440  0.17910  0.06670  Biso   1.000  H
  H36      1.0000 0.10560  0.82090  0.56670  Biso   1.000  H
  C53      1.0000 0.51300  0.60060  0.83070  Biso   1.000  C
  C54      1.0000 0.48700  0.39940  0.33070  Biso   1.000  C
  C55      1.0000 0.01300  0.39940  0.83070  Biso   1.000  C
  C56      1.0000 0.98700  0.60060  0.33070  Biso   1.000  C
  H37      1.0000 0.37550  0.60740  0.83150  Biso   1.000  H
  H38      1.0000 0.62450  0.39260  0.33150  Biso   1.000  H
  H39      1.0000 0.87550  0.39260  0.83150  Biso   1.000  H
  H40      1.0000 0.12450  0.60740  0.33150  Biso   1.000  H
  H41      1.0000 0.55080  0.55650  0.78490  Biso   1.000  H
  H42      1.0000 0.44920  0.44350  0.28490  Biso   1.000  H
  H43      1.0000 0.05080  0.44350  0.78490  Biso   1.000  H
  H44      1.0000 0.94920  0.55650  0.28490  Biso   1.000  H
  H45      1.0000 0.56990  0.67160  0.82590  Biso   1.000  H
  H46      1.0000 0.43010  0.32840  0.32590  Biso   1.000  H
  H47      1.0000 0.06990  0.32840  0.82590  Biso   1.000  H
  H48      1.0000 0.93010  0.67160  0.32590  Biso   1.000  H
