data_image0
_cell_length_a       11.819
_cell_length_b       18.924
_cell_length_c       20.027
_cell_angle_alpha    109.2
_cell_angle_beta     100.94
_cell_angle_gamma    93.72

_symmetry_space_group_name_H-M    "P 1"
_symmetry_int_tables_number       1

loop_
  _symmetry_equiv_pos_as_xyz
  'x, y, z'

loop_
  _atom_site_label
  _atom_site_occupancy
  _atom_site_fract_x
  _atom_site_fract_y
  _atom_site_fract_z
  _atom_site_thermal_displace_type
  _atom_site_B_iso_or_equiv
  _atom_site_type_symbol
  Mo1      1.0000 0.16267  0.37443  0.27146  Biso   1.000  Mo
  Mo2      1.0000 0.83733  0.62557  0.72854  Biso   1.000  Mo
  Mo3      1.0000 0.72226  0.22003  0.94789  Biso   1.000  Mo
  Mo4      1.0000 0.27774  0.77997  0.05211  Biso   1.000  Mo
  Mo5      1.0000 0.85807  0.40643  0.27445  Biso   1.000  Mo
  Mo6      1.0000 0.14193  0.59357  0.72555  Biso   1.000  Mo
  Mo7      1.0000 0.16859  0.43383  0.12963  Biso   1.000  Mo
  Mo8      1.0000 0.83141  0.56617  0.87037  Biso   1.000  Mo
  Mo9      1.0000 0.22581  0.25566  0.11976  Biso   1.000  Mo
  Mo10     1.0000 0.77419  0.74434  0.88024  Biso   1.000  Mo
  Mo11     1.0000 0.93834  0.21611  0.25178  Biso   1.000  Mo
  Mo12     1.0000 0.06166  0.78389  0.74822  Biso   1.000  Mo
  Mo13     1.0000 0.71326  0.15423  0.10222  Biso   1.000  Mo
  Mo14     1.0000 0.28674  0.84577  0.89778  Biso   1.000  Mo
  Mo15     1.0000 0.00547  0.19117  0.94738  Biso   1.000  Mo
  Mo16     1.0000 0.99453  0.80883  0.05262  Biso   1.000  Mo
  Mo17     1.0000 0.98143  0.10778  0.08924  Biso   1.000  Mo
  Mo18     1.0000 0.01857  0.89222  0.91076  Biso   1.000  Mo
  Mo19     1.0000 0.92529  0.36668  0.96884  Biso   1.000  Mo
  Mo20     1.0000 0.07471  0.63332  0.03116  Biso   1.000  Mo
  Mo21     1.0000 0.65177  0.34760  0.11509  Biso   1.000  Mo
  Mo22     1.0000 0.34823  0.65240  0.88491  Biso   1.000  Mo
  Mo23     1.0000 0.87590  0.48414  0.14603  Biso   1.000  Mo
  Mo24     1.0000 0.12410  0.51586  0.85397  Biso   1.000  Mo
  Cu1      1.0000 0.34408  0.55825  0.56704  Biso   1.000  Cu
  Cu2      1.0000 0.65592  0.44175  0.43296  Biso   1.000  Cu
  Cu3      1.0000 0.76011  0.76983  0.19411  Biso   1.000  Cu
  Cu4      1.0000 0.23989  0.23017  0.80589  Biso   1.000  Cu
  P1       1.0000 0.93540  0.29640  0.11350  Biso   1.000  P
  P2       1.0000 0.06460  0.70360  0.88650  Biso   1.000  P
  Mo25     1.0000 0.77775  0.09688  0.51575  Biso   1.000  Mo
  Mo26     1.0000 0.22225  0.90312  0.48425  Biso   1.000  Mo
  Mo27     1.0000 0.75192  0.91542  0.53491  Biso   1.000  Mo
  Mo28     1.0000 0.24808  0.08458  0.46509  Biso   1.000  Mo
  Mo29     1.0000 0.57831  0.85708  0.35451  Biso   1.000  Mo
  Mo30     1.0000 0.42169  0.14292  0.64549  Biso   1.000  Mo
  Mo31     1.0000 0.69626  0.07717  0.67132  Biso   1.000  Mo
  Mo32     1.0000 0.30374  0.92283  0.32868  Biso   1.000  Mo
  Mo33     1.0000 0.52788  0.19124  0.50774  Biso   1.000  Mo
  Mo34     1.0000 0.47212  0.80876  0.49226  Biso   1.000  Mo
  Mo35     1.0000 0.56339  0.04405  0.35094  Biso   1.000  Mo
  Mo36     1.0000 0.43661  0.95595  0.64906  Biso   1.000  Mo
  O1       1.0000 0.25440  0.50790  0.13120  Biso   1.000  O
  O2       1.0000 0.74560  0.49210  0.86880  Biso   1.000  O
  O3       1.0000 0.97330  0.12850  0.00540  Biso   1.000  O
  O4       1.0000 0.02670  0.87150  0.99460  Biso   1.000  O
  O5       1.0000 0.86410  0.30760  0.27160  Biso   1.000  O
  O6       1.0000 0.13590  0.69240  0.72840  Biso   1.000  O
  O7       1.0000 0.70940  0.44150  0.11740  Biso   1.000  O
  O8       1.0000 0.29060  0.55850  0.88260  Biso   1.000  O
  O9       1.0000 0.83440  0.16510  0.90930  Biso   1.000  O
  O10      1.0000 0.16560  0.83490  0.09070  Biso   1.000  O
  O11      1.0000 0.07720  0.39810  0.03520  Biso   1.000  O
  O12      1.0000 0.92280  0.60190  0.96480  Biso   1.000  O
  O13      1.0000 0.06590  0.32570  0.14480  Biso   1.000  O
  O14      1.0000 0.93410  0.67430  0.85520  Biso   1.000  O
  O15      1.0000 0.90800  0.27700  0.03140  Biso   1.000  O
  O16      1.0000 0.09200  0.72300  0.96860  Biso   1.000  O
  O17      1.0000 0.86280  0.35630  0.14680  Biso   1.000  O
  O18      1.0000 0.13720  0.64370  0.85320  Biso   1.000  O
  O19      1.0000 0.66500  0.29790  0.01940  Biso   1.000  O
  O20      1.0000 0.33500  0.70210  0.98060  Biso   1.000  O
  O21      1.0000 0.25100  0.40710  0.35560  Biso   1.000  O
  O22      1.0000 0.74900  0.59290  0.64440  Biso   1.000  O
  O23      1.0000 0.20890  0.44490  0.23310  Biso   1.000  O
  O24      1.0000 0.79110  0.55510  0.76690  Biso   1.000  O
  O25      1.0000 0.70220  0.38400  0.22150  Biso   1.000  O
  O26      1.0000 0.29780  0.61600  0.77850  Biso   1.000  O
  O27      1.0000 0.60310  0.18320  0.88050  Biso   1.000  O
  O28      1.0000 0.39690  0.81680  0.11950  Biso   1.000  O
  O29      1.0000 0.78230  0.30290  0.92060  Biso   1.000  O
  O30      1.0000 0.21770  0.69710  0.07940  Biso   1.000  O
  O31      1.0000 0.07500  0.28080  0.27070  Biso   1.000  O
  O32      1.0000 0.92500  0.71920  0.72930  Biso   1.000  O
  O33      1.0000 0.13050  0.17690  0.12370  Biso   1.000  O
  O34      1.0000 0.86950  0.82310  0.87630  Biso   1.000  O
  O35      1.0000 0.66200  0.24680  0.12490  Biso   1.000  O
  O36      1.0000 0.33800  0.75320  0.87510  Biso   1.000  O
  O37      1.0000 0.14490  0.22960  0.01840  Biso   1.000  O
  O38      1.0000 0.85510  0.77040  0.98160  Biso   1.000  O
  O39      1.0000 0.02560  0.41510  0.28830  Biso   1.000  O
  O40      1.0000 0.97440  0.58490  0.71170  Biso   1.000  O
  O41      1.0000 0.90560  0.22480  0.13060  Biso   1.000  O
  O42      1.0000 0.09440  0.77520  0.86940  Biso   1.000  O
  O43      1.0000 0.25860  0.30740  0.22110  Biso   1.000  O
  O44      1.0000 0.74140  0.69260  0.77890  Biso   1.000  O
  O45      1.0000 0.99960  0.27600  0.92210  Biso   1.000  O
  O46      1.0000 0.00040  0.72400  0.07790  Biso   1.000  O
  O47      1.0000 0.35060  0.22140  0.11210  Biso   1.000  O
  O48      1.0000 0.64940  0.77860  0.88790  Biso   1.000  O
  O49      1.0000 0.50930  0.35170  0.10440  Biso   1.000  O
  O50      1.0000 0.49070  0.64830  0.89560  Biso   1.000  O
  O51      1.0000 0.03090  0.47840  0.15730  Biso   1.000  O
  O52      1.0000 0.96910  0.52160  0.84270  Biso   1.000  O
  O53      1.0000 0.71020  0.16150  0.00650  Biso   1.000  O
  O54      1.0000 0.28980  0.83850  0.99350  Biso   1.000  O
  O55      1.0000 0.86880  0.43140  0.04040  Biso   1.000  O
  O56      1.0000 0.13120  0.56860  0.95960  Biso   1.000  O
  O57      1.0000 0.25860  0.35620  0.11290  Biso   1.000  O
  O58      1.0000 0.74140  0.64380  0.88710  Biso   1.000  O
  O59      1.0000 0.93500  0.41330  0.91230  Biso   1.000  O
  O60      1.0000 0.06500  0.58670  0.08770  Biso   1.000  O
  O61      1.0000 0.87020  0.49300  0.24150  Biso   1.000  O
  O62      1.0000 0.12980  0.50700  0.75850  Biso   1.000  O
  O63      1.0000 0.77760  0.16590  0.19860  Biso   1.000  O
  O64      1.0000 0.22240  0.83410  0.80140  Biso   1.000  O
  O65      1.0000 0.03510  0.02540  0.07310  Biso   1.000  O
  O66      1.0000 0.96490  0.97460  0.92690  Biso   1.000  O
  O67      1.0000 0.04920  0.13120  0.87870  Biso   1.000  O
  O68      1.0000 0.95080  0.86880  0.12130  Biso   1.000  O
  O69      1.0000 0.86740  0.57300  0.14940  Biso   1.000  O
  O70      1.0000 0.13260  0.42700  0.85060  Biso   1.000  O
  O71      1.0000 0.98980  0.13260  0.19490  Biso   1.000  O
  O72      1.0000 0.01020  0.86740  0.80510  Biso   1.000  O
  O73      1.0000 0.94330  0.19790  0.33000  Biso   1.000  O
  O74      1.0000 0.05670  0.80210  0.67000  Biso   1.000  O
  O75      1.0000 0.82100  0.08110  0.07520  Biso   1.000  O
  O76      1.0000 0.17900  0.91890  0.92480  Biso   1.000  O
  O77      1.0000 0.59180  0.09440  0.08480  Biso   1.000  O
  O78      1.0000 0.40820  0.90560  0.91520  Biso   1.000  O
  O79      1.0000 0.84340  0.44910  0.36060  Biso   1.000  O
  O80      1.0000 0.15660  0.55090  0.63940  Biso   1.000  O
  N1       1.0000 0.43430  0.66000  0.62760  Biso   1.000  N
  N2       1.0000 0.56570  0.34000  0.37240  Biso   1.000  N
  O81      1.0000 0.59920  0.06090  0.28150  Biso   1.000  O
  O82      1.0000 0.40080  0.93910  0.71850  Biso   1.000  O
  O83      1.0000 0.53530  0.27860  0.50810  Biso   1.000  O
  O84      1.0000 0.46470  0.72140  0.49190  Biso   1.000  O
  N3       1.0000 0.24220  0.45760  0.52410  Biso   1.000  N
  N4       1.0000 0.75780  0.54240  0.47590  Biso   1.000  N
  O85      1.0000 0.75520  0.98160  0.62540  Biso   1.000  O
  O86      1.0000 0.24480  0.01840  0.37460  Biso   1.000  O
  N5       1.0000 0.25850  0.60080  0.49420  Biso   1.000  N
  N6       1.0000 0.74150  0.39920  0.50580  Biso   1.000  N
  O87      1.0000 0.71530  0.06930  0.41890  Biso   1.000  O
  O88      1.0000 0.28470  0.93070  0.58110  Biso   1.000  O
  N7       1.0000 0.40980  0.51080  0.64140  Biso   1.000  N
  N8       1.0000 0.59020  0.48920  0.35860  Biso   1.000  N
  O89      1.0000 0.81270  0.00430  0.51340  Biso   1.000  O
  O90      1.0000 0.18730  0.99570  0.48660  Biso   1.000  O
  O91      1.0000 0.67970  0.17980  0.53000  Biso   1.000  O
  O92      1.0000 0.32030  0.82020  0.47000  Biso   1.000  O
  O93      1.0000 0.61250  0.78840  0.28610  Biso   1.000  O
  O94      1.0000 0.38750  0.21160  0.71390  Biso   1.000  O
  N9       1.0000 0.82840  0.87340  0.26030  Biso   1.000  N
  N10      1.0000 0.17160  0.12660  0.73970  Biso   1.000  N
  N11      1.0000 0.69110  0.82610  0.13140  Biso   1.000  N
  N12      1.0000 0.30890  0.17390  0.86860  Biso   1.000  N
  N13      1.0000 0.66430  0.66990  0.12760  Biso   1.000  N
  N14      1.0000 0.33570  0.33010  0.87240  Biso   1.000  N
  O95      1.0000 0.77050  0.11680  0.61820  Biso   1.000  O
  O96      1.0000 0.22950  0.88320  0.38180  Biso   1.000  O
  O97      1.0000 0.90640  0.14610  0.52810  Biso   1.000  O
  O98      1.0000 0.09360  0.85390  0.47190  Biso   1.000  O
  O99      1.0000 0.86970  0.87600  0.54600  Biso   1.000  O
  O100     1.0000 0.13030  0.12400  0.45400  Biso   1.000  O
  N15      1.0000 0.87500  0.72320  0.25080  Biso   1.000  N
  N16      1.0000 0.12500  0.27680  0.74920  Biso   1.000  N
  O101     1.0000 0.78830  0.10910  0.75050  Biso   1.000  O
  O102     1.0000 0.21170  0.89090  0.24950  Biso   1.000  O
  O103     1.0000 0.52780  0.13370  0.40420  Biso   1.000  O
  O104     1.0000 0.47220  0.86630  0.59580  Biso   1.000  O
  O105     1.0000 0.49530  0.20180  0.59610  Biso   1.000  O
  O106     1.0000 0.50470  0.79820  0.40390  Biso   1.000  O
  O107     1.0000 0.70790  0.87640  0.42640  Biso   1.000  O
  O108     1.0000 0.29210  0.12360  0.57360  Biso   1.000  O
  O109     1.0000 0.63960  0.84330  0.53340  Biso   1.000  O
  O110     1.0000 0.36040  0.15670  0.46660  Biso   1.000  O
  C1       1.0000 0.11550  0.65060  0.39320  Biso   1.000  C
  C2       1.0000 0.88450  0.34940  0.60680  Biso   1.000  C
  C3       1.0000 0.06680  0.70400  0.29150  Biso   1.000  C
  C4       1.0000 0.93320  0.29600  0.70850  Biso   1.000  C
  H1       1.0000 0.14400  0.70750  0.28770  Biso   1.000  H
  H2       1.0000 0.85600  0.29250  0.71230  Biso   1.000  H
  C5       1.0000 0.61100  0.74420  0.66390  Biso   1.000  C
  C6       1.0000 0.38900  0.25580  0.33610  Biso   1.000  C
  H3       1.0000 0.68580  0.75340  0.65760  Biso   1.000  H
  H4       1.0000 0.31420  0.24660  0.34240  Biso   1.000  H
  C7       1.0000 0.62040  0.79720  0.06490  Biso   1.000  C
  C8       1.0000 0.37960  0.20280  0.93510  Biso   1.000  C
  H5       1.0000 0.59830  0.74520  0.04470  Biso   1.000  H
  H6       1.0000 0.40170  0.25480  0.95530  Biso   1.000  H
  C9       1.0000 0.91010  0.02490  0.33950  Biso   1.000  C
  C10      1.0000 0.08990  0.97510  0.66050  Biso   1.000  C
  H7       1.0000 0.93800  0.07530  0.36650  Biso   1.000  H
  H8       1.0000 0.06200  0.92470  0.63350  Biso   1.000  H
  C11      1.0000 0.83550  0.69260  0.29660  Biso   1.000  C
  C12      1.0000 0.16450  0.30740  0.70340  Biso   1.000  C
  H9       1.0000 0.75700  0.68830  0.29730  Biso   1.000  H
  H10      1.0000 0.24300  0.31170  0.70270  Biso   1.000  H
  C13      1.0000 0.63880  0.56270  0.02000  Biso   1.000  C
  C14      1.0000 0.36120  0.43730  0.98000  Biso   1.000  C
  H11      1.0000 0.66830  0.53510  0.98090  Biso   1.000  H
  H12      1.0000 0.33170  0.46490  0.01910  Biso   1.000  H
  C15      1.0000 0.38380  0.43430  0.61450  Biso   1.000  C
  C16      1.0000 0.61620  0.56570  0.38550  Biso   1.000  C
  C17      1.0000 0.89410  0.89390  0.32850  Biso   1.000  C
  C18      1.0000 0.10590  0.10610  0.67150  Biso   1.000  C
  H13      1.0000 0.91080  0.85690  0.34860  Biso   1.000  H
  H14      1.0000 0.08920  0.14310  0.65140  Biso   1.000  H
  C19      1.0000 0.84230  0.00460  0.27070  Biso   1.000  C
  C20      1.0000 0.15770  0.99540  0.72930  Biso   1.000  C
  H15      1.0000 0.82500  0.04090  0.24970  Biso   1.000  H
  H16      1.0000 0.17500  0.95910  0.75030  Biso   1.000  H
  C21      1.0000 0.79890  0.92670  0.23200  Biso   1.000  C
  C22      1.0000 0.20110  0.07330  0.76800  Biso   1.000  C
  C23      1.0000 0.70490  0.62930  0.06900  Biso   1.000  C
  C24      1.0000 0.29510  0.37070  0.93100  Biso   1.000  C
  H17      1.0000 0.77590  0.64610  0.06210  Biso   1.000  H
  H18      1.0000 0.22410  0.35390  0.93790  Biso   1.000  H
  C25      1.0000 0.53520  0.53600  0.02600  Biso   1.000  C
  C26      1.0000 0.46480  0.46400  0.97400  Biso   1.000  C
  C27      1.0000 0.28570  0.40330  0.54950  Biso   1.000  C
  C28      1.0000 0.71430  0.59670  0.45050  Biso   1.000  C
  C29      1.0000 0.57390  0.79710  0.71670  Biso   1.000  C
  C30      1.0000 0.42610  0.20290  0.28330  Biso   1.000  C
  C31      1.0000 0.68240  0.94800  0.12300  Biso   1.000  C
  C32      1.0000 0.31760  0.05200  0.87700  Biso   1.000  C
  H19      1.0000 0.70210  0.00010  0.14430  Biso   1.000  H
  H20      1.0000 0.29790  0.99990  0.85570  Biso   1.000  H
  C33      1.0000 0.24710  0.32930  0.51550  Biso   1.000  C
  C34      1.0000 0.75290  0.67070  0.48450  Biso   1.000  C
  H21      1.0000 0.28750  0.29310  0.52790  Biso   1.000  H
  H22      1.0000 0.71250  0.70690  0.47210  Biso   1.000  H
  C35      1.0000 0.54240  0.67780  0.61950  Biso   1.000  C
  C36      1.0000 0.45760  0.32220  0.38050  Biso   1.000  C
  H23      1.0000 0.57090  0.64430  0.58310  Biso   1.000  H
  H24      1.0000 0.42910  0.35570  0.41690  Biso   1.000  H
  C37      1.0000 0.03290  0.67510  0.34140  Biso   1.000  C
  C38      1.0000 0.96710  0.32490  0.65860  Biso   1.000  C
  C39      1.0000 0.72440  0.90210  0.16000  Biso   1.000  C
  C40      1.0000 0.27560  0.09790  0.84000  Biso   1.000  C
  C41      1.0000 0.61260  0.91760  0.05560  Biso   1.000  C
  C42      1.0000 0.38740  0.08240  0.94440  Biso   1.000  C
  H25      1.0000 0.58750  0.94900  0.03020  Biso   1.000  H
  H26      1.0000 0.41250  0.05100  0.96980  Biso   1.000  H
  C43      1.0000 0.39470  0.71080  0.67940  Biso   1.000  C
  C44      1.0000 0.60530  0.28920  0.32060  Biso   1.000  C
  H27      1.0000 0.32040  0.69950  0.68540  Biso   1.000  H
  H28      1.0000 0.67960  0.30050  0.31460  Biso   1.000  H
  C45      1.0000 0.47950  0.54450  0.70530  Biso   1.000  C
  C46      1.0000 0.52050  0.45550  0.29470  Biso   1.000  C
  H29      1.0000 0.49530  0.59700  0.72250  Biso   1.000  H
  H30      1.0000 0.50470  0.40300  0.27750  Biso   1.000  H
  C47      1.0000 0.91350  0.66820  0.34150  Biso   1.000  C
  C48      1.0000 0.08650  0.33180  0.65850  Biso   1.000  C
  H31      1.0000 0.88710  0.64690  0.37240  Biso   1.000  H
  H32      1.0000 0.11290  0.35310  0.62760  Biso   1.000  H
  C49      1.0000 0.19920  0.60480  0.37450  Biso   1.000  C
  C50      1.0000 0.80080  0.39520  0.62550  Biso   1.000  C
  H33      1.0000 0.21110  0.58970  0.32750  Biso   1.000  H
  H34      1.0000 0.78890  0.41030  0.67250  Biso   1.000  H
  C51      1.0000 0.93670  0.96830  0.36880  Biso   1.000  C
  C52      1.0000 0.06330  0.03170  0.63120  Biso   1.000  C
  H35      1.0000 0.98300  0.98110  0.41520  Biso   1.000  H
  H36      1.0000 0.01700  0.01890  0.58480  Biso   1.000  H
  C53      1.0000 0.09620  0.36270  0.44080  Biso   1.000  C
  C54      1.0000 0.90380  0.63730  0.55920  Biso   1.000  C
  H37      1.0000 0.02770  0.35010  0.40520  Biso   1.000  H
  H38      1.0000 0.97230  0.64990  0.59480  Biso   1.000  H
  C55      1.0000 0.57870  0.84170  0.02480  Biso   1.000  C
  C56      1.0000 0.42130  0.15830  0.97520  Biso   1.000  C
  H39      1.0000 0.52980  0.82050  0.97890  Biso   1.000  H
  H40      1.0000 0.47020  0.17950  0.02110  Biso   1.000  H
  C57      1.0000 0.46000  0.77950  0.72430  Biso   1.000  C
  C58      1.0000 0.54000  0.22050  0.27570  Biso   1.000  C
  H41      1.0000 0.42870  0.81360  0.75890  Biso   1.000  H
  H42      1.0000 0.57130  0.18640  0.24110  Biso   1.000  H
  C59      1.0000 0.56480  0.64640  0.13360  Biso   1.000  C
  C60      1.0000 0.43520  0.35360  0.86640  Biso   1.000  C
  H43      1.0000 0.53550  0.67540  0.17210  Biso   1.000  H
  H44      1.0000 0.46450  0.32460  0.82790  Biso   1.000  H
  C61      1.0000 0.43500  0.39220  0.65250  Biso   1.000  C
  C62      1.0000 0.56500  0.60780  0.34750  Biso   1.000  C
  H45      1.0000 0.41970  0.33970  0.63350  Biso   1.000  H
  H46      1.0000 0.58030  0.66030  0.36650  Biso   1.000  H
  C63      1.0000 0.18040  0.64680  0.51360  Biso   1.000  C
  C64      1.0000 0.81960  0.35320  0.48640  Biso   1.000  C
  H47      1.0000 0.17250  0.66170  0.56140  Biso   1.000  H
  H48      1.0000 0.82750  0.33830  0.43860  Biso   1.000  H
  C65      1.0000 0.53000  0.50690  0.74780  Biso   1.000  C
  C66      1.0000 0.47000  0.49310  0.25220  Biso   1.000  C
  H49      1.0000 0.57610  0.53250  0.79390  Biso   1.000  H
  H50      1.0000 0.42390  0.46750  0.20610  Biso   1.000  H
  C67      1.0000 0.14670  0.43540  0.47200  Biso   1.000  C
  C68      1.0000 0.85330  0.56460  0.52800  Biso   1.000  C
  H51      1.0000 0.11250  0.47160  0.45600  Biso   1.000  H
  H52      1.0000 0.88750  0.52840  0.54400  Biso   1.000  H
  C69      1.0000 0.11040  0.67330  0.46590  Biso   1.000  C
  C70      1.0000 0.88960  0.32670  0.53410  Biso   1.000  C
  H53      1.0000 0.05940  0.70680  0.48270  Biso   1.000  H
  H54      1.0000 0.94060  0.29320  0.51730  Biso   1.000  H
  P3       1.0000 0.50000  0.00000  0.50000  Biso   1.000  P
  C71      1.0000 0.50960  0.42830  0.71930  Biso   1.000  C
  C72      1.0000 0.49040  0.57170  0.28070  Biso   1.000  C
  H55      1.0000 0.54620  0.40020  0.74520  Biso   1.000  H
  H56      1.0000 0.45380  0.59980  0.25480  Biso   1.000  H
  C73      1.0000 0.49700  0.57930  0.08520  Biso   1.000  C
  C74      1.0000 0.50300  0.42070  0.91480  Biso   1.000  C
  H57      1.0000 0.42310  0.56390  0.09310  Biso   1.000  H
  H58      1.0000 0.57690  0.43610  0.90690  Biso   1.000  H
  C75      1.0000 0.14500  0.30770  0.46150  Biso   1.000  C
  C76      1.0000 0.85500  0.69230  0.53850  Biso   1.000  C
  H59      1.0000 0.11210  0.25740  0.44000  Biso   1.000  H
  H60      1.0000 0.88790  0.74260  0.56000  Biso   1.000  H
  C77      1.0000 0.98580  0.72690  0.24860  Biso   1.000  C
  C78      1.0000 0.01420  0.27310  0.75140  Biso   1.000  C
  H61      1.0000 0.00970  0.74640  0.21570  Biso   1.000  H
  H62      1.0000 0.99030  0.25360  0.78430  Biso   1.000  H
  Cl1      1.0000 0.50000  0.50000  0.50000  Biso   1.000  Cl
  C79      1.0000 0.26380  0.58210  0.42550  Biso   1.000  C
  C80      1.0000 0.73620  0.41790  0.57450  Biso   1.000  C
  H63      1.0000 0.31750  0.55000  0.41030  Biso   1.000  H
  H64      1.0000 0.68250  0.45000  0.58970  Biso   1.000  H
  N17      1.0000 0.76770  0.00860  0.84430  Biso   1.000  N
  N18      1.0000 0.23230  0.99140  0.15570  Biso   1.000  N
  H65      1.0000 0.80650  0.05250  0.86940  Biso   1.000  H
  H66      1.0000 0.19350  0.94750  0.13060  Biso   1.000  H
  C81      1.0000 0.68000  0.98730  0.86240  Biso   1.000  C
  C82      1.0000 0.32000  0.01270  0.13760  Biso   1.000  C
  H67      1.0000 0.65730  0.02050  0.90180  Biso   1.000  H
  H68      1.0000 0.34270  0.97950  0.09820  Biso   1.000  H
  C83      1.0000 0.80260  0.96460  0.78650  Biso   1.000  C
  C84      1.0000 0.19740  0.03540  0.21350  Biso   1.000  C
  H69      1.0000 0.86950  0.98100  0.77470  Biso   1.000  H
  H70      1.0000 0.13050  0.01900  0.22530  Biso   1.000  H
  C85      1.0000 0.61400  0.91600  0.82670  Biso   1.000  C
  C86      1.0000 0.38600  0.08400  0.17330  Biso   1.000  C
  H71      1.0000 0.55260  0.89960  0.84360  Biso   1.000  H
  H72      1.0000 0.44740  0.10040  0.15640  Biso   1.000  H
  C87      1.0000 0.74030  0.89630  0.74540  Biso   1.000  C
  C88      1.0000 0.25970  0.10370  0.25460  Biso   1.000  C
  H73      1.0000 0.76280  0.86680  0.70420  Biso   1.000  H
  H74      1.0000 0.23720  0.13320  0.29580  Biso   1.000  H
  C89      1.0000 0.64530  0.87070  0.76410  Biso   1.000  C
  C90      1.0000 0.35470  0.12930  0.23590  Biso   1.000  C
  O111     1.0000 0.48600  0.96970  0.41560  Biso   1.000  O
  O112     1.0000 0.51400  0.03030  0.58440  Biso   1.000  O
  O113     1.0000 0.61080  0.94130  0.33480  Biso   1.000  O
  O114     1.0000 0.38920  0.05870  0.66520  Biso   1.000  O
  O115     1.0000 0.41470  0.99680  0.31340  Biso   1.000  O
  O116     1.0000 0.58530  0.00320  0.68660  Biso   1.000  O
  O117     1.0000 0.58830  0.14350  0.68490  Biso   1.000  O
  O118     1.0000 0.41170  0.85650  0.31510  Biso   1.000  O
  O119     1.0000 0.56540  0.06000  0.48120  Biso   1.000  O
  O120     1.0000 0.43460  0.94000  0.51880  Biso   1.000  O
  O121     1.0000 0.44600  0.07280  0.51770  Biso   1.000  O
  O122     1.0000 0.55400  0.92720  0.48230  Biso   1.000  O
  O123     1.0000 0.37420  0.98580  0.46460  Biso   1.000  O
  O124     1.0000 0.62580  0.01420  0.53540  Biso   1.000  O
  O125     1.0000 0.67280  0.30660  0.77610  Biso   1.000  O
  O126     1.0000 0.32720  0.69340  0.22390  Biso   1.000  O
