data_image0
_cell_length_a       8.908
_cell_length_b       6.6637
_cell_length_c       11.1476
_cell_angle_alpha    90
_cell_angle_beta     90.789
_cell_angle_gamma    90

_symmetry_space_group_name_H-M    "P 1"
_symmetry_int_tables_number       1

loop_
  _symmetry_equiv_pos_as_xyz
  'x, y, z'

loop_
  _atom_site_label
  _atom_site_occupancy
  _atom_site_fract_x
  _atom_site_fract_y
  _atom_site_fract_z
  _atom_site_thermal_displace_type
  _atom_site_B_iso_or_equiv
  _atom_site_type_symbol
  Cu1      1.0000 0.37627  0.28270  0.05519  Biso   1.000  Cu
  Cu2      1.0000 0.62373  0.78270  0.94481  Biso   1.000  Cu
  Br1      1.0000 0.59978  0.34873  0.93279  Biso   1.000  Br
  Br2      1.0000 0.40022  0.84873  0.06721  Biso   1.000  Br
  N1       1.0000 0.24500  0.27800  0.91200  Biso   1.000  N
  N2       1.0000 0.75500  0.77800  0.08800  Biso   1.000  N
  C1       1.0000 0.09580  0.31740  0.93820  Biso   1.000  C
  C2       1.0000 0.90420  0.81740  0.06180  Biso   1.000  C
  C3       1.0000 0.00970  0.32280  0.83420  Biso   1.000  C
  C4       1.0000 0.99030  0.82280  0.16580  Biso   1.000  C
  H1       1.0000 0.90530  0.35030  0.82670  Biso   1.000  H
  H2       1.0000 0.09470  0.85030  0.17330  Biso   1.000  H
  C5       1.0000 0.10860  0.27930  0.74350  Biso   1.000  C
  C6       1.0000 0.89140  0.77930  0.25650  Biso   1.000  C
  Br3      1.0000 0.06430  0.27293  0.57796  Biso   1.000  Br
  Br4      1.0000 0.93570  0.77293  0.42204  Biso   1.000  Br
  C7       1.0000 0.25380  0.25500  0.79290  Biso   1.000  C
  C8       1.0000 0.74620  0.75500  0.20710  Biso   1.000  C
  H3       1.0000 0.34240  0.22720  0.74940  Biso   1.000  H
  H4       1.0000 0.65760  0.72720  0.25060  Biso   1.000  H
  C9       1.0000 0.06640  0.33350  0.06370  Biso   1.000  C
  C10      1.0000 0.93360  0.83350  0.93630  Biso   1.000  C
  H5       1.0000 0.96810  0.35740  0.09250  Biso   1.000  H
  H6       1.0000 0.03190  0.85740  0.90750  Biso   1.000  H
  N3       1.0000 0.17830  0.31420  0.13490  Biso   1.000  N
  N4       1.0000 0.82170  0.81420  0.86510  Biso   1.000  N
  C11      1.0000 0.15840  0.33560  0.26790  Biso   1.000  C
  C12      1.0000 0.84160  0.83560  0.73210  Biso   1.000  C
  H7       1.0000 0.17050  0.20370  0.30780  Biso   1.000  H
  H8       1.0000 0.82950  0.70370  0.69220  Biso   1.000  H
  H9       1.0000 0.05700  0.38770  0.28520  Biso   1.000  H
  H10      1.0000 0.94300  0.88770  0.71480  Biso   1.000  H
  C13      1.0000 0.27860  0.48240  0.31380  Biso   1.000  C
  C14      1.0000 0.72140  0.98240  0.68620  Biso   1.000  C
  H11      1.0000 0.27600  0.60390  0.26270  Biso   1.000  H
  H12      1.0000 0.72400  0.10390  0.73730  Biso   1.000  H
  H13      1.0000 0.25280  0.52400  0.39630  Biso   1.000  H
  H14      1.0000 0.74720  0.02400  0.60370  Biso   1.000  H
  C15      1.0000 0.43640  0.39990  0.31540  Biso   1.000  C
  C16      1.0000 0.56360  0.89990  0.68460  Biso   1.000  C
  C17      1.0000 0.52490  0.41810  0.41780  Biso   1.000  C
  C18      1.0000 0.47510  0.91810  0.58220  Biso   1.000  C
  H15      1.0000 0.48410  0.48240  0.48610  Biso   1.000  H
  H16      1.0000 0.51590  0.98240  0.51390  Biso   1.000  H
  C19      1.0000 0.66880  0.34720  0.42470  Biso   1.000  C
  C20      1.0000 0.33120  0.84720  0.57530  Biso   1.000  C
  H17      1.0000 0.72950  0.36520  0.49460  Biso   1.000  H
  H18      1.0000 0.27050  0.86520  0.50540  Biso   1.000  H
  C21      1.0000 0.72210  0.24710  0.32380  Biso   1.000  C
  C22      1.0000 0.27790  0.74710  0.67620  Biso   1.000  C
  H19      1.0000 0.82030  0.19140  0.32380  Biso   1.000  H
  H20      1.0000 0.17970  0.69140  0.67620  Biso   1.000  H
  C23      1.0000 0.62890  0.23060  0.22380  Biso   1.000  C
  C24      1.0000 0.37110  0.73060  0.77620  Biso   1.000  C
  H21      1.0000 0.66560  0.16010  0.15620  Biso   1.000  H
  H22      1.0000 0.33440  0.66010  0.84380  Biso   1.000  H
  N5       1.0000 0.49020  0.30780  0.21640  Biso   1.000  N
  N6       1.0000 0.50980  0.80780  0.78360  Biso   1.000  N
