data_image0
_cell_length_a       9.089
_cell_length_b       13.411
_cell_length_c       18.293
_cell_angle_alpha    88.561
_cell_angle_beta     79.061
_cell_angle_gamma    88.899

_symmetry_space_group_name_H-M    "P 1"
_symmetry_int_tables_number       1

loop_
  _symmetry_equiv_pos_as_xyz
  'x, y, z'

loop_
  _atom_site_label
  _atom_site_occupancy
  _atom_site_fract_x
  _atom_site_fract_y
  _atom_site_fract_z
  _atom_site_thermal_displace_type
  _atom_site_B_iso_or_equiv
  _atom_site_type_symbol
  O1       1.0000 0.07340  0.94030  0.10500  Biso   1.000  O
  O2       1.0000 0.92660  0.05970  0.89500  Biso   1.000  O
  O3       1.0000 0.77100  0.94020  0.98850  Biso   1.000  O
  O4       1.0000 0.22900  0.05980  0.01150  Biso   1.000  O
  O5       1.0000 0.76400  0.91110  0.14270  Biso   1.000  O
  O6       1.0000 0.23600  0.08890  0.85730  Biso   1.000  O
  O7       1.0000 0.93210  0.78920  0.04570  Biso   1.000  O
  O8       1.0000 0.06790  0.21080  0.95430  Biso   1.000  O
  O9       1.0000 0.91920  0.07280  0.04690  Biso   1.000  O
  O10      1.0000 0.08080  0.92720  0.95310  Biso   1.000  O
  O11      1.0000 0.93630  0.07770  0.20960  Biso   1.000  O
  O12      1.0000 0.06370  0.92230  0.79040  Biso   1.000  O
  O13      1.0000 0.05190  0.22000  0.10050  Biso   1.000  O
  O14      1.0000 0.94810  0.78000  0.89950  Biso   1.000  O
  O15      1.0000 0.23580  0.09060  0.16320  Biso   1.000  O
  O16      1.0000 0.76420  0.90940  0.83680  Biso   1.000  O
  O17      1.0000 0.24870  0.47510  0.54100  Biso   1.000  O
  O18      1.0000 0.75130  0.52490  0.45900  Biso   1.000  O
  O19      1.0000 0.54430  0.42780  0.54810  Biso   1.000  O
  O20      1.0000 0.45570  0.57220  0.45190  Biso   1.000  O
  O21      1.0000 0.58580  0.63190  0.55480  Biso   1.000  O
  O22      1.0000 0.41420  0.36810  0.44520  Biso   1.000  O
  O23      1.0000 0.37740  0.52960  0.66080  Biso   1.000  O
  O24      1.0000 0.62260  0.47040  0.33920  Biso   1.000  O
  O25      1.0000 0.27620  0.67830  0.57910  Biso   1.000  O
  O26      1.0000 0.72380  0.32170  0.42090  Biso   1.000  O
  O27      1.0000 0.22170  0.78420  0.02130  Biso   1.000  O
  O28      1.0000 0.77830  0.21580  0.97870  Biso   1.000  O
  O29      1.0000 0.41960  0.91110  0.93700  Biso   1.000  O
  O30      1.0000 0.58040  0.08890  0.06300  Biso   1.000  O
  O31      1.0000 0.38540  0.91580  0.08740  Biso   1.000  O
  O32      1.0000 0.61460  0.08420  0.91260  Biso   1.000  O
  O33      1.0000 0.74310  0.25180  0.12740  Biso   1.000  O
  O34      1.0000 0.25690  0.74820  0.87260  Biso   1.000  O
  O35      1.0000 0.08070  0.62000  0.97120  Biso   1.000  O
  O36      1.0000 0.91930  0.38000  0.02880  Biso   1.000  O
  O37      1.0000 0.12550  0.59570  0.43880  Biso   1.000  O
  O38      1.0000 0.87450  0.40430  0.56120  Biso   1.000  O
  O39      1.0000 0.34030  0.50030  0.33790  Biso   1.000  O
  O40      1.0000 0.65970  0.49970  0.66210  Biso   1.000  O
  O41      1.0000 0.11610  0.39410  0.42740  Biso   1.000  O
  O42      1.0000 0.88390  0.60590  0.57260  Biso   1.000  O
  O43      1.0000 0.34870  0.33380  0.65310  Biso   1.000  O
  O44      1.0000 0.65130  0.66620  0.34690  Biso   1.000  O
  O45      1.0000 0.63920  0.29780  0.67500  Biso   1.000  O
  O46      1.0000 0.36080  0.70220  0.32500  Biso   1.000  O
  O47      1.0000 0.45260  0.40470  0.77900  Biso   1.000  O
  O48      1.0000 0.54740  0.59530  0.22100  Biso   1.000  O
  O49      1.0000 0.47660  0.20820  0.53620  Biso   1.000  O
  O50      1.0000 0.52340  0.79180  0.46380  Biso   1.000  O
  O51      1.0000 0.18630  0.27070  0.55130  Biso   1.000  O
  O52      1.0000 0.81370  0.72930  0.44870  Biso   1.000  O
  N1       1.0000 0.42170  0.28190  0.07170  Biso   1.000  N
  N2       1.0000 0.57830  0.71810  0.92830  Biso   1.000  N
  N3       1.0000 0.41180  0.28460  0.21970  Biso   1.000  N
  N4       1.0000 0.58820  0.71540  0.78030  Biso   1.000  N
  N5       1.0000 0.51230  0.09810  0.23040  Biso   1.000  N
  N6       1.0000 0.48770  0.90190  0.76960  Biso   1.000  N
  N7       1.0000 0.03370  0.61700  0.29410  Biso   1.000  N
  N8       1.0000 0.96630  0.38300  0.70590  Biso   1.000  N
  N9       1.0000 0.07020  0.81290  0.29200  Biso   1.000  N
  N10      1.0000 0.92980  0.18710  0.70800  Biso   1.000  N
  N11      1.0000 0.11750  0.82190  0.42950  Biso   1.000  N
  N12      1.0000 0.88250  0.17810  0.57050  Biso   1.000  N
  Mo1      1.0000 0.89245  0.91472  0.06427  Biso   1.000  Mo
  Mo2      1.0000 0.10755  0.08528  0.93573  Biso   1.000  Mo
  Mo3      1.0000 0.07040  0.08466  0.13128  Biso   1.000  Mo
  Mo4      1.0000 0.92960  0.91534  0.86872  Biso   1.000  Mo
  Mo5      1.0000 0.38500  0.57359  0.56853  Biso   1.000  Mo
  Mo6      1.0000 0.61500  0.42641  0.43147  Biso   1.000  Mo
  Mo7      1.0000 0.28726  0.91749  0.01813  Biso   1.000  Mo
  Mo8      1.0000 0.71274  0.08251  0.98187  Biso   1.000  Mo
  Mo9      1.0000 0.11046  0.74437  0.94829  Biso   1.000  Mo
  Mo10     1.0000 0.88954  0.25563  0.05171  Biso   1.000  Mo
  Mo11     1.0000 0.23396  0.48719  0.43648  Biso   1.000  Mo
  Mo12     1.0000 0.76604  0.51281  0.56352  Biso   1.000  Mo
  Mo13     1.0000 0.51236  0.39538  0.68573  Biso   1.000  Mo
  Mo14     1.0000 0.48764  0.60462  0.31427  Biso   1.000  Mo
  Mo15     1.0000 0.36327  0.31160  0.54945  Biso   1.000  Mo
  Mo16     1.0000 0.63673  0.68840  0.45055  Biso   1.000  Mo
  Cu1      1.0000 0.47442  0.17713  0.14251  Biso   1.000  Cu
  Cu2      1.0000 0.52558  0.82287  0.85749  Biso   1.000  Cu
  Cu3      1.0000 0.07778  0.70619  0.37191  Biso   1.000  Cu
  Cu4      1.0000 0.92222  0.29381  0.62809  Biso   1.000  Cu
  C1       1.0000 0.52260  0.00210  0.23840  Biso   1.000  C
  C2       1.0000 0.47740  0.99790  0.76160  Biso   1.000  C
  H1       1.0000 0.51180  0.96290  0.19860  Biso   1.000  H
  H2       1.0000 0.48820  0.03710  0.80140  Biso   1.000  H
  C3       1.0000 0.54840  0.95540  0.30190  Biso   1.000  C
  C4       1.0000 0.45160  0.04460  0.69810  Biso   1.000  C
  H3       1.0000 0.55720  0.88620  0.30430  Biso   1.000  H
  H4       1.0000 0.44280  0.11380  0.69570  Biso   1.000  H
  C5       1.0000 0.56110  0.00960  0.36090  Biso   1.000  C
  C6       1.0000 0.43890  0.99040  0.63910  Biso   1.000  C
  H5       1.0000 0.57720  0.97850  0.40470  Biso   1.000  H
  H6       1.0000 0.42280  0.02150  0.59530  Biso   1.000  H
  C7       1.0000 0.54970  0.11340  0.35570  Biso   1.000  C
  C8       1.0000 0.45030  0.88660  0.64430  Biso   1.000  C
  H7       1.0000 0.55880  0.15270  0.39570  Biso   1.000  H
  H8       1.0000 0.44120  0.84730  0.60430  Biso   1.000  H
  C9       1.0000 0.52430  0.15650  0.28880  Biso   1.000  C
  C10      1.0000 0.47570  0.84350  0.71120  Biso   1.000  C
  C11      1.0000 0.50450  0.26790  0.27660  Biso   1.000  C
  C12      1.0000 0.49550  0.73210  0.72340  Biso   1.000  C
  H9       1.0000 0.45650  0.29820  0.32280  Biso   1.000  H
  H10      1.0000 0.54350  0.70180  0.67720  Biso   1.000  H
  H11      1.0000 0.60160  0.29840  0.26030  Biso   1.000  H
  H12      1.0000 0.39840  0.70160  0.73970  Biso   1.000  H
  C13      1.0000 0.39170  0.26750  0.00590  Biso   1.000  C
  C14      1.0000 0.60830  0.73250  0.99410  Biso   1.000  C
  H13      1.0000 0.40090  0.20340  0.98720  Biso   1.000  H
  H14      1.0000 0.59910  0.79660  0.01280  Biso   1.000  H
  C15      1.0000 0.34610  0.34510  0.96240  Biso   1.000  C
  C16      1.0000 0.65390  0.65490  0.03760  Biso   1.000  C
  H15      1.0000 0.33450  0.33440  0.91380  Biso   1.000  H
  H16      1.0000 0.66550  0.66560  0.08620  Biso   1.000  H
  C17      1.0000 0.31920  0.43700  0.99310  Biso   1.000  C
  C18      1.0000 0.68080  0.56300  0.00690  Biso   1.000  C
  H17      1.0000 0.28570  0.48950  0.96610  Biso   1.000  H
  H18      1.0000 0.71430  0.51050  0.03390  Biso   1.000  H
  C19      1.0000 0.34260  0.45190  0.06580  Biso   1.000  C
  C20      1.0000 0.65740  0.54810  0.93420  Biso   1.000  C
  H19      1.0000 0.32270  0.51360  0.08790  Biso   1.000  H
  H20      1.0000 0.67730  0.48640  0.91210  Biso   1.000  H
  C21      1.0000 0.39620  0.37220  0.10420  Biso   1.000  C
  C22      1.0000 0.60380  0.62780  0.89580  Biso   1.000  C
  C23      1.0000 0.43610  0.38140  0.17890  Biso   1.000  C
  C24      1.0000 0.56390  0.61860  0.82110  Biso   1.000  C
  H21      1.0000 0.54030  0.40010  0.17350  Biso   1.000  H
  H22      1.0000 0.45970  0.59990  0.82650  Biso   1.000  H
  H23      1.0000 0.37440  0.43280  0.20660  Biso   1.000  H
  H24      1.0000 0.62560  0.56720  0.79340  Biso   1.000  H
  C25      1.0000 0.25020  0.27670  0.25440  Biso   1.000  C
  C26      1.0000 0.74980  0.72330  0.74560  Biso   1.000  C
  H25      1.0000 0.22380  0.32790  0.29050  Biso   1.000  H
  H26      1.0000 0.77620  0.67210  0.70950  Biso   1.000  H
  H27      1.0000 0.23230  0.21250  0.27850  Biso   1.000  H
  H28      1.0000 0.76770  0.78750  0.72150  Biso   1.000  H
  H29      1.0000 0.19030  0.28470  0.21660  Biso   1.000  H
  H30      1.0000 0.80970  0.71530  0.78340  Biso   1.000  H
  C27      1.0000 0.97990  0.52610  0.30100  Biso   1.000  C
  C28      1.0000 0.02010  0.47390  0.69900  Biso   1.000  C
  H31      1.0000 0.96180  0.49620  0.34820  Biso   1.000  H
  H32      1.0000 0.03820  0.50380  0.65180  Biso   1.000  H
  C29      1.0000 0.94920  0.47300  0.24330  Biso   1.000  C
  C30      1.0000 0.05080  0.52700  0.75670  Biso   1.000  C
  H33      1.0000 0.91170  0.40880  0.25120  Biso   1.000  H
  H34      1.0000 0.08830  0.59120  0.74880  Biso   1.000  H
  C31      1.0000 0.97470  0.51620  0.17270  Biso   1.000  C
  C32      1.0000 0.02530  0.48380  0.82730  Biso   1.000  C
  H35      1.0000 0.95260  0.48270  0.13230  Biso   1.000  H
  H36      1.0000 0.04740  0.51730  0.86770  Biso   1.000  H
  C33      1.0000 0.03430  0.61130  0.16400  Biso   1.000  C
  C34      1.0000 0.96570  0.38870  0.83600  Biso   1.000  C
  H37      1.0000 0.05710  0.64170  0.11700  Biso   1.000  H
  H38      1.0000 0.94290  0.35830  0.88300  Biso   1.000  H
  C35      1.0000 0.05890  0.65930  0.22510  Biso   1.000  C
  C36      1.0000 0.94110  0.34070  0.77490  Biso   1.000  C
  C37      1.0000 0.12780  0.76210  0.21980  Biso   1.000  C
  C38      1.0000 0.87220  0.23790  0.78020  Biso   1.000  C
  H39      1.0000 0.23620  0.75630  0.21140  Biso   1.000  H
  H40      1.0000 0.76380  0.24370  0.78860  Biso   1.000  H
  H41      1.0000 0.09970  0.80040  0.17880  Biso   1.000  H
  H42      1.0000 0.90030  0.19960  0.82120  Biso   1.000  H
  C39      1.0000 0.11040  0.82390  0.50280  Biso   1.000  C
  C40      1.0000 0.88960  0.17610  0.49720  Biso   1.000  C
  H43      1.0000 0.07800  0.76780  0.53190  Biso   1.000  H
  H44      1.0000 0.92200  0.23220  0.46810  Biso   1.000  H
  C41      1.0000 0.15020  0.90820  0.53690  Biso   1.000  C
  C42      1.0000 0.84980  0.09180  0.46310  Biso   1.000  C
  H45      1.0000 0.14910  0.90700  0.58790  Biso   1.000  H
  H46      1.0000 0.85090  0.09300  0.41210  Biso   1.000  H
  C43      1.0000 0.19060  0.99190  0.49580  Biso   1.000  C
  C44      1.0000 0.80940  0.00810  0.50420  Biso   1.000  C
  H47      1.0000 0.21520  0.04960  0.51760  Biso   1.000  H
  H48      1.0000 0.78480  0.95040  0.48240  Biso   1.000  H
  C45      1.0000 0.19390  0.98840  0.41930  Biso   1.000  C
  C46      1.0000 0.80610  0.01160  0.58070  Biso   1.000  C
  H49      1.0000 0.22040  0.04490  0.38950  Biso   1.000  H
  H50      1.0000 0.77960  0.95510  0.61050  Biso   1.000  H
  C47      1.0000 0.15880  0.90300  0.38790  Biso   1.000  C
  C48      1.0000 0.84120  0.09700  0.61210  Biso   1.000  C
  C49      1.0000 0.16700  0.89550  0.30610  Biso   1.000  C
  C50      1.0000 0.83300  0.10450  0.69390  Biso   1.000  C
  H51      1.0000 0.13350  0.95780  0.28610  Biso   1.000  H
  H52      1.0000 0.86650  0.04220  0.71390  Biso   1.000  H
  H53      1.0000 0.26980  0.88270  0.28160  Biso   1.000  H
  H54      1.0000 0.73020  0.11730  0.71840  Biso   1.000  H
  C51      1.0000 0.91610  0.84980  0.29460  Biso   1.000  C
  C52      1.0000 0.08390  0.15020  0.70540  Biso   1.000  C
  H55      1.0000 0.91520  0.90000  0.25640  Biso   1.000  H
  H56      1.0000 0.08480  0.10000  0.74360  Biso   1.000  H
  H57      1.0000 0.87840  0.87780  0.34240  Biso   1.000  H
  H58      1.0000 0.12160  0.12220  0.65760  Biso   1.000  H
  H59      1.0000 0.85380  0.79550  0.28670  Biso   1.000  H
  H60      1.0000 0.14620  0.20450  0.71330  Biso   1.000  H
