data_image0
_cell_length_a       16.0914
_cell_length_b       16.0914
_cell_length_c       28.187
_cell_angle_alpha    90
_cell_angle_beta     90
_cell_angle_gamma    90

_symmetry_space_group_name_H-M    "P 1"
_symmetry_int_tables_number       1

loop_
  _symmetry_equiv_pos_as_xyz
  'x, y, z'

loop_
  _atom_site_label
  _atom_site_occupancy
  _atom_site_fract_x
  _atom_site_fract_y
  _atom_site_fract_z
  _atom_site_thermal_displace_type
  _atom_site_B_iso_or_equiv
  _atom_site_type_symbol
  Cu1      1.0000 0.10836  0.10836  0.50000  Biso   1.000  Cu
  Cu2      1.0000 0.89164  0.10836  0.50000  Biso   1.000  Cu
  Cu3      1.0000 0.10836  0.89164  0.50000  Biso   1.000  Cu
  Cu4      1.0000 0.60836  0.60836  0.00000  Biso   1.000  Cu
  Cu5      1.0000 0.39164  0.60836  0.00000  Biso   1.000  Cu
  Cu6      1.0000 0.60836  0.39164  0.00000  Biso   1.000  Cu
  Cu7      1.0000 0.89164  0.89164  0.50000  Biso   1.000  Cu
  Cu8      1.0000 0.39164  0.39164  0.00000  Biso   1.000  Cu
  Cu9      1.0000 0.19380  0.19380  0.40810  Biso   1.000  Cu
  Cu10     1.0000 0.80620  0.19380  0.40810  Biso   1.000  Cu
  Cu11     1.0000 0.19380  0.80620  0.40810  Biso   1.000  Cu
  Cu12     1.0000 0.19380  0.19380  0.59190  Biso   1.000  Cu
  Cu13     1.0000 0.69380  0.69380  0.90810  Biso   1.000  Cu
  Cu14     1.0000 0.30620  0.69380  0.90810  Biso   1.000  Cu
  Cu15     1.0000 0.69380  0.30620  0.90810  Biso   1.000  Cu
  Cu16     1.0000 0.69380  0.69380  0.09190  Biso   1.000  Cu
  Cu17     1.0000 0.80620  0.80620  0.40810  Biso   1.000  Cu
  Cu18     1.0000 0.80620  0.19380  0.59190  Biso   1.000  Cu
  Cu19     1.0000 0.19380  0.80620  0.59190  Biso   1.000  Cu
  Cu20     1.0000 0.80620  0.80620  0.59190  Biso   1.000  Cu
  Cu21     1.0000 0.30620  0.30620  0.90810  Biso   1.000  Cu
  Cu22     1.0000 0.30620  0.69380  0.09190  Biso   1.000  Cu
  Cu23     1.0000 0.69380  0.30620  0.09190  Biso   1.000  Cu
  Cu24     1.0000 0.30620  0.30620  0.09190  Biso   1.000  Cu
  C1       1.0000 0.24660  0.00000  0.39664  Biso   1.000  C
  C2       1.0000 0.00000  0.24660  0.39664  Biso   1.000  C
  C3       1.0000 0.00000  0.75340  0.39664  Biso   1.000  C
  C4       1.0000 0.00000  0.24660  0.60336  Biso   1.000  C
  C5       1.0000 0.74660  0.50000  0.89664  Biso   1.000  C
  C6       1.0000 0.50000  0.74660  0.89664  Biso   1.000  C
  C7       1.0000 0.50000  0.25340  0.89664  Biso   1.000  C
  C8       1.0000 0.50000  0.74660  0.10336  Biso   1.000  C
  C9       1.0000 0.75340  0.00000  0.39664  Biso   1.000  C
  C10      1.0000 0.75340  0.00000  0.60336  Biso   1.000  C
  C11      1.0000 0.24660  0.00000  0.60336  Biso   1.000  C
  C12      1.0000 0.00000  0.75340  0.60336  Biso   1.000  C
  C13      1.0000 0.25340  0.50000  0.89664  Biso   1.000  C
  C14      1.0000 0.25340  0.50000  0.10336  Biso   1.000  C
  C15      1.0000 0.74660  0.50000  0.10336  Biso   1.000  C
  C16      1.0000 0.50000  0.25340  0.10336  Biso   1.000  C
  C17      1.0000 0.30550  0.00000  0.35678  Biso   1.000  C
  C18      1.0000 0.00000  0.30550  0.35678  Biso   1.000  C
  C19      1.0000 0.00000  0.69450  0.35678  Biso   1.000  C
  C20      1.0000 0.00000  0.30550  0.64322  Biso   1.000  C
  C21      1.0000 0.80550  0.50000  0.85678  Biso   1.000  C
  C22      1.0000 0.50000  0.80550  0.85678  Biso   1.000  C
  C23      1.0000 0.50000  0.19450  0.85678  Biso   1.000  C
  C24      1.0000 0.50000  0.80550  0.14322  Biso   1.000  C
  C25      1.0000 0.69450  0.00000  0.35678  Biso   1.000  C
  C26      1.0000 0.69450  0.00000  0.64322  Biso   1.000  C
  C27      1.0000 0.30550  0.00000  0.64322  Biso   1.000  C
  C28      1.0000 0.00000  0.69450  0.64322  Biso   1.000  C
  C29      1.0000 0.19450  0.50000  0.85678  Biso   1.000  C
  C30      1.0000 0.19450  0.50000  0.14322  Biso   1.000  C
  C31      1.0000 0.80550  0.50000  0.14322  Biso   1.000  C
  C32      1.0000 0.50000  0.19450  0.14322  Biso   1.000  C
  C33      1.0000 0.33590  0.92750  0.33885  Biso   1.000  C
  C34      1.0000 0.07250  0.33590  0.33885  Biso   1.000  C
  C35      1.0000 0.92750  0.66410  0.33885  Biso   1.000  C
  C36      1.0000 0.92750  0.33590  0.66115  Biso   1.000  C
  C37      1.0000 0.83590  0.42750  0.83885  Biso   1.000  C
  C38      1.0000 0.57250  0.83590  0.83885  Biso   1.000  C
  C39      1.0000 0.42750  0.16410  0.83885  Biso   1.000  C
  C40      1.0000 0.42750  0.83590  0.16115  Biso   1.000  C
  C41      1.0000 0.66410  0.07250  0.33885  Biso   1.000  C
  C42      1.0000 0.66410  0.92750  0.66115  Biso   1.000  C
  C43      1.0000 0.33590  0.07250  0.66115  Biso   1.000  C
  C44      1.0000 0.07250  0.66410  0.66115  Biso   1.000  C
  C45      1.0000 0.16410  0.57250  0.83885  Biso   1.000  C
  C46      1.0000 0.16410  0.42750  0.16115  Biso   1.000  C
  C47      1.0000 0.83590  0.57250  0.16115  Biso   1.000  C
  C48      1.0000 0.57250  0.16410  0.16115  Biso   1.000  C
  C49      1.0000 0.66410  0.07250  0.66115  Biso   1.000  C
  C50      1.0000 0.92750  0.66410  0.66115  Biso   1.000  C
  C51      1.0000 0.07250  0.33590  0.66115  Biso   1.000  C
  C52      1.0000 0.07250  0.66410  0.33885  Biso   1.000  C
  C53      1.0000 0.16410  0.57250  0.16115  Biso   1.000  C
  C54      1.0000 0.42750  0.16410  0.16115  Biso   1.000  C
  C55      1.0000 0.57250  0.83590  0.16115  Biso   1.000  C
  C56      1.0000 0.57250  0.16410  0.83885  Biso   1.000  C
  C57      1.0000 0.33590  0.92750  0.66115  Biso   1.000  C
  C58      1.0000 0.33590  0.07250  0.33885  Biso   1.000  C
  C59      1.0000 0.66410  0.92750  0.33885  Biso   1.000  C
  C60      1.0000 0.92750  0.33590  0.33885  Biso   1.000  C
  C61      1.0000 0.83590  0.42750  0.16115  Biso   1.000  C
  C62      1.0000 0.83590  0.57250  0.83885  Biso   1.000  C
  C63      1.0000 0.16410  0.42750  0.83885  Biso   1.000  C
  C64      1.0000 0.42750  0.83590  0.83885  Biso   1.000  C
  H1       1.0000 0.31680  0.87710  0.35090  Biso   1.000  H
  H2       1.0000 0.12290  0.31680  0.35090  Biso   1.000  H
  H3       1.0000 0.87710  0.68320  0.35090  Biso   1.000  H
  H4       1.0000 0.87710  0.31680  0.64910  Biso   1.000  H
  H5       1.0000 0.81680  0.37710  0.85090  Biso   1.000  H
  H6       1.0000 0.62290  0.81680  0.85090  Biso   1.000  H
  H7       1.0000 0.37710  0.18320  0.85090  Biso   1.000  H
  H8       1.0000 0.37710  0.81680  0.14910  Biso   1.000  H
  H9       1.0000 0.68320  0.12290  0.35090  Biso   1.000  H
  H10      1.0000 0.68320  0.87710  0.64910  Biso   1.000  H
  H11      1.0000 0.31680  0.12290  0.64910  Biso   1.000  H
  H12      1.0000 0.12290  0.68320  0.64910  Biso   1.000  H
  H13      1.0000 0.18320  0.62290  0.85090  Biso   1.000  H
  H14      1.0000 0.18320  0.37710  0.14910  Biso   1.000  H
  H15      1.0000 0.81680  0.62290  0.14910  Biso   1.000  H
  H16      1.0000 0.62290  0.18320  0.14910  Biso   1.000  H
  H17      1.0000 0.68320  0.12290  0.64910  Biso   1.000  H
  H18      1.0000 0.87710  0.68320  0.64910  Biso   1.000  H
  H19      1.0000 0.12290  0.31680  0.64910  Biso   1.000  H
  H20      1.0000 0.12290  0.68320  0.35090  Biso   1.000  H
  H21      1.0000 0.18320  0.62290  0.14910  Biso   1.000  H
  H22      1.0000 0.37710  0.18320  0.14910  Biso   1.000  H
  H23      1.0000 0.62290  0.81680  0.14910  Biso   1.000  H
  H24      1.0000 0.62290  0.18320  0.85090  Biso   1.000  H
  H25      1.0000 0.31680  0.87710  0.64910  Biso   1.000  H
  H26      1.0000 0.31680  0.12290  0.35090  Biso   1.000  H
  H27      1.0000 0.68320  0.87710  0.35090  Biso   1.000  H
  H28      1.0000 0.87710  0.31680  0.35090  Biso   1.000  H
  H29      1.0000 0.81680  0.37710  0.14910  Biso   1.000  H
  H30      1.0000 0.81680  0.62290  0.85090  Biso   1.000  H
  H31      1.0000 0.18320  0.37710  0.85090  Biso   1.000  H
  H32      1.0000 0.37710  0.81680  0.85090  Biso   1.000  H
  C65      1.0000 0.39470  0.92760  0.30308  Biso   1.000  C
  C66      1.0000 0.07240  0.39470  0.30308  Biso   1.000  C
  C67      1.0000 0.92760  0.60530  0.30308  Biso   1.000  C
  C68      1.0000 0.92760  0.39470  0.69692  Biso   1.000  C
  C69      1.0000 0.89470  0.42760  0.80308  Biso   1.000  C
  C70      1.0000 0.57240  0.89470  0.80308  Biso   1.000  C
  C71      1.0000 0.42760  0.10530  0.80308  Biso   1.000  C
  C72      1.0000 0.42760  0.89470  0.19692  Biso   1.000  C
  C73      1.0000 0.60530  0.07240  0.30308  Biso   1.000  C
  C74      1.0000 0.60530  0.92760  0.69692  Biso   1.000  C
  C75      1.0000 0.39470  0.07240  0.69692  Biso   1.000  C
  C76      1.0000 0.07240  0.60530  0.69692  Biso   1.000  C
  C77      1.0000 0.10530  0.57240  0.80308  Biso   1.000  C
  C78      1.0000 0.10530  0.42760  0.19692  Biso   1.000  C
  C79      1.0000 0.89470  0.57240  0.19692  Biso   1.000  C
  C80      1.0000 0.57240  0.10530  0.19692  Biso   1.000  C
  C81      1.0000 0.60530  0.07240  0.69692  Biso   1.000  C
  C82      1.0000 0.92760  0.60530  0.69692  Biso   1.000  C
  C83      1.0000 0.07240  0.39470  0.69692  Biso   1.000  C
  C84      1.0000 0.07240  0.60530  0.30308  Biso   1.000  C
  C85      1.0000 0.10530  0.57240  0.19692  Biso   1.000  C
  C86      1.0000 0.42760  0.10530  0.19692  Biso   1.000  C
  C87      1.0000 0.57240  0.89470  0.19692  Biso   1.000  C
  C88      1.0000 0.57240  0.10530  0.80308  Biso   1.000  C
  C89      1.0000 0.39470  0.92760  0.69692  Biso   1.000  C
  C90      1.0000 0.39470  0.07240  0.30308  Biso   1.000  C
  C91      1.0000 0.60530  0.92760  0.30308  Biso   1.000  C
  C92      1.0000 0.92760  0.39470  0.30308  Biso   1.000  C
  C93      1.0000 0.89470  0.42760  0.19692  Biso   1.000  C
  C94      1.0000 0.89470  0.57240  0.80308  Biso   1.000  C
  C95      1.0000 0.10530  0.42760  0.80308  Biso   1.000  C
  C96      1.0000 0.42760  0.89470  0.80308  Biso   1.000  C
  H33      1.0000 0.41380  0.87710  0.29120  Biso   1.000  H
  H34      1.0000 0.12290  0.41380  0.29120  Biso   1.000  H
  H35      1.0000 0.87710  0.58620  0.29120  Biso   1.000  H
  H36      1.0000 0.87710  0.41380  0.70880  Biso   1.000  H
  H37      1.0000 0.91380  0.37710  0.79120  Biso   1.000  H
  H38      1.0000 0.62290  0.91380  0.79120  Biso   1.000  H
  H39      1.0000 0.37710  0.08620  0.79120  Biso   1.000  H
  H40      1.0000 0.37710  0.91380  0.20880  Biso   1.000  H
  H41      1.0000 0.58620  0.12290  0.29120  Biso   1.000  H
  H42      1.0000 0.58620  0.87710  0.70880  Biso   1.000  H
  H43      1.0000 0.41380  0.12290  0.70880  Biso   1.000  H
  H44      1.0000 0.12290  0.58620  0.70880  Biso   1.000  H
  H45      1.0000 0.08620  0.62290  0.79120  Biso   1.000  H
  H46      1.0000 0.08620  0.37710  0.20880  Biso   1.000  H
  H47      1.0000 0.91380  0.62290  0.20880  Biso   1.000  H
  H48      1.0000 0.62290  0.08620  0.20880  Biso   1.000  H
  H49      1.0000 0.58620  0.12290  0.70880  Biso   1.000  H
  H50      1.0000 0.87710  0.58620  0.70880  Biso   1.000  H
  H51      1.0000 0.12290  0.41380  0.70880  Biso   1.000  H
  H52      1.0000 0.12290  0.58620  0.29120  Biso   1.000  H
  H53      1.0000 0.08620  0.62290  0.20880  Biso   1.000  H
  H54      1.0000 0.37710  0.08620  0.20880  Biso   1.000  H
  H55      1.0000 0.62290  0.91380  0.20880  Biso   1.000  H
  H56      1.0000 0.62290  0.08620  0.79120  Biso   1.000  H
  H57      1.0000 0.41380  0.87710  0.70880  Biso   1.000  H
  H58      1.0000 0.41380  0.12290  0.29120  Biso   1.000  H
  H59      1.0000 0.58620  0.87710  0.29120  Biso   1.000  H
  H60      1.0000 0.87710  0.41380  0.29120  Biso   1.000  H
  H61      1.0000 0.91380  0.37710  0.20880  Biso   1.000  H
  H62      1.0000 0.91380  0.62290  0.79120  Biso   1.000  H
  H63      1.0000 0.08620  0.37710  0.79120  Biso   1.000  H
  H64      1.0000 0.37710  0.91380  0.79120  Biso   1.000  H
  C97      1.0000 0.42560  0.00000  0.28459  Biso   1.000  C
  C98      1.0000 0.00000  0.42560  0.28459  Biso   1.000  C
  C99      1.0000 0.00000  0.57440  0.28459  Biso   1.000  C
  C100     1.0000 0.00000  0.42560  0.71541  Biso   1.000  C
  C101     1.0000 0.92560  0.50000  0.78459  Biso   1.000  C
  C102     1.0000 0.50000  0.92560  0.78459  Biso   1.000  C
  C103     1.0000 0.50000  0.07440  0.78459  Biso   1.000  C
  C104     1.0000 0.50000  0.92560  0.21541  Biso   1.000  C
  C105     1.0000 0.57440  0.00000  0.28459  Biso   1.000  C
  C106     1.0000 0.57440  0.00000  0.71541  Biso   1.000  C
  C107     1.0000 0.42560  0.00000  0.71541  Biso   1.000  C
  C108     1.0000 0.00000  0.57440  0.71541  Biso   1.000  C
  C109     1.0000 0.07440  0.50000  0.78459  Biso   1.000  C
  C110     1.0000 0.07440  0.50000  0.21541  Biso   1.000  C
  C111     1.0000 0.92560  0.50000  0.21541  Biso   1.000  C
  C112     1.0000 0.50000  0.07440  0.21541  Biso   1.000  C
  C113     1.0000 0.50000  0.00000  0.25000  Biso   1.000  C
  C114     1.0000 0.00000  0.50000  0.25000  Biso   1.000  C
  C115     1.0000 0.00000  0.50000  0.75000  Biso   1.000  C
  C116     1.0000 0.50000  0.00000  0.75000  Biso   1.000  C
  N1       1.0000 0.16811  0.04134  0.45175  Biso   1.000  N
  N2       1.0000 0.95866  0.16811  0.45175  Biso   1.000  N
  N3       1.0000 0.04134  0.83189  0.45175  Biso   1.000  N
  N4       1.0000 0.04134  0.16811  0.54825  Biso   1.000  N
  N5       1.0000 0.66811  0.54134  0.95175  Biso   1.000  N
  N6       1.0000 0.45866  0.66811  0.95175  Biso   1.000  N
  N7       1.0000 0.54134  0.33189  0.95175  Biso   1.000  N
  N8       1.0000 0.54134  0.66811  0.04825  Biso   1.000  N
  N9       1.0000 0.83189  0.95866  0.45175  Biso   1.000  N
  N10      1.0000 0.83189  0.04134  0.54825  Biso   1.000  N
  N11      1.0000 0.16811  0.95866  0.54825  Biso   1.000  N
  N12      1.0000 0.95866  0.83189  0.54825  Biso   1.000  N
  N13      1.0000 0.33189  0.45866  0.95175  Biso   1.000  N
  N14      1.0000 0.33189  0.54134  0.04825  Biso   1.000  N
  N15      1.0000 0.66811  0.45866  0.04825  Biso   1.000  N
  N16      1.0000 0.45866  0.33189  0.04825  Biso   1.000  N
  N17      1.0000 0.83189  0.95866  0.54825  Biso   1.000  N
  N18      1.0000 0.04134  0.83189  0.54825  Biso   1.000  N
  N19      1.0000 0.95866  0.16811  0.54825  Biso   1.000  N
  N20      1.0000 0.95866  0.83189  0.45175  Biso   1.000  N
  N21      1.0000 0.33189  0.45866  0.04825  Biso   1.000  N
  N22      1.0000 0.54134  0.33189  0.04825  Biso   1.000  N
  N23      1.0000 0.45866  0.66811  0.04825  Biso   1.000  N
  N24      1.0000 0.45866  0.33189  0.95175  Biso   1.000  N
  N25      1.0000 0.16811  0.04134  0.54825  Biso   1.000  N
  N26      1.0000 0.16811  0.95866  0.45175  Biso   1.000  N
  N27      1.0000 0.83189  0.04134  0.45175  Biso   1.000  N
  N28      1.0000 0.04134  0.16811  0.45175  Biso   1.000  N
  N29      1.0000 0.66811  0.54134  0.04825  Biso   1.000  N
  N30      1.0000 0.66811  0.45866  0.95175  Biso   1.000  N
  N31      1.0000 0.33189  0.54134  0.95175  Biso   1.000  N
  N32      1.0000 0.54134  0.66811  0.95175  Biso   1.000  N
  N33      1.0000 0.21672  0.06902  0.41717  Biso   1.000  N
  N34      1.0000 0.93098  0.21672  0.41717  Biso   1.000  N
  N35      1.0000 0.06902  0.78328  0.41717  Biso   1.000  N
  N36      1.0000 0.06902  0.21672  0.58283  Biso   1.000  N
  N37      1.0000 0.71672  0.56902  0.91717  Biso   1.000  N
  N38      1.0000 0.43098  0.71672  0.91717  Biso   1.000  N
  N39      1.0000 0.56902  0.28328  0.91717  Biso   1.000  N
  N40      1.0000 0.56902  0.71672  0.08283  Biso   1.000  N
  N41      1.0000 0.78328  0.93098  0.41717  Biso   1.000  N
  N42      1.0000 0.78328  0.06902  0.58283  Biso   1.000  N
  N43      1.0000 0.21672  0.93098  0.58283  Biso   1.000  N
  N44      1.0000 0.93098  0.78328  0.58283  Biso   1.000  N
  N45      1.0000 0.28328  0.43098  0.91717  Biso   1.000  N
  N46      1.0000 0.28328  0.56902  0.08283  Biso   1.000  N
  N47      1.0000 0.71672  0.43098  0.08283  Biso   1.000  N
  N48      1.0000 0.43098  0.28328  0.08283  Biso   1.000  N
  N49      1.0000 0.78328  0.93098  0.58283  Biso   1.000  N
  N50      1.0000 0.06902  0.78328  0.58283  Biso   1.000  N
  N51      1.0000 0.93098  0.21672  0.58283  Biso   1.000  N
  N52      1.0000 0.93098  0.78328  0.41717  Biso   1.000  N
  N53      1.0000 0.28328  0.43098  0.08283  Biso   1.000  N
  N54      1.0000 0.56902  0.28328  0.08283  Biso   1.000  N
  N55      1.0000 0.43098  0.71672  0.08283  Biso   1.000  N
  N56      1.0000 0.43098  0.28328  0.91717  Biso   1.000  N
  N57      1.0000 0.21672  0.06902  0.58283  Biso   1.000  N
  N58      1.0000 0.21672  0.93098  0.41717  Biso   1.000  N
  N59      1.0000 0.78328  0.06902  0.41717  Biso   1.000  N
  N60      1.0000 0.06902  0.21672  0.41717  Biso   1.000  N
  N61      1.0000 0.71672  0.56902  0.08283  Biso   1.000  N
  N62      1.0000 0.71672  0.43098  0.91717  Biso   1.000  N
  N63      1.0000 0.28328  0.56902  0.91717  Biso   1.000  N
  N64      1.0000 0.56902  0.71672  0.91717  Biso   1.000  N
  Cl1      1.0000 0.00000  0.00000  0.48800  Biso   1.000  Cl
  Cl2      1.0000 0.00000  0.00000  0.51200  Biso   1.000  Cl
  Cl3      1.0000 0.50000  0.50000  0.98800  Biso   1.000  Cl
  Cl4      1.0000 0.50000  0.50000  0.01200  Biso   1.000  Cl
  Cl5      1.0000 0.22920  0.22920  0.50000  Biso   1.000  Cl
  Cl6      1.0000 0.77080  0.22920  0.50000  Biso   1.000  Cl
  Cl7      1.0000 0.22920  0.77080  0.50000  Biso   1.000  Cl
  Cl8      1.0000 0.72920  0.72920  0.00000  Biso   1.000  Cl
  Cl9      1.0000 0.27080  0.72920  0.00000  Biso   1.000  Cl
  Cl10     1.0000 0.72920  0.27080  0.00000  Biso   1.000  Cl
  Cl11     1.0000 0.77080  0.77080  0.50000  Biso   1.000  Cl
  Cl12     1.0000 0.27080  0.27080  0.00000  Biso   1.000  Cl
