data_image0
_cell_length_a       15.5006
_cell_length_b       15.5006
_cell_length_c       29.401
_cell_angle_alpha    90
_cell_angle_beta     90
_cell_angle_gamma    90

_symmetry_space_group_name_H-M    "P 1"
_symmetry_int_tables_number       1

loop_
  _symmetry_equiv_pos_as_xyz
  'x, y, z'

loop_
  _atom_site_label
  _atom_site_occupancy
  _atom_site_fract_x
  _atom_site_fract_y
  _atom_site_fract_z
  _atom_site_thermal_displace_type
  _atom_site_B_iso_or_equiv
  _atom_site_type_symbol
  Cu1      1.0000 0.11582  0.11582  0.00000  Biso   1.000  Cu
  Cu2      1.0000 0.88418  0.11582  0.00000  Biso   1.000  Cu
  Cu3      1.0000 0.11582  0.88418  0.00000  Biso   1.000  Cu
  Cu4      1.0000 0.61582  0.61582  0.50000  Biso   1.000  Cu
  Cu5      1.0000 0.38418  0.61582  0.50000  Biso   1.000  Cu
  Cu6      1.0000 0.61582  0.38418  0.50000  Biso   1.000  Cu
  Cu7      1.0000 0.88418  0.88418  0.00000  Biso   1.000  Cu
  Cu8      1.0000 0.38418  0.38418  0.50000  Biso   1.000  Cu
  Cl1      1.0000 0.00000  0.00000  0.00000  Biso   1.000  Cl
  Cl2      1.0000 0.50000  0.50000  0.50000  Biso   1.000  Cl
  N1       1.0000 0.17656  0.04271  0.95216  Biso   1.000  N
  N2       1.0000 0.95729  0.17656  0.95216  Biso   1.000  N
  N3       1.0000 0.04271  0.82344  0.95216  Biso   1.000  N
  N4       1.0000 0.04271  0.17656  0.04784  Biso   1.000  N
  N5       1.0000 0.67656  0.54271  0.45216  Biso   1.000  N
  N6       1.0000 0.45729  0.67656  0.45216  Biso   1.000  N
  N7       1.0000 0.54271  0.32344  0.45216  Biso   1.000  N
  N8       1.0000 0.54271  0.67656  0.54784  Biso   1.000  N
  N9       1.0000 0.82344  0.95729  0.95216  Biso   1.000  N
  N10      1.0000 0.82344  0.04271  0.04784  Biso   1.000  N
  N11      1.0000 0.17656  0.95729  0.04784  Biso   1.000  N
  N12      1.0000 0.95729  0.82344  0.04784  Biso   1.000  N
  N13      1.0000 0.32344  0.45729  0.45216  Biso   1.000  N
  N14      1.0000 0.32344  0.54271  0.54784  Biso   1.000  N
  N15      1.0000 0.67656  0.45729  0.54784  Biso   1.000  N
  N16      1.0000 0.45729  0.32344  0.54784  Biso   1.000  N
  N17      1.0000 0.82344  0.95729  0.04784  Biso   1.000  N
  N18      1.0000 0.04271  0.82344  0.04784  Biso   1.000  N
  N19      1.0000 0.95729  0.17656  0.04784  Biso   1.000  N
  N20      1.0000 0.95729  0.82344  0.95216  Biso   1.000  N
  N21      1.0000 0.32344  0.45729  0.54784  Biso   1.000  N
  N22      1.0000 0.54271  0.32344  0.54784  Biso   1.000  N
  N23      1.0000 0.45729  0.67656  0.54784  Biso   1.000  N
  N24      1.0000 0.45729  0.32344  0.45216  Biso   1.000  N
  N25      1.0000 0.17656  0.04271  0.04784  Biso   1.000  N
  N26      1.0000 0.17656  0.95729  0.95216  Biso   1.000  N
  N27      1.0000 0.82344  0.04271  0.95216  Biso   1.000  N
  N28      1.0000 0.04271  0.17656  0.95216  Biso   1.000  N
  N29      1.0000 0.67656  0.54271  0.54784  Biso   1.000  N
  N30      1.0000 0.67656  0.45729  0.45216  Biso   1.000  N
  N31      1.0000 0.32344  0.54271  0.45216  Biso   1.000  N
  N32      1.0000 0.54271  0.67656  0.45216  Biso   1.000  N
  N33      1.0000 0.22193  0.07193  0.91699  Biso   1.000  N
  N34      1.0000 0.92807  0.22193  0.91699  Biso   1.000  N
  N35      1.0000 0.07193  0.77807  0.91699  Biso   1.000  N
  N36      1.0000 0.07193  0.22193  0.08301  Biso   1.000  N
  N37      1.0000 0.72193  0.57193  0.41699  Biso   1.000  N
  N38      1.0000 0.42807  0.72193  0.41699  Biso   1.000  N
  N39      1.0000 0.57193  0.27807  0.41699  Biso   1.000  N
  N40      1.0000 0.57193  0.72193  0.58301  Biso   1.000  N
  N41      1.0000 0.77807  0.92807  0.91699  Biso   1.000  N
  N42      1.0000 0.77807  0.07193  0.08301  Biso   1.000  N
  N43      1.0000 0.22193  0.92807  0.08301  Biso   1.000  N
  N44      1.0000 0.92807  0.77807  0.08301  Biso   1.000  N
  N45      1.0000 0.27807  0.42807  0.41699  Biso   1.000  N
  N46      1.0000 0.27807  0.57193  0.58301  Biso   1.000  N
  N47      1.0000 0.72193  0.42807  0.58301  Biso   1.000  N
  N48      1.0000 0.42807  0.27807  0.58301  Biso   1.000  N
  N49      1.0000 0.77807  0.92807  0.08301  Biso   1.000  N
  N50      1.0000 0.07193  0.77807  0.08301  Biso   1.000  N
  N51      1.0000 0.92807  0.22193  0.08301  Biso   1.000  N
  N52      1.0000 0.92807  0.77807  0.91699  Biso   1.000  N
  N53      1.0000 0.27807  0.42807  0.58301  Biso   1.000  N
  N54      1.0000 0.57193  0.27807  0.58301  Biso   1.000  N
  N55      1.0000 0.42807  0.72193  0.58301  Biso   1.000  N
  N56      1.0000 0.42807  0.27807  0.41699  Biso   1.000  N
  N57      1.0000 0.22193  0.07193  0.08301  Biso   1.000  N
  N58      1.0000 0.22193  0.92807  0.91699  Biso   1.000  N
  N59      1.0000 0.77807  0.07193  0.91699  Biso   1.000  N
  N60      1.0000 0.07193  0.22193  0.91699  Biso   1.000  N
  N61      1.0000 0.72193  0.57193  0.58301  Biso   1.000  N
  N62      1.0000 0.72193  0.42807  0.41699  Biso   1.000  N
  N63      1.0000 0.27807  0.57193  0.41699  Biso   1.000  N
  N64      1.0000 0.57193  0.72193  0.41699  Biso   1.000  N
  C1       1.0000 0.24920  0.00000  0.89608  Biso   1.000  C
  C2       1.0000 0.00000  0.24920  0.89608  Biso   1.000  C
  C3       1.0000 0.00000  0.75080  0.89608  Biso   1.000  C
  C4       1.0000 0.00000  0.24920  0.10392  Biso   1.000  C
  C5       1.0000 0.74920  0.50000  0.39608  Biso   1.000  C
  C6       1.0000 0.50000  0.74920  0.39608  Biso   1.000  C
  C7       1.0000 0.50000  0.25080  0.39608  Biso   1.000  C
  C8       1.0000 0.50000  0.74920  0.60392  Biso   1.000  C
  C9       1.0000 0.75080  0.00000  0.89608  Biso   1.000  C
  C10      1.0000 0.75080  0.00000  0.10392  Biso   1.000  C
  C11      1.0000 0.24920  0.00000  0.10392  Biso   1.000  C
  C12      1.0000 0.00000  0.75080  0.10392  Biso   1.000  C
  C13      1.0000 0.25080  0.50000  0.39608  Biso   1.000  C
  C14      1.0000 0.25080  0.50000  0.60392  Biso   1.000  C
  C15      1.0000 0.74920  0.50000  0.60392  Biso   1.000  C
  C16      1.0000 0.50000  0.25080  0.60392  Biso   1.000  C
  C17      1.0000 0.30550  0.00000  0.85573  Biso   1.000  C
  C18      1.0000 0.00000  0.30550  0.85573  Biso   1.000  C
  C19      1.0000 0.00000  0.69450  0.85573  Biso   1.000  C
  C20      1.0000 0.00000  0.30550  0.14427  Biso   1.000  C
  C21      1.0000 0.80550  0.50000  0.35573  Biso   1.000  C
  C22      1.0000 0.50000  0.80550  0.35573  Biso   1.000  C
  C23      1.0000 0.50000  0.19450  0.35573  Biso   1.000  C
  C24      1.0000 0.50000  0.80550  0.64427  Biso   1.000  C
  C25      1.0000 0.69450  0.00000  0.85573  Biso   1.000  C
  C26      1.0000 0.69450  0.00000  0.14427  Biso   1.000  C
  C27      1.0000 0.30550  0.00000  0.14427  Biso   1.000  C
  C28      1.0000 0.00000  0.69450  0.14427  Biso   1.000  C
  C29      1.0000 0.19450  0.50000  0.35573  Biso   1.000  C
  C30      1.0000 0.19450  0.50000  0.64427  Biso   1.000  C
  C31      1.0000 0.80550  0.50000  0.64427  Biso   1.000  C
  C32      1.0000 0.50000  0.19450  0.64427  Biso   1.000  C
  C33      1.0000 0.33410  0.07640  0.83697  Biso   1.000  C
  C34      1.0000 0.92360  0.33410  0.83697  Biso   1.000  C
  C35      1.0000 0.07640  0.66590  0.83697  Biso   1.000  C
  C36      1.0000 0.07640  0.33410  0.16303  Biso   1.000  C
  C37      1.0000 0.83410  0.57640  0.33697  Biso   1.000  C
  C38      1.0000 0.42360  0.83410  0.33697  Biso   1.000  C
  C39      1.0000 0.57640  0.16590  0.33697  Biso   1.000  C
  C40      1.0000 0.57640  0.83410  0.66303  Biso   1.000  C
  C41      1.0000 0.66590  0.92360  0.83697  Biso   1.000  C
  C42      1.0000 0.66590  0.07640  0.16303  Biso   1.000  C
  C43      1.0000 0.33410  0.92360  0.16303  Biso   1.000  C
  C44      1.0000 0.92360  0.66590  0.16303  Biso   1.000  C
  C45      1.0000 0.16590  0.42360  0.33697  Biso   1.000  C
  C46      1.0000 0.16590  0.57640  0.66303  Biso   1.000  C
  C47      1.0000 0.83410  0.42360  0.66303  Biso   1.000  C
  C48      1.0000 0.42360  0.16590  0.66303  Biso   1.000  C
  C49      1.0000 0.66590  0.92360  0.16303  Biso   1.000  C
  C50      1.0000 0.07640  0.66590  0.16303  Biso   1.000  C
  C51      1.0000 0.92360  0.33410  0.16303  Biso   1.000  C
  C52      1.0000 0.92360  0.66590  0.83697  Biso   1.000  C
  C53      1.0000 0.16590  0.42360  0.66303  Biso   1.000  C
  C54      1.0000 0.57640  0.16590  0.66303  Biso   1.000  C
  C55      1.0000 0.42360  0.83410  0.66303  Biso   1.000  C
  C56      1.0000 0.42360  0.16590  0.33697  Biso   1.000  C
  C57      1.0000 0.33410  0.07640  0.16303  Biso   1.000  C
  C58      1.0000 0.33410  0.92360  0.83697  Biso   1.000  C
  C59      1.0000 0.66590  0.07640  0.83697  Biso   1.000  C
  C60      1.0000 0.07640  0.33410  0.83697  Biso   1.000  C
  C61      1.0000 0.83410  0.57640  0.66303  Biso   1.000  C
  C62      1.0000 0.83410  0.42360  0.33697  Biso   1.000  C
  C63      1.0000 0.16590  0.57640  0.33697  Biso   1.000  C
  C64      1.0000 0.57640  0.83410  0.33697  Biso   1.000  C
  H1       1.0000 0.31430  0.12860  0.84850  Biso   1.000  H
  H2       1.0000 0.87140  0.31430  0.84850  Biso   1.000  H
  H3       1.0000 0.12860  0.68570  0.84850  Biso   1.000  H
  H4       1.0000 0.12860  0.31430  0.15150  Biso   1.000  H
  H5       1.0000 0.81430  0.62860  0.34850  Biso   1.000  H
  H6       1.0000 0.37140  0.81430  0.34850  Biso   1.000  H
  H7       1.0000 0.62860  0.18570  0.34850  Biso   1.000  H
  H8       1.0000 0.62860  0.81430  0.65150  Biso   1.000  H
  H9       1.0000 0.68570  0.87140  0.84850  Biso   1.000  H
  H10      1.0000 0.68570  0.12860  0.15150  Biso   1.000  H
  H11      1.0000 0.31430  0.87140  0.15150  Biso   1.000  H
  H12      1.0000 0.87140  0.68570  0.15150  Biso   1.000  H
  H13      1.0000 0.18570  0.37140  0.34850  Biso   1.000  H
  H14      1.0000 0.18570  0.62860  0.65150  Biso   1.000  H
  H15      1.0000 0.81430  0.37140  0.65150  Biso   1.000  H
  H16      1.0000 0.37140  0.18570  0.65150  Biso   1.000  H
  H17      1.0000 0.68570  0.87140  0.15150  Biso   1.000  H
  H18      1.0000 0.12860  0.68570  0.15150  Biso   1.000  H
  H19      1.0000 0.87140  0.31430  0.15150  Biso   1.000  H
  H20      1.0000 0.87140  0.68570  0.84850  Biso   1.000  H
  H21      1.0000 0.18570  0.37140  0.65150  Biso   1.000  H
  H22      1.0000 0.62860  0.18570  0.65150  Biso   1.000  H
  H23      1.0000 0.37140  0.81430  0.65150  Biso   1.000  H
  H24      1.0000 0.37140  0.18570  0.34850  Biso   1.000  H
  H25      1.0000 0.31430  0.12860  0.15150  Biso   1.000  H
  H26      1.0000 0.31430  0.87140  0.84850  Biso   1.000  H
  H27      1.0000 0.68570  0.12860  0.84850  Biso   1.000  H
  H28      1.0000 0.12860  0.31430  0.84850  Biso   1.000  H
  H29      1.0000 0.81430  0.62860  0.65150  Biso   1.000  H
  H30      1.0000 0.81430  0.37140  0.34850  Biso   1.000  H
  H31      1.0000 0.18570  0.62860  0.34850  Biso   1.000  H
  H32      1.0000 0.62860  0.81430  0.34850  Biso   1.000  H
  C65      1.0000 0.39170  0.07610  0.80126  Biso   1.000  C
  C66      1.0000 0.92390  0.39170  0.80126  Biso   1.000  C
  C67      1.0000 0.07610  0.60830  0.80126  Biso   1.000  C
  C68      1.0000 0.07610  0.39170  0.19874  Biso   1.000  C
  C69      1.0000 0.89170  0.57610  0.30126  Biso   1.000  C
  C70      1.0000 0.42390  0.89170  0.30126  Biso   1.000  C
  C71      1.0000 0.57610  0.10830  0.30126  Biso   1.000  C
  C72      1.0000 0.57610  0.89170  0.69874  Biso   1.000  C
  C73      1.0000 0.60830  0.92390  0.80126  Biso   1.000  C
  C74      1.0000 0.60830  0.07610  0.19874  Biso   1.000  C
  C75      1.0000 0.39170  0.92390  0.19874  Biso   1.000  C
  C76      1.0000 0.92390  0.60830  0.19874  Biso   1.000  C
  C77      1.0000 0.10830  0.42390  0.30126  Biso   1.000  C
  C78      1.0000 0.10830  0.57610  0.69874  Biso   1.000  C
  C79      1.0000 0.89170  0.42390  0.69874  Biso   1.000  C
  C80      1.0000 0.42390  0.10830  0.69874  Biso   1.000  C
  C81      1.0000 0.60830  0.92390  0.19874  Biso   1.000  C
  C82      1.0000 0.07610  0.60830  0.19874  Biso   1.000  C
  C83      1.0000 0.92390  0.39170  0.19874  Biso   1.000  C
  C84      1.0000 0.92390  0.60830  0.80126  Biso   1.000  C
  C85      1.0000 0.10830  0.42390  0.69874  Biso   1.000  C
  C86      1.0000 0.57610  0.10830  0.69874  Biso   1.000  C
  C87      1.0000 0.42390  0.89170  0.69874  Biso   1.000  C
  C88      1.0000 0.42390  0.10830  0.30126  Biso   1.000  C
  C89      1.0000 0.39170  0.07610  0.19874  Biso   1.000  C
  C90      1.0000 0.39170  0.92390  0.80126  Biso   1.000  C
  C91      1.0000 0.60830  0.07610  0.80126  Biso   1.000  C
  C92      1.0000 0.07610  0.39170  0.80126  Biso   1.000  C
  C93      1.0000 0.89170  0.57610  0.69874  Biso   1.000  C
  C94      1.0000 0.89170  0.42390  0.30126  Biso   1.000  C
  C95      1.0000 0.10830  0.57610  0.30126  Biso   1.000  C
  C96      1.0000 0.57610  0.89170  0.30126  Biso   1.000  C
  H33      1.0000 0.40990  0.12840  0.78910  Biso   1.000  H
  H34      1.0000 0.87160  0.40990  0.78910  Biso   1.000  H
  H35      1.0000 0.12840  0.59010  0.78910  Biso   1.000  H
  H36      1.0000 0.12840  0.40990  0.21090  Biso   1.000  H
  H37      1.0000 0.90990  0.62840  0.28910  Biso   1.000  H
  H38      1.0000 0.37160  0.90990  0.28910  Biso   1.000  H
  H39      1.0000 0.62840  0.09010  0.28910  Biso   1.000  H
  H40      1.0000 0.62840  0.90990  0.71090  Biso   1.000  H
  H41      1.0000 0.59010  0.87160  0.78910  Biso   1.000  H
  H42      1.0000 0.59010  0.12840  0.21090  Biso   1.000  H
  H43      1.0000 0.40990  0.87160  0.21090  Biso   1.000  H
  H44      1.0000 0.87160  0.59010  0.21090  Biso   1.000  H
  H45      1.0000 0.09010  0.37160  0.28910  Biso   1.000  H
  H46      1.0000 0.09010  0.62840  0.71090  Biso   1.000  H
  H47      1.0000 0.90990  0.37160  0.71090  Biso   1.000  H
  H48      1.0000 0.37160  0.09010  0.71090  Biso   1.000  H
  H49      1.0000 0.59010  0.87160  0.21090  Biso   1.000  H
  H50      1.0000 0.12840  0.59010  0.21090  Biso   1.000  H
  H51      1.0000 0.87160  0.40990  0.21090  Biso   1.000  H
  H52      1.0000 0.87160  0.59010  0.78910  Biso   1.000  H
  H53      1.0000 0.09010  0.37160  0.71090  Biso   1.000  H
  H54      1.0000 0.62840  0.09010  0.71090  Biso   1.000  H
  H55      1.0000 0.37160  0.90990  0.71090  Biso   1.000  H
  H56      1.0000 0.37160  0.09010  0.28910  Biso   1.000  H
  H57      1.0000 0.40990  0.12840  0.21090  Biso   1.000  H
  H58      1.0000 0.40990  0.87160  0.78910  Biso   1.000  H
  H59      1.0000 0.59010  0.12840  0.78910  Biso   1.000  H
  H60      1.0000 0.12840  0.40990  0.78910  Biso   1.000  H
  H61      1.0000 0.90990  0.62840  0.71090  Biso   1.000  H
  H62      1.0000 0.90990  0.37160  0.28910  Biso   1.000  H
  H63      1.0000 0.09010  0.62840  0.28910  Biso   1.000  H
  H64      1.0000 0.62840  0.90990  0.28910  Biso   1.000  H
  C97      1.0000 0.42300  0.00000  0.78314  Biso   1.000  C
  C98      1.0000 0.00000  0.42300  0.78314  Biso   1.000  C
  C99      1.0000 0.00000  0.57700  0.78314  Biso   1.000  C
  C100     1.0000 0.00000  0.42300  0.21686  Biso   1.000  C
  C101     1.0000 0.92300  0.50000  0.28314  Biso   1.000  C
  C102     1.0000 0.50000  0.92300  0.28314  Biso   1.000  C
  C103     1.0000 0.50000  0.07700  0.28314  Biso   1.000  C
  C104     1.0000 0.50000  0.92300  0.71686  Biso   1.000  C
  C105     1.0000 0.57700  0.00000  0.78314  Biso   1.000  C
  C106     1.0000 0.57700  0.00000  0.21686  Biso   1.000  C
  C107     1.0000 0.42300  0.00000  0.21686  Biso   1.000  C
  C108     1.0000 0.00000  0.57700  0.21686  Biso   1.000  C
  C109     1.0000 0.07700  0.50000  0.28314  Biso   1.000  C
  C110     1.0000 0.07700  0.50000  0.71686  Biso   1.000  C
  C111     1.0000 0.92300  0.50000  0.71686  Biso   1.000  C
  C112     1.0000 0.50000  0.07700  0.71686  Biso   1.000  C
  C113     1.0000 0.50000  0.00000  0.75000  Biso   1.000  C
  C114     1.0000 0.00000  0.50000  0.75000  Biso   1.000  C
  C115     1.0000 0.00000  0.50000  0.25000  Biso   1.000  C
  C116     1.0000 0.50000  0.00000  0.25000  Biso   1.000  C
  O1       1.0000 0.21400  0.21400  0.00000  Biso   1.000  O
  O2       1.0000 0.78600  0.21400  0.00000  Biso   1.000  O
  O3       1.0000 0.21400  0.78600  0.00000  Biso   1.000  O
  O4       1.0000 0.71400  0.71400  0.50000  Biso   1.000  O
  O5       1.0000 0.28600  0.71400  0.50000  Biso   1.000  O
  O6       1.0000 0.71400  0.28600  0.50000  Biso   1.000  O
  O7       1.0000 0.78600  0.78600  0.00000  Biso   1.000  O
  O8       1.0000 0.28600  0.28600  0.50000  Biso   1.000  O
  O9       1.0000 0.30810  0.30810  0.18710  Biso   1.000  O
  O10      1.0000 0.69190  0.30810  0.18710  Biso   1.000  O
  O11      1.0000 0.30810  0.69190  0.18710  Biso   1.000  O
  O12      1.0000 0.30810  0.30810  0.81290  Biso   1.000  O
  O13      1.0000 0.80810  0.80810  0.68710  Biso   1.000  O
  O14      1.0000 0.19190  0.80810  0.68710  Biso   1.000  O
  O15      1.0000 0.80810  0.19190  0.68710  Biso   1.000  O
  O16      1.0000 0.80810  0.80810  0.31290  Biso   1.000  O
  O17      1.0000 0.69190  0.69190  0.18710  Biso   1.000  O
  O18      1.0000 0.69190  0.30810  0.81290  Biso   1.000  O
  O19      1.0000 0.30810  0.69190  0.81290  Biso   1.000  O
  O20      1.0000 0.69190  0.69190  0.81290  Biso   1.000  O
  O21      1.0000 0.19190  0.19190  0.68710  Biso   1.000  O
  O22      1.0000 0.19190  0.80810  0.31290  Biso   1.000  O
  O23      1.0000 0.80810  0.19190  0.31290  Biso   1.000  O
  O24      1.0000 0.19190  0.19190  0.31290  Biso   1.000  O
  O25      1.0000 0.26770  0.26770  0.10010  Biso   1.000  O
  O26      1.0000 0.73230  0.26770  0.10010  Biso   1.000  O
  O27      1.0000 0.26770  0.73230  0.10010  Biso   1.000  O
  O28      1.0000 0.26770  0.26770  0.89990  Biso   1.000  O
  O29      1.0000 0.76770  0.76770  0.60010  Biso   1.000  O
  O30      1.0000 0.23230  0.76770  0.60010  Biso   1.000  O
  O31      1.0000 0.76770  0.23230  0.60010  Biso   1.000  O
  O32      1.0000 0.76770  0.76770  0.39990  Biso   1.000  O
  O33      1.0000 0.73230  0.73230  0.10010  Biso   1.000  O
  O34      1.0000 0.73230  0.26770  0.89990  Biso   1.000  O
  O35      1.0000 0.26770  0.73230  0.89990  Biso   1.000  O
  O36      1.0000 0.73230  0.73230  0.89990  Biso   1.000  O
  O37      1.0000 0.23230  0.23230  0.60010  Biso   1.000  O
  O38      1.0000 0.23230  0.76770  0.39990  Biso   1.000  O
  O39      1.0000 0.76770  0.23230  0.39990  Biso   1.000  O
  O40      1.0000 0.23230  0.23230  0.39990  Biso   1.000  O
  O41      1.0000 0.30960  0.30960  0.11820  Biso   1.000  O
  O42      1.0000 0.69040  0.30960  0.11820  Biso   1.000  O
  O43      1.0000 0.30960  0.69040  0.11820  Biso   1.000  O
  O44      1.0000 0.30960  0.30960  0.88180  Biso   1.000  O
  O45      1.0000 0.80960  0.80960  0.61820  Biso   1.000  O
  O46      1.0000 0.19040  0.80960  0.61820  Biso   1.000  O
  O47      1.0000 0.80960  0.19040  0.61820  Biso   1.000  O
  O48      1.0000 0.80960  0.80960  0.38180  Biso   1.000  O
  O49      1.0000 0.69040  0.69040  0.11820  Biso   1.000  O
  O50      1.0000 0.69040  0.30960  0.88180  Biso   1.000  O
  O51      1.0000 0.30960  0.69040  0.88180  Biso   1.000  O
  O52      1.0000 0.69040  0.69040  0.88180  Biso   1.000  O
  O53      1.0000 0.19040  0.19040  0.61820  Biso   1.000  O
  O54      1.0000 0.19040  0.80960  0.38180  Biso   1.000  O
  O55      1.0000 0.80960  0.19040  0.38180  Biso   1.000  O
  O56      1.0000 0.19040  0.19040  0.38180  Biso   1.000  O
  O57      1.0000 0.18100  0.18100  0.84510  Biso   1.000  O
  O58      1.0000 0.81900  0.18100  0.84510  Biso   1.000  O
  O59      1.0000 0.18100  0.81900  0.84510  Biso   1.000  O
  O60      1.0000 0.18100  0.18100  0.15490  Biso   1.000  O
  O61      1.0000 0.68100  0.68100  0.34510  Biso   1.000  O
  O62      1.0000 0.31900  0.68100  0.34510  Biso   1.000  O
  O63      1.0000 0.68100  0.31900  0.34510  Biso   1.000  O
  O64      1.0000 0.68100  0.68100  0.65490  Biso   1.000  O
  O65      1.0000 0.81900  0.81900  0.84510  Biso   1.000  O
  O66      1.0000 0.81900  0.18100  0.15490  Biso   1.000  O
  O67      1.0000 0.18100  0.81900  0.15490  Biso   1.000  O
  O68      1.0000 0.81900  0.81900  0.15490  Biso   1.000  O
  O69      1.0000 0.31900  0.31900  0.34510  Biso   1.000  O
  O70      1.0000 0.31900  0.68100  0.65490  Biso   1.000  O
  O71      1.0000 0.68100  0.31900  0.65490  Biso   1.000  O
  O72      1.0000 0.31900  0.31900  0.65490  Biso   1.000  O
  O73      1.0000 0.30200  0.50000  0.19500  Biso   1.000  O
  O74      1.0000 0.50000  0.30200  0.19500  Biso   1.000  O
  O75      1.0000 0.50000  0.69800  0.19500  Biso   1.000  O
  O76      1.0000 0.50000  0.30200  0.80500  Biso   1.000  O
  O77      1.0000 0.80200  0.00000  0.69500  Biso   1.000  O
  O78      1.0000 0.00000  0.80200  0.69500  Biso   1.000  O
  O79      1.0000 0.00000  0.19800  0.69500  Biso   1.000  O
  O80      1.0000 0.00000  0.80200  0.30500  Biso   1.000  O
  O81      1.0000 0.69800  0.50000  0.19500  Biso   1.000  O
  O82      1.0000 0.69800  0.50000  0.80500  Biso   1.000  O
  O83      1.0000 0.30200  0.50000  0.80500  Biso   1.000  O
  O84      1.0000 0.50000  0.69800  0.80500  Biso   1.000  O
  O85      1.0000 0.19800  0.00000  0.69500  Biso   1.000  O
  O86      1.0000 0.19800  0.00000  0.30500  Biso   1.000  O
  O87      1.0000 0.80200  0.00000  0.30500  Biso   1.000  O
  O88      1.0000 0.00000  0.19800  0.30500  Biso   1.000  O
  O89      1.0000 0.00000  0.00000  0.12910  Biso   1.000  O
  O90      1.0000 0.00000  0.00000  0.87090  Biso   1.000  O
  O91      1.0000 0.50000  0.50000  0.62910  Biso   1.000  O
  O92      1.0000 0.50000  0.50000  0.37090  Biso   1.000  O
  O93      1.0000 0.00000  0.50000  0.07730  Biso   1.000  O
  O94      1.0000 0.50000  0.00000  0.07730  Biso   1.000  O
  O95      1.0000 0.50000  0.00000  0.92270  Biso   1.000  O
  O96      1.0000 0.50000  0.00000  0.57730  Biso   1.000  O
  O97      1.0000 0.00000  0.50000  0.57730  Biso   1.000  O
  O98      1.0000 0.00000  0.50000  0.42270  Biso   1.000  O
  O99      1.0000 0.00000  0.50000  0.92270  Biso   1.000  O
  O100     1.0000 0.50000  0.00000  0.42270  Biso   1.000  O
  C117     1.0000 0.29420  0.29420  0.21980  Biso   1.000  C
  C118     1.0000 0.70580  0.29420  0.21980  Biso   1.000  C
  C119     1.0000 0.29420  0.70580  0.21980  Biso   1.000  C
  C120     1.0000 0.29420  0.29420  0.78020  Biso   1.000  C
  C121     1.0000 0.79420  0.79420  0.71980  Biso   1.000  C
  C122     1.0000 0.20580  0.79420  0.71980  Biso   1.000  C
  C123     1.0000 0.79420  0.20580  0.71980  Biso   1.000  C
  C124     1.0000 0.79420  0.79420  0.28020  Biso   1.000  C
  C125     1.0000 0.70580  0.70580  0.21980  Biso   1.000  C
  C126     1.0000 0.70580  0.29420  0.78020  Biso   1.000  C
  C127     1.0000 0.29420  0.70580  0.78020  Biso   1.000  C
  C128     1.0000 0.70580  0.70580  0.78020  Biso   1.000  C
  C129     1.0000 0.20580  0.20580  0.71980  Biso   1.000  C
  C130     1.0000 0.20580  0.79420  0.28020  Biso   1.000  C
  C131     1.0000 0.79420  0.20580  0.28020  Biso   1.000  C
  C132     1.0000 0.20580  0.20580  0.28020  Biso   1.000  C
  Cu9      1.0000 0.21160  0.21160  0.90524  Biso   1.000  Cu
  Cu10     1.0000 0.78840  0.21160  0.90524  Biso   1.000  Cu
  Cu11     1.0000 0.21160  0.78840  0.90524  Biso   1.000  Cu
  Cu12     1.0000 0.21160  0.21160  0.09476  Biso   1.000  Cu
  Cu13     1.0000 0.71160  0.71160  0.40524  Biso   1.000  Cu
  Cu14     1.0000 0.28840  0.71160  0.40524  Biso   1.000  Cu
  Cu15     1.0000 0.71160  0.28840  0.40524  Biso   1.000  Cu
  Cu16     1.0000 0.71160  0.71160  0.59476  Biso   1.000  Cu
  Cu17     1.0000 0.78840  0.78840  0.90524  Biso   1.000  Cu
  Cu18     1.0000 0.78840  0.21160  0.09476  Biso   1.000  Cu
  Cu19     1.0000 0.21160  0.78840  0.09476  Biso   1.000  Cu
  Cu20     1.0000 0.78840  0.78840  0.09476  Biso   1.000  Cu
  Cu21     1.0000 0.28840  0.28840  0.40524  Biso   1.000  Cu
  Cu22     1.0000 0.28840  0.71160  0.59476  Biso   1.000  Cu
  Cu23     1.0000 0.71160  0.28840  0.59476  Biso   1.000  Cu
  Cu24     1.0000 0.28840  0.28840  0.59476  Biso   1.000  Cu
  Cl3      1.0000 0.23400  0.23400  0.01800  Biso   1.000  Cl
  Cl4      1.0000 0.76600  0.23400  0.01800  Biso   1.000  Cl
  Cl5      1.0000 0.23400  0.76600  0.01800  Biso   1.000  Cl
  Cl6      1.0000 0.23400  0.23400  0.98200  Biso   1.000  Cl
  Cl7      1.0000 0.73400  0.73400  0.51800  Biso   1.000  Cl
  Cl8      1.0000 0.26600  0.73400  0.51800  Biso   1.000  Cl
  Cl9      1.0000 0.73400  0.26600  0.51800  Biso   1.000  Cl
  Cl10     1.0000 0.73400  0.73400  0.48200  Biso   1.000  Cl
  Cl11     1.0000 0.76600  0.76600  0.01800  Biso   1.000  Cl
  Cl12     1.0000 0.76600  0.23400  0.98200  Biso   1.000  Cl
  Cl13     1.0000 0.23400  0.76600  0.98200  Biso   1.000  Cl
  Cl14     1.0000 0.76600  0.76600  0.98200  Biso   1.000  Cl
  Cl15     1.0000 0.26600  0.26600  0.51800  Biso   1.000  Cl
  Cl16     1.0000 0.26600  0.73400  0.48200  Biso   1.000  Cl
  Cl17     1.0000 0.73400  0.26600  0.48200  Biso   1.000  Cl
  Cl18     1.0000 0.26600  0.26600  0.48200  Biso   1.000  Cl
  C133     1.0000 0.00000  0.05130  0.17280  Biso   1.000  C
  C134     1.0000 0.94870  0.00000  0.17280  Biso   1.000  C
  C135     1.0000 0.05130  0.00000  0.17280  Biso   1.000  C
  C136     1.0000 0.05130  0.00000  0.82720  Biso   1.000  C
  C137     1.0000 0.50000  0.55130  0.67280  Biso   1.000  C
  C138     1.0000 0.44870  0.50000  0.67280  Biso   1.000  C
  C139     1.0000 0.55130  0.50000  0.67280  Biso   1.000  C
  C140     1.0000 0.55130  0.50000  0.32720  Biso   1.000  C
  C141     1.0000 0.00000  0.94870  0.17280  Biso   1.000  C
  C142     1.0000 0.00000  0.05130  0.82720  Biso   1.000  C
  C143     1.0000 0.00000  0.94870  0.82720  Biso   1.000  C
  C144     1.0000 0.94870  0.00000  0.82720  Biso   1.000  C
  C145     1.0000 0.50000  0.44870  0.67280  Biso   1.000  C
  C146     1.0000 0.50000  0.55130  0.32720  Biso   1.000  C
  C147     1.0000 0.50000  0.44870  0.32720  Biso   1.000  C
  C148     1.0000 0.44870  0.50000  0.32720  Biso   1.000  C
  C149     1.0000 0.00000  0.42700  0.04420  Biso   1.000  C
  C150     1.0000 0.57300  0.00000  0.04420  Biso   1.000  C
  C151     1.0000 0.42700  0.00000  0.04420  Biso   1.000  C
  C152     1.0000 0.42700  0.00000  0.95580  Biso   1.000  C
  C153     1.0000 0.50000  0.92700  0.54420  Biso   1.000  C
  C154     1.0000 0.07300  0.50000  0.54420  Biso   1.000  C
  C155     1.0000 0.92700  0.50000  0.54420  Biso   1.000  C
  C156     1.0000 0.92700  0.50000  0.45580  Biso   1.000  C
  C157     1.0000 0.00000  0.57300  0.04420  Biso   1.000  C
  C158     1.0000 0.00000  0.42700  0.95580  Biso   1.000  C
  C159     1.0000 0.00000  0.57300  0.95580  Biso   1.000  C
  C160     1.0000 0.57300  0.00000  0.95580  Biso   1.000  C
  C161     1.0000 0.50000  0.07300  0.54420  Biso   1.000  C
  C162     1.0000 0.50000  0.92700  0.45580  Biso   1.000  C
  C163     1.0000 0.50000  0.07300  0.45580  Biso   1.000  C
  C164     1.0000 0.07300  0.50000  0.45580  Biso   1.000  C
  C165     1.0000 0.07340  0.07340  0.18830  Biso   1.000  C
  C166     1.0000 0.92660  0.07340  0.18830  Biso   1.000  C
  C167     1.0000 0.07340  0.92660  0.18830  Biso   1.000  C
  C168     1.0000 0.07340  0.07340  0.81170  Biso   1.000  C
  C169     1.0000 0.57340  0.57340  0.68830  Biso   1.000  C
  C170     1.0000 0.42660  0.57340  0.68830  Biso   1.000  C
  C171     1.0000 0.57340  0.42660  0.68830  Biso   1.000  C
  C172     1.0000 0.57340  0.57340  0.31170  Biso   1.000  C
  C173     1.0000 0.92660  0.92660  0.18830  Biso   1.000  C
  C174     1.0000 0.92660  0.07340  0.81170  Biso   1.000  C
  C175     1.0000 0.07340  0.92660  0.81170  Biso   1.000  C
  C176     1.0000 0.92660  0.92660  0.81170  Biso   1.000  C
  C177     1.0000 0.42660  0.42660  0.68830  Biso   1.000  C
  C178     1.0000 0.42660  0.57340  0.31170  Biso   1.000  C
  C179     1.0000 0.57340  0.42660  0.31170  Biso   1.000  C
  C180     1.0000 0.42660  0.42660  0.31170  Biso   1.000  C
  C181     1.0000 0.04900  0.43400  0.05180  Biso   1.000  C
  C182     1.0000 0.56600  0.04900  0.05180  Biso   1.000  C
  C183     1.0000 0.43400  0.95100  0.05180  Biso   1.000  C
  C184     1.0000 0.43400  0.04900  0.94820  Biso   1.000  C
  C185     1.0000 0.54900  0.93400  0.55180  Biso   1.000  C
  C186     1.0000 0.06600  0.54900  0.55180  Biso   1.000  C
  C187     1.0000 0.93400  0.45100  0.55180  Biso   1.000  C
  C188     1.0000 0.93400  0.54900  0.44820  Biso   1.000  C
  C189     1.0000 0.95100  0.56600  0.05180  Biso   1.000  C
  C190     1.0000 0.95100  0.43400  0.94820  Biso   1.000  C
  C191     1.0000 0.04900  0.56600  0.94820  Biso   1.000  C
  C192     1.0000 0.56600  0.95100  0.94820  Biso   1.000  C
  C193     1.0000 0.45100  0.06600  0.55180  Biso   1.000  C
  C194     1.0000 0.45100  0.93400  0.44820  Biso   1.000  C
  C195     1.0000 0.54900  0.06600  0.44820  Biso   1.000  C
  C196     1.0000 0.06600  0.45100  0.44820  Biso   1.000  C
  C197     1.0000 0.95100  0.56600  0.94820  Biso   1.000  C
  C198     1.0000 0.43400  0.95100  0.94820  Biso   1.000  C
  C199     1.0000 0.56600  0.04900  0.94820  Biso   1.000  C
  C200     1.0000 0.56600  0.95100  0.05180  Biso   1.000  C
  C201     1.0000 0.45100  0.06600  0.44820  Biso   1.000  C
  C202     1.0000 0.93400  0.45100  0.44820  Biso   1.000  C
  C203     1.0000 0.06600  0.54900  0.44820  Biso   1.000  C
  C204     1.0000 0.06600  0.45100  0.55180  Biso   1.000  C
  C205     1.0000 0.04900  0.43400  0.94820  Biso   1.000  C
  C206     1.0000 0.04900  0.56600  0.05180  Biso   1.000  C
  C207     1.0000 0.95100  0.43400  0.05180  Biso   1.000  C
  C208     1.0000 0.43400  0.04900  0.05180  Biso   1.000  C
  C209     1.0000 0.54900  0.93400  0.44820  Biso   1.000  C
  C210     1.0000 0.54900  0.06600  0.55180  Biso   1.000  C
  C211     1.0000 0.45100  0.93400  0.55180  Biso   1.000  C
  C212     1.0000 0.93400  0.54900  0.55180  Biso   1.000  C
  C213     1.0000 0.03630  0.38700  0.01940  Biso   1.000  C
  C214     1.0000 0.61300  0.03630  0.01940  Biso   1.000  C
  C215     1.0000 0.38700  0.96370  0.01940  Biso   1.000  C
  C216     1.0000 0.38700  0.03630  0.98060  Biso   1.000  C
  C217     1.0000 0.53630  0.88700  0.51940  Biso   1.000  C
  C218     1.0000 0.11300  0.53630  0.51940  Biso   1.000  C
  C219     1.0000 0.88700  0.46370  0.51940  Biso   1.000  C
  C220     1.0000 0.88700  0.53630  0.48060  Biso   1.000  C
  C221     1.0000 0.96370  0.61300  0.01940  Biso   1.000  C
  C222     1.0000 0.96370  0.38700  0.98060  Biso   1.000  C
  C223     1.0000 0.03630  0.61300  0.98060  Biso   1.000  C
  C224     1.0000 0.61300  0.96370  0.98060  Biso   1.000  C
  C225     1.0000 0.46370  0.11300  0.51940  Biso   1.000  C
  C226     1.0000 0.46370  0.88700  0.48060  Biso   1.000  C
  C227     1.0000 0.53630  0.11300  0.48060  Biso   1.000  C
  C228     1.0000 0.11300  0.46370  0.48060  Biso   1.000  C
  C229     1.0000 0.96370  0.61300  0.98060  Biso   1.000  C
  C230     1.0000 0.38700  0.96370  0.98060  Biso   1.000  C
  C231     1.0000 0.61300  0.03630  0.98060  Biso   1.000  C
  C232     1.0000 0.61300  0.96370  0.01940  Biso   1.000  C
  C233     1.0000 0.46370  0.11300  0.48060  Biso   1.000  C
  C234     1.0000 0.88700  0.46370  0.48060  Biso   1.000  C
  C235     1.0000 0.11300  0.53630  0.48060  Biso   1.000  C
  C236     1.0000 0.11300  0.46370  0.51940  Biso   1.000  C
  C237     1.0000 0.03630  0.38700  0.98060  Biso   1.000  C
  C238     1.0000 0.03630  0.61300  0.01940  Biso   1.000  C
  C239     1.0000 0.96370  0.38700  0.01940  Biso   1.000  C
  C240     1.0000 0.38700  0.03630  0.01940  Biso   1.000  C
  C241     1.0000 0.53630  0.88700  0.48060  Biso   1.000  C
  C242     1.0000 0.53630  0.11300  0.51940  Biso   1.000  C
  C243     1.0000 0.46370  0.88700  0.51940  Biso   1.000  C
  C244     1.0000 0.88700  0.53630  0.51940  Biso   1.000  C
  O101     1.0000 0.50000  0.50000  0.00000  Biso   1.000  O
  O102     1.0000 0.00000  0.00000  0.50000  Biso   1.000  O
  O103     1.0000 0.30700  0.30700  0.24600  Biso   1.000  O
  O104     1.0000 0.69300  0.30700  0.24600  Biso   1.000  O
  O105     1.0000 0.30700  0.69300  0.24600  Biso   1.000  O
  O106     1.0000 0.30700  0.30700  0.75400  Biso   1.000  O
  O107     1.0000 0.80700  0.80700  0.74600  Biso   1.000  O
  O108     1.0000 0.19300  0.80700  0.74600  Biso   1.000  O
  O109     1.0000 0.80700  0.19300  0.74600  Biso   1.000  O
  O110     1.0000 0.80700  0.80700  0.25400  Biso   1.000  O
  O111     1.0000 0.69300  0.69300  0.24600  Biso   1.000  O
  O112     1.0000 0.69300  0.30700  0.75400  Biso   1.000  O
  O113     1.0000 0.30700  0.69300  0.75400  Biso   1.000  O
  O114     1.0000 0.69300  0.69300  0.75400  Biso   1.000  O
  O115     1.0000 0.19300  0.19300  0.74600  Biso   1.000  O
  O116     1.0000 0.19300  0.80700  0.25400  Biso   1.000  O
  O117     1.0000 0.80700  0.19300  0.25400  Biso   1.000  O
  O118     1.0000 0.19300  0.19300  0.25400  Biso   1.000  O
