data_image0
_cell_length_a       13.9382
_cell_length_b       20.03
_cell_length_c       17.1757
_cell_angle_alpha    90
_cell_angle_beta     94.054
_cell_angle_gamma    90

_symmetry_space_group_name_H-M    "P 1"
_symmetry_int_tables_number       1

loop_
  _symmetry_equiv_pos_as_xyz
  'x, y, z'

loop_
  _atom_site_label
  _atom_site_occupancy
  _atom_site_fract_x
  _atom_site_fract_y
  _atom_site_fract_z
  _atom_site_thermal_displace_type
  _atom_site_B_iso_or_equiv
  _atom_site_type_symbol
  P1       1.0000 0.00000  0.00000  0.50000  Biso   1.000  P
  P2       1.0000 0.00000  0.50000  0.00000  Biso   1.000  P
  Mo1      1.0000 0.88847  0.03019  0.31117  Biso   1.000  Mo
  Mo2      1.0000 0.11153  0.53019  0.18883  Biso   1.000  Mo
  Mo3      1.0000 0.11153  0.96981  0.68883  Biso   1.000  Mo
  Mo4      1.0000 0.88847  0.46981  0.81117  Biso   1.000  Mo
  Mo5      1.0000 0.00660  0.12648  0.64324  Biso   1.000  Mo
  Mo6      1.0000 0.99340  0.62648  0.85676  Biso   1.000  Mo
  Mo7      1.0000 0.99340  0.87352  0.35676  Biso   1.000  Mo
  Mo8      1.0000 0.00660  0.37352  0.14324  Biso   1.000  Mo
  Mo9      1.0000 0.74553  0.99784  0.47076  Biso   1.000  Mo
  Mo10     1.0000 0.25447  0.49784  0.02924  Biso   1.000  Mo
  Mo11     1.0000 0.25447  0.00216  0.52924  Biso   1.000  Mo
  Mo12     1.0000 0.74553  0.50216  0.97076  Biso   1.000  Mo
  Mo13     1.0000 0.12768  0.15028  0.47083  Biso   1.000  Mo
  Mo14     1.0000 0.87232  0.65028  0.02917  Biso   1.000  Mo
  Mo15     1.0000 0.87232  0.84972  0.52917  Biso   1.000  Mo
  Mo16     1.0000 0.12768  0.34972  0.97083  Biso   1.000  Mo
  Mo17     1.0000 0.87206  0.15139  0.46175  Biso   1.000  Mo
  Mo18     1.0000 0.12794  0.65139  0.03825  Biso   1.000  Mo
  Mo19     1.0000 0.12794  0.84861  0.53825  Biso   1.000  Mo
  Mo20     1.0000 0.87206  0.34861  0.96175  Biso   1.000  Mo
  Mo21     1.0000 0.85619  0.98514  0.66206  Biso   1.000  Mo
  Mo22     1.0000 0.14381  0.48514  0.83794  Biso   1.000  Mo
  Mo23     1.0000 0.14381  0.01486  0.33794  Biso   1.000  Mo
  Mo24     1.0000 0.85619  0.51486  0.16206  Biso   1.000  Mo
  Mo25     1.0000 0.64144  0.09169  0.03188  Biso   1.000  Mo
  Mo26     1.0000 0.35856  0.59169  0.46812  Biso   1.000  Mo
  Mo27     1.0000 0.35856  0.90831  0.96812  Biso   1.000  Mo
  Mo28     1.0000 0.64144  0.40831  0.53188  Biso   1.000  Mo
  Mo29     1.0000 0.53352  0.99588  0.89813  Biso   1.000  Mo
  Mo30     1.0000 0.46648  0.49588  0.60187  Biso   1.000  Mo
  Mo31     1.0000 0.46648  0.00412  0.10187  Biso   1.000  Mo
  Mo32     1.0000 0.53352  0.50412  0.39813  Biso   1.000  Mo
  Mo33     1.0000 0.64684  0.91523  0.04479  Biso   1.000  Mo
  Mo34     1.0000 0.35316  0.41523  0.45521  Biso   1.000  Mo
  Mo35     1.0000 0.35316  0.08477  0.95521  Biso   1.000  Mo
  Mo36     1.0000 0.64684  0.58477  0.54479  Biso   1.000  Mo
  Cu1      1.0000 0.46934  0.16979  0.13030  Biso   1.000  Cu
  Cu2      1.0000 0.53066  0.66979  0.36970  Biso   1.000  Cu
  Cu3      1.0000 0.53066  0.83021  0.86970  Biso   1.000  Cu
  Cu4      1.0000 0.46934  0.33021  0.63030  Biso   1.000  Cu
  Cu5      1.0000 0.47818  0.84135  0.15130  Biso   1.000  Cu
  Cu6      1.0000 0.52182  0.34135  0.34870  Biso   1.000  Cu
  Cu7      1.0000 0.52182  0.15865  0.84870  Biso   1.000  Cu
  Cu8      1.0000 0.47818  0.65865  0.65130  Biso   1.000  Cu
  Cu9      1.0000 0.85727  0.00900  0.09319  Biso   1.000  Cu
  Cu10     1.0000 0.14273  0.50900  0.40681  Biso   1.000  Cu
  Cu11     1.0000 0.14273  0.99100  0.90681  Biso   1.000  Cu
  Cu12     1.0000 0.85727  0.49100  0.59319  Biso   1.000  Cu
  O1       1.0000 0.91060  0.03280  0.45630  Biso   1.000  O
  O2       1.0000 0.08940  0.53280  0.04370  Biso   1.000  O
  O3       1.0000 0.08940  0.96720  0.54370  Biso   1.000  O
  O4       1.0000 0.91060  0.46720  0.95630  Biso   1.000  O
  O5       1.0000 0.37100  0.00900  0.73160  Biso   1.000  O
  O6       1.0000 0.62900  0.50900  0.76840  Biso   1.000  O
  O7       1.0000 0.62900  0.99100  0.26840  Biso   1.000  O
  O8       1.0000 0.37100  0.49100  0.23160  Biso   1.000  O
  O9       1.0000 0.00200  0.07640  0.51020  Biso   1.000  O
  O10      1.0000 0.99800  0.57640  0.98980  Biso   1.000  O
  O11      1.0000 0.99800  0.92360  0.48980  Biso   1.000  O
  O12      1.0000 0.00200  0.42360  0.01020  Biso   1.000  O
  O13      1.0000 0.99370  0.01470  0.59080  Biso   1.000  O
  O14      1.0000 0.00630  0.51470  0.90920  Biso   1.000  O
  O15      1.0000 0.00630  0.98530  0.40920  Biso   1.000  O
  O16      1.0000 0.99370  0.48530  0.09080  Biso   1.000  O
  O17      1.0000 0.01590  0.04160  0.29030  Biso   1.000  O
  O18      1.0000 0.98410  0.54160  0.20970  Biso   1.000  O
  O19      1.0000 0.98410  0.95840  0.70970  Biso   1.000  O
  O20      1.0000 0.01590  0.45840  0.79030  Biso   1.000  O
  O21      1.0000 0.87650  0.11150  0.35710  Biso   1.000  O
  O22      1.0000 0.12350  0.61150  0.14290  Biso   1.000  O
  O23      1.0000 0.12350  0.88850  0.64290  Biso   1.000  O
  O24      1.0000 0.87650  0.38850  0.85710  Biso   1.000  O
  O25      1.0000 0.18970  0.21910  0.45830  Biso   1.000  O
  O26      1.0000 0.81030  0.71910  0.04170  Biso   1.000  O
  O27      1.0000 0.81030  0.78090  0.54170  Biso   1.000  O
  O28      1.0000 0.18970  0.28090  0.95830  Biso   1.000  O
  O29      1.0000 0.00370  0.17700  0.44060  Biso   1.000  O
  O30      1.0000 0.99630  0.67700  0.05940  Biso   1.000  O
  O31      1.0000 0.99630  0.82300  0.55940  Biso   1.000  O
  O32      1.0000 0.00370  0.32300  0.94060  Biso   1.000  O
  O33      1.0000 0.60250  0.86700  0.12120  Biso   1.000  O
  O34      1.0000 0.39750  0.36700  0.37880  Biso   1.000  O
  O35      1.0000 0.39750  0.13300  0.87880  Biso   1.000  O
  O36      1.0000 0.60250  0.63300  0.62120  Biso   1.000  O
  O37      1.0000 0.62640  0.00090  0.46050  Biso   1.000  O
  O38      1.0000 0.37360  0.50090  0.03950  Biso   1.000  O
  O39      1.0000 0.37360  0.99910  0.53950  Biso   1.000  O
  O40      1.0000 0.62640  0.49910  0.96050  Biso   1.000  O
  O41      1.0000 0.90800  0.16120  0.56490  Biso   1.000  O
  O42      1.0000 0.09200  0.66120  0.93510  Biso   1.000  O
  O43      1.0000 0.09200  0.83880  0.43510  Biso   1.000  O
  O44      1.0000 0.90800  0.33880  0.06490  Biso   1.000  O
  O45      1.0000 0.76470  0.00550  0.58430  Biso   1.000  O
  O46      1.0000 0.23530  0.50550  0.91570  Biso   1.000  O
  O47      1.0000 0.23530  0.99450  0.41570  Biso   1.000  O
  O48      1.0000 0.76470  0.49450  0.08430  Biso   1.000  O
  O49      1.0000 0.76830  0.90890  0.48320  Biso   1.000  O
  O50      1.0000 0.23170  0.40890  0.01680  Biso   1.000  O
  O51      1.0000 0.23170  0.09110  0.51680  Biso   1.000  O
  O52      1.0000 0.76830  0.59110  0.98320  Biso   1.000  O
  O53      1.0000 0.59660  0.14390  0.10370  Biso   1.000  O
  O54      1.0000 0.40340  0.64390  0.39630  Biso   1.000  O
  O55      1.0000 0.40340  0.85610  0.89630  Biso   1.000  O
  O56      1.0000 0.59660  0.35610  0.60370  Biso   1.000  O
  O57      1.0000 0.89960  0.07010  0.67220  Biso   1.000  O
  O58      1.0000 0.10040  0.57010  0.82780  Biso   1.000  O
  O59      1.0000 0.10040  0.92990  0.32780  Biso   1.000  O
  O60      1.0000 0.89960  0.42990  0.17220  Biso   1.000  O
  O61      1.0000 0.55260  0.06330  0.83720  Biso   1.000  O
  O62      1.0000 0.44740  0.56330  0.66280  Biso   1.000  O
  O63      1.0000 0.44740  0.93670  0.16280  Biso   1.000  O
  O64      1.0000 0.55260  0.43670  0.33720  Biso   1.000  O
  O65      1.0000 0.14160  0.10420  0.37800  Biso   1.000  O
  O66      1.0000 0.85840  0.60420  0.12200  Biso   1.000  O
  O67      1.0000 0.85840  0.89580  0.62200  Biso   1.000  O
  O68      1.0000 0.14160  0.39580  0.87800  Biso   1.000  O
  O69      1.0000 0.83240  0.04020  0.22410  Biso   1.000  O
  O70      1.0000 0.16760  0.54020  0.27590  Biso   1.000  O
  O71      1.0000 0.16760  0.95980  0.77590  Biso   1.000  O
  O72      1.0000 0.83240  0.45980  0.72410  Biso   1.000  O
  O73      1.0000 0.91070  0.93370  0.30840  Biso   1.000  O
  O74      1.0000 0.08930  0.43370  0.19160  Biso   1.000  O
  O75      1.0000 0.08930  0.06630  0.69160  Biso   1.000  O
  O76      1.0000 0.91070  0.56630  0.80840  Biso   1.000  O
  O77      1.0000 0.55690  0.92360  0.84610  Biso   1.000  O
  O78      1.0000 0.44310  0.42360  0.65390  Biso   1.000  O
  O79      1.0000 0.44310  0.07640  0.15390  Biso   1.000  O
  O80      1.0000 0.55690  0.57640  0.34610  Biso   1.000  O
  O81      1.0000 0.77580  0.09270  0.47710  Biso   1.000  O
  O82      1.0000 0.22420  0.59270  0.02290  Biso   1.000  O
  O83      1.0000 0.22420  0.90730  0.52290  Biso   1.000  O
  O84      1.0000 0.77580  0.40730  0.97710  Biso   1.000  O
  O85      1.0000 0.64620  0.14410  0.95320  Biso   1.000  O
  O86      1.0000 0.35380  0.64410  0.54680  Biso   1.000  O
  O87      1.0000 0.35380  0.85590  0.04680  Biso   1.000  O
  O88      1.0000 0.64620  0.35590  0.45320  Biso   1.000  O
  O89      1.0000 0.00250  0.18700  0.70710  Biso   1.000  O
  O90      1.0000 0.99750  0.68700  0.79290  Biso   1.000  O
  O91      1.0000 0.99750  0.81300  0.29290  Biso   1.000  O
  O92      1.0000 0.00250  0.31300  0.20710  Biso   1.000  O
  O93      1.0000 0.09120  0.03030  0.47450  Biso   1.000  O
  O94      1.0000 0.90880  0.53030  0.02550  Biso   1.000  O
  O95      1.0000 0.90880  0.96970  0.52550  Biso   1.000  O
  O96      1.0000 0.09120  0.46970  0.97450  Biso   1.000  O
  O97      1.0000 0.79280  0.97610  0.73850  Biso   1.000  O
  O98      1.0000 0.20720  0.47610  0.76150  Biso   1.000  O
  O99      1.0000 0.20720  0.02390  0.26150  Biso   1.000  O
  O100     1.0000 0.79280  0.52390  0.23850  Biso   1.000  O
  O101     1.0000 0.76480  0.93640  0.07770  Biso   1.000  O
  O102     1.0000 0.23520  0.43640  0.42230  Biso   1.000  O
  O103     1.0000 0.23520  0.06360  0.92230  Biso   1.000  O
  O104     1.0000 0.76480  0.56360  0.57770  Biso   1.000  O
  O105     1.0000 0.78010  0.00000  0.37100  Biso   1.000  O
  O106     1.0000 0.21990  0.50000  0.12900  Biso   1.000  O
  O107     1.0000 0.21990  0.00000  0.62900  Biso   1.000  O
  O108     1.0000 0.78010  0.50000  0.87100  Biso   1.000  O
  O109     1.0000 0.81490  0.22100  0.44150  Biso   1.000  O
  O110     1.0000 0.18510  0.72100  0.05850  Biso   1.000  O
  O111     1.0000 0.18510  0.77900  0.55850  Biso   1.000  O
  O112     1.0000 0.81490  0.27900  0.94150  Biso   1.000  O
  O113     1.0000 0.09640  0.15840  0.57790  Biso   1.000  O
  O114     1.0000 0.90360  0.65840  0.92210  Biso   1.000  O
  O115     1.0000 0.90360  0.84160  0.42210  Biso   1.000  O
  O116     1.0000 0.09640  0.34160  0.07790  Biso   1.000  O
  O117     1.0000 0.65690  0.85780  0.97260  Biso   1.000  O
  O118     1.0000 0.34310  0.35780  0.52740  Biso   1.000  O
  O119     1.0000 0.34310  0.14220  0.02740  Biso   1.000  O
  O120     1.0000 0.65690  0.64220  0.47260  Biso   1.000  O
  O121     1.0000 0.76150  0.07660  0.06460  Biso   1.000  O
  O122     1.0000 0.23850  0.57660  0.43540  Biso   1.000  O
  O123     1.0000 0.23850  0.92340  0.93540  Biso   1.000  O
  O124     1.0000 0.76150  0.42340  0.56460  Biso   1.000  O
  O125     1.0000 0.64990  0.00020  0.96570  Biso   1.000  O
  O126     1.0000 0.35010  0.50020  0.53430  Biso   1.000  O
  O127     1.0000 0.35010  0.99980  0.03430  Biso   1.000  O
  O128     1.0000 0.64990  0.49980  0.46570  Biso   1.000  O
  O129     1.0000 0.49770  0.06380  0.99590  Biso   1.000  O
  O130     1.0000 0.50230  0.56380  0.50410  Biso   1.000  O
  O131     1.0000 0.50230  0.93620  0.00410  Biso   1.000  O
  O132     1.0000 0.49770  0.43620  0.49590  Biso   1.000  O
  O133     1.0000 0.60050  0.00610  0.10680  Biso   1.000  O
  O134     1.0000 0.39950  0.50610  0.39320  Biso   1.000  O
  O135     1.0000 0.39950  0.99390  0.89320  Biso   1.000  O
  O136     1.0000 0.60050  0.49390  0.60680  Biso   1.000  O
  N1       1.0000 0.96430  0.07540  0.09010  Biso   1.000  N
  N2       1.0000 0.03570  0.57540  0.40990  Biso   1.000  N
  N3       1.0000 0.03570  0.92460  0.90990  Biso   1.000  N
  N4       1.0000 0.96430  0.42460  0.59010  Biso   1.000  N
  N5       1.0000 0.96790  0.94590  0.10740  Biso   1.000  N
  N6       1.0000 0.03210  0.44590  0.39260  Biso   1.000  N
  N7       1.0000 0.03210  0.05410  0.89260  Biso   1.000  N
  N8       1.0000 0.96790  0.55410  0.60740  Biso   1.000  N
  N9       1.0000 0.49670  0.26450  0.10640  Biso   1.000  N
  N10      1.0000 0.50330  0.76450  0.39360  Biso   1.000  N
  N11      1.0000 0.50330  0.73550  0.89360  Biso   1.000  N
  N12      1.0000 0.49670  0.23550  0.60640  Biso   1.000  N
  N13      1.0000 0.36560  0.21040  0.18680  Biso   1.000  N
  N14      1.0000 0.63440  0.71040  0.31320  Biso   1.000  N
  N15      1.0000 0.63440  0.78960  0.81320  Biso   1.000  N
  N16      1.0000 0.36560  0.28960  0.68680  Biso   1.000  N
  N17      1.0000 0.37560  0.80680  0.21400  Biso   1.000  N
  N18      1.0000 0.62440  0.30680  0.28600  Biso   1.000  N
  N19      1.0000 0.62440  0.19320  0.78600  Biso   1.000  N
  N20      1.0000 0.37560  0.69320  0.71400  Biso   1.000  N
  N21      1.0000 0.50440  0.74500  0.13680  Biso   1.000  N
  N22      1.0000 0.49560  0.24500  0.36320  Biso   1.000  N
  N23      1.0000 0.49560  0.25500  0.86320  Biso   1.000  N
  N24      1.0000 0.50440  0.75500  0.63680  Biso   1.000  N
  C1       1.0000 0.29950  0.17900  0.22370  Biso   1.000  C
  C2       1.0000 0.70050  0.67900  0.27630  Biso   1.000  C
  C3       1.0000 0.70050  0.82100  0.77630  Biso   1.000  C
  C4       1.0000 0.29950  0.32100  0.72370  Biso   1.000  C
  H1       1.0000 0.30230  0.13270  0.22630  Biso   1.000  H
  H2       1.0000 0.69770  0.63270  0.27370  Biso   1.000  H
  H3       1.0000 0.69770  0.86730  0.77370  Biso   1.000  H
  H4       1.0000 0.30230  0.36730  0.72630  Biso   1.000  H
  C5       1.0000 0.22670  0.21050  0.25860  Biso   1.000  C
  C6       1.0000 0.77330  0.71050  0.24140  Biso   1.000  C
  C7       1.0000 0.77330  0.78950  0.74140  Biso   1.000  C
  C8       1.0000 0.22670  0.28950  0.75860  Biso   1.000  C
  H5       1.0000 0.18260  0.18620  0.28530  Biso   1.000  H
  H6       1.0000 0.81740  0.68620  0.21470  Biso   1.000  H
  H7       1.0000 0.81740  0.81380  0.71470  Biso   1.000  H
  H8       1.0000 0.18260  0.31380  0.78530  Biso   1.000  H
  C9       1.0000 0.22040  0.27810  0.25340  Biso   1.000  C
  C10      1.0000 0.77960  0.77810  0.24660  Biso   1.000  C
  C11      1.0000 0.77960  0.72190  0.74660  Biso   1.000  C
  C12      1.0000 0.22040  0.22190  0.75340  Biso   1.000  C
  H9       1.0000 0.17140  0.30070  0.27620  Biso   1.000  H
  H10      1.0000 0.82860  0.80070  0.22380  Biso   1.000  H
  H11      1.0000 0.82860  0.69930  0.72380  Biso   1.000  H
  H12      1.0000 0.17140  0.19930  0.77620  Biso   1.000  H
  C13      1.0000 0.28770  0.31290  0.21400  Biso   1.000  C
  C14      1.0000 0.71230  0.81290  0.28600  Biso   1.000  C
  C15      1.0000 0.71230  0.68710  0.78600  Biso   1.000  C
  C16      1.0000 0.28770  0.18710  0.71400  Biso   1.000  C
  H13      1.0000 0.28380  0.35910  0.20890  Biso   1.000  H
  H14      1.0000 0.71620  0.85910  0.29110  Biso   1.000  H
  H15      1.0000 0.71620  0.64090  0.79110  Biso   1.000  H
  H16      1.0000 0.28380  0.14090  0.70890  Biso   1.000  H
  C17      1.0000 0.36280  0.27660  0.18140  Biso   1.000  C
  C18      1.0000 0.63720  0.77660  0.31860  Biso   1.000  C
  C19      1.0000 0.63720  0.72340  0.81860  Biso   1.000  C
  C20      1.0000 0.36280  0.22340  0.68140  Biso   1.000  C
  C21      1.0000 0.43770  0.30890  0.13890  Biso   1.000  C
  C22      1.0000 0.56230  0.80890  0.36110  Biso   1.000  C
  C23      1.0000 0.56230  0.69110  0.86110  Biso   1.000  C
  C24      1.0000 0.43770  0.19110  0.63890  Biso   1.000  C
  C25      1.0000 0.45300  0.37620  0.13130  Biso   1.000  C
  C26      1.0000 0.54700  0.87620  0.36870  Biso   1.000  C
  C27      1.0000 0.54700  0.62380  0.86870  Biso   1.000  C
  C28      1.0000 0.45300  0.12380  0.63130  Biso   1.000  C
  H17      1.0000 0.41380  0.40690  0.15450  Biso   1.000  H
  H18      1.0000 0.58620  0.90690  0.34550  Biso   1.000  H
  H19      1.0000 0.58620  0.59310  0.84550  Biso   1.000  H
  H20      1.0000 0.41380  0.09310  0.65450  Biso   1.000  H
  C29      1.0000 0.52760  0.39780  0.08850  Biso   1.000  C
  C30      1.0000 0.47240  0.89780  0.41150  Biso   1.000  C
  C31      1.0000 0.47240  0.60220  0.91150  Biso   1.000  C
  C32      1.0000 0.52760  0.10220  0.58850  Biso   1.000  C
  H21      1.0000 0.53750  0.44320  0.08080  Biso   1.000  H
  H22      1.0000 0.46250  0.94320  0.41920  Biso   1.000  H
  H23      1.0000 0.46250  0.55680  0.91920  Biso   1.000  H
  H24      1.0000 0.53750  0.05680  0.58080  Biso   1.000  H
  C33      1.0000 0.58600  0.35210  0.05820  Biso   1.000  C
  C34      1.0000 0.41400  0.85210  0.44180  Biso   1.000  C
  C35      1.0000 0.41400  0.64790  0.94180  Biso   1.000  C
  C36      1.0000 0.58600  0.14790  0.55820  Biso   1.000  C
  H25      1.0000 0.63730  0.36640  0.03070  Biso   1.000  H
  H26      1.0000 0.36270  0.86640  0.46930  Biso   1.000  H
  H27      1.0000 0.36270  0.63360  0.96930  Biso   1.000  H
  H28      1.0000 0.63730  0.13360  0.53070  Biso   1.000  H
  C37      1.0000 0.57070  0.28580  0.06720  Biso   1.000  C
  C38      1.0000 0.42930  0.78580  0.43280  Biso   1.000  C
  C39      1.0000 0.42930  0.71420  0.93280  Biso   1.000  C
  C40      1.0000 0.57070  0.21420  0.56720  Biso   1.000  C
  H29      1.0000 0.61160  0.25500  0.04620  Biso   1.000  H
  H30      1.0000 0.38840  0.75500  0.45380  Biso   1.000  H
  H31      1.0000 0.38840  0.74500  0.95380  Biso   1.000  H
  H32      1.0000 0.61160  0.24500  0.54620  Biso   1.000  H
  C41      1.0000 0.57630  0.71780  0.10130  Biso   1.000  C
  C42      1.0000 0.42370  0.21780  0.39870  Biso   1.000  C
  C43      1.0000 0.42370  0.28220  0.89870  Biso   1.000  C
  C44      1.0000 0.57630  0.78220  0.60130  Biso   1.000  C
  H33      1.0000 0.62100  0.74590  0.08030  Biso   1.000  H
  H34      1.0000 0.37900  0.24590  0.41970  Biso   1.000  H
  H35      1.0000 0.37900  0.25410  0.91970  Biso   1.000  H
  H36      1.0000 0.62100  0.75410  0.58030  Biso   1.000  H
  C45      1.0000 0.58760  0.65080  0.09410  Biso   1.000  C
  C46      1.0000 0.41240  0.15080  0.40590  Biso   1.000  C
  C47      1.0000 0.41240  0.34920  0.90590  Biso   1.000  C
  C48      1.0000 0.58760  0.84920  0.59410  Biso   1.000  C
  H37      1.0000 0.63670  0.63330  0.06640  Biso   1.000  H
  H38      1.0000 0.36330  0.13330  0.43360  Biso   1.000  H
  H39      1.0000 0.36330  0.36670  0.93360  Biso   1.000  H
  H40      1.0000 0.63670  0.86670  0.56640  Biso   1.000  H
  C49      1.0000 0.52420  0.60940  0.12910  Biso   1.000  C
  C50      1.0000 0.47580  0.10940  0.37090  Biso   1.000  C
  C51      1.0000 0.47580  0.39060  0.87090  Biso   1.000  C
  C52      1.0000 0.52420  0.89060  0.62910  Biso   1.000  C
  H41      1.0000 0.53210  0.56330  0.12790  Biso   1.000  H
  H42      1.0000 0.46790  0.06330  0.37210  Biso   1.000  H
  H43      1.0000 0.46790  0.43670  0.87210  Biso   1.000  H
  H44      1.0000 0.53210  0.93670  0.62790  Biso   1.000  H
  C53      1.0000 0.44950  0.63710  0.16550  Biso   1.000  C
  C54      1.0000 0.55050  0.13710  0.33450  Biso   1.000  C
  C55      1.0000 0.55050  0.36290  0.83450  Biso   1.000  C
  C56      1.0000 0.44950  0.86290  0.66550  Biso   1.000  C
  H45      1.0000 0.40490  0.60950  0.18730  Biso   1.000  H
  H46      1.0000 0.59510  0.10950  0.31270  Biso   1.000  H
  H47      1.0000 0.59510  0.39050  0.81270  Biso   1.000  H
  H48      1.0000 0.40490  0.89050  0.68730  Biso   1.000  H
  C57      1.0000 0.43970  0.70470  0.17030  Biso   1.000  C
  C58      1.0000 0.56030  0.20470  0.32970  Biso   1.000  C
  C59      1.0000 0.56030  0.29530  0.82970  Biso   1.000  C
  C60      1.0000 0.43970  0.79530  0.67030  Biso   1.000  C
  C61      1.0000 0.36690  0.73930  0.21120  Biso   1.000  C
  C62      1.0000 0.63310  0.23930  0.28880  Biso   1.000  C
  C63      1.0000 0.63310  0.26070  0.78880  Biso   1.000  C
  C64      1.0000 0.36690  0.76070  0.71120  Biso   1.000  C
  C65      1.0000 0.29340  0.70720  0.24650  Biso   1.000  C
  C66      1.0000 0.70660  0.20720  0.25350  Biso   1.000  C
  C67      1.0000 0.70660  0.29280  0.75350  Biso   1.000  C
  C68      1.0000 0.29340  0.79280  0.74650  Biso   1.000  C
  H49      1.0000 0.28700  0.66100  0.24330  Biso   1.000  H
  H50      1.0000 0.71300  0.16100  0.25670  Biso   1.000  H
  H51      1.0000 0.71300  0.33900  0.75670  Biso   1.000  H
  H52      1.0000 0.28700  0.83900  0.74330  Biso   1.000  H
  C69      1.0000 0.22960  0.74450  0.28660  Biso   1.000  C
  C70      1.0000 0.77040  0.24450  0.21340  Biso   1.000  C
  C71      1.0000 0.77040  0.25550  0.71340  Biso   1.000  C
  C72      1.0000 0.22960  0.75550  0.78660  Biso   1.000  C
  H53      1.0000 0.17950  0.72370  0.31010  Biso   1.000  H
  H54      1.0000 0.82050  0.22370  0.18990  Biso   1.000  H
  H55      1.0000 0.82050  0.27630  0.68990  Biso   1.000  H
  H56      1.0000 0.17950  0.77630  0.81010  Biso   1.000  H
  C73      1.0000 0.24100  0.81350  0.29160  Biso   1.000  C
  C74      1.0000 0.75900  0.31350  0.20840  Biso   1.000  C
  C75      1.0000 0.75900  0.18650  0.70840  Biso   1.000  C
  C76      1.0000 0.24100  0.68650  0.79160  Biso   1.000  C
  H57      1.0000 0.20060  0.83960  0.31990  Biso   1.000  H
  H58      1.0000 0.79940  0.33960  0.18010  Biso   1.000  H
  H59      1.0000 0.79940  0.16040  0.68010  Biso   1.000  H
  H60      1.0000 0.20060  0.66040  0.81990  Biso   1.000  H
  C77      1.0000 0.31610  0.84230  0.25190  Biso   1.000  C
  C78      1.0000 0.68390  0.34230  0.24810  Biso   1.000  C
  C79      1.0000 0.68390  0.15770  0.74810  Biso   1.000  C
  C80      1.0000 0.31610  0.65770  0.75190  Biso   1.000  C
  H61      1.0000 0.32330  0.88850  0.25290  Biso   1.000  H
  H62      1.0000 0.67670  0.38850  0.24710  Biso   1.000  H
  H63      1.0000 0.67670  0.11150  0.74710  Biso   1.000  H
  H64      1.0000 0.32330  0.61150  0.75290  Biso   1.000  H
  C81      1.0000 0.96030  0.88090  0.11330  Biso   1.000  C
  C82      1.0000 0.03970  0.38090  0.38670  Biso   1.000  C
  C83      1.0000 0.03970  0.11910  0.88670  Biso   1.000  C
  C84      1.0000 0.96030  0.61910  0.61330  Biso   1.000  C
  H65      1.0000 0.89960  0.86170  0.11410  Biso   1.000  H
  H66      1.0000 0.10040  0.36170  0.38590  Biso   1.000  H
  H67      1.0000 0.10040  0.13830  0.88590  Biso   1.000  H
  H68      1.0000 0.89960  0.63830  0.61410  Biso   1.000  H
  C85      1.0000 0.04190  0.83960  0.11860  Biso   1.000  C
  C86      1.0000 0.95810  0.33960  0.38140  Biso   1.000  C
  C87      1.0000 0.95810  0.16040  0.88140  Biso   1.000  C
  C88      1.0000 0.04190  0.66040  0.61860  Biso   1.000  C
  H69      1.0000 0.03590  0.79360  0.12390  Biso   1.000  H
  H70      1.0000 0.96410  0.29360  0.37610  Biso   1.000  H
  H71      1.0000 0.96410  0.20640  0.87610  Biso   1.000  H
  H72      1.0000 0.03590  0.70640  0.62390  Biso   1.000  H
  C89      1.0000 0.12960  0.86820  0.11570  Biso   1.000  C
  C90      1.0000 0.87040  0.36820  0.38430  Biso   1.000  C
  C91      1.0000 0.87040  0.13180  0.88430  Biso   1.000  C
  C92      1.0000 0.12960  0.63180  0.61570  Biso   1.000  C
  H73      1.0000 0.18460  0.84180  0.11710  Biso   1.000  H
  H74      1.0000 0.81540  0.34180  0.38290  Biso   1.000  H
  H75      1.0000 0.81540  0.15820  0.88290  Biso   1.000  H
  H76      1.0000 0.18460  0.65820  0.61710  Biso   1.000  H
  C93      1.0000 0.13730  0.93640  0.11060  Biso   1.000  C
  C94      1.0000 0.86270  0.43640  0.38940  Biso   1.000  C
  C95      1.0000 0.86270  0.06360  0.88940  Biso   1.000  C
  C96      1.0000 0.13730  0.56360  0.61060  Biso   1.000  C
  H77      1.0000 0.19750  0.95650  0.11050  Biso   1.000  H
  H78      1.0000 0.80250  0.45650  0.38950  Biso   1.000  H
  H79      1.0000 0.80250  0.04350  0.88950  Biso   1.000  H
  H80      1.0000 0.19750  0.54350  0.61050  Biso   1.000  H
  C97      1.0000 0.05470  0.97480  0.10570  Biso   1.000  C
  C98      1.0000 0.94530  0.47480  0.39430  Biso   1.000  C
  C99      1.0000 0.94530  0.02520  0.89430  Biso   1.000  C
  C100     1.0000 0.05470  0.52520  0.60570  Biso   1.000  C
  C101     1.0000 0.05300  0.04720  0.09730  Biso   1.000  C
  C102     1.0000 0.94700  0.54720  0.40270  Biso   1.000  C
  C103     1.0000 0.94700  0.95280  0.90270  Biso   1.000  C
  C104     1.0000 0.05300  0.45280  0.59730  Biso   1.000  C
  C105     1.0000 0.13330  0.08660  0.09440  Biso   1.000  C
  C106     1.0000 0.86670  0.58660  0.40560  Biso   1.000  C
  C107     1.0000 0.86670  0.91340  0.90560  Biso   1.000  C
  C108     1.0000 0.13330  0.41340  0.59440  Biso   1.000  C
  H81      1.0000 0.19420  0.06750  0.10040  Biso   1.000  H
  H82      1.0000 0.80580  0.56750  0.39960  Biso   1.000  H
  H83      1.0000 0.80580  0.93250  0.89960  Biso   1.000  H
  H84      1.0000 0.19420  0.43250  0.60040  Biso   1.000  H
  C109     1.0000 0.12360  0.15430  0.08270  Biso   1.000  C
  C110     1.0000 0.87640  0.65430  0.41730  Biso   1.000  C
  C111     1.0000 0.87640  0.84570  0.91730  Biso   1.000  C
  C112     1.0000 0.12360  0.34570  0.58270  Biso   1.000  C
  H85      1.0000 0.17760  0.18090  0.07840  Biso   1.000  H
  H86      1.0000 0.82240  0.68090  0.42160  Biso   1.000  H
  H87      1.0000 0.82240  0.81910  0.92160  Biso   1.000  H
  H88      1.0000 0.17760  0.31910  0.57840  Biso   1.000  H
  C113     1.0000 0.03440  0.18170  0.07760  Biso   1.000  C
  C114     1.0000 0.96560  0.68170  0.42240  Biso   1.000  C
  C115     1.0000 0.96560  0.81830  0.92240  Biso   1.000  C
  C116     1.0000 0.03440  0.31830  0.57760  Biso   1.000  C
  H89      1.0000 0.02690  0.22760  0.07160  Biso   1.000  H
  H90      1.0000 0.97310  0.72760  0.42840  Biso   1.000  H
  H91      1.0000 0.97310  0.77240  0.92840  Biso   1.000  H
  H92      1.0000 0.02690  0.27240  0.57160  Biso   1.000  H
  C117     1.0000 0.95240  0.14000  0.08130  Biso   1.000  C
  C118     1.0000 0.04760  0.64000  0.41870  Biso   1.000  C
  C119     1.0000 0.04760  0.86000  0.91870  Biso   1.000  C
  C120     1.0000 0.95240  0.36000  0.58130  Biso   1.000  C
  H93      1.0000 0.89100  0.15830  0.07750  Biso   1.000  H
  H94      1.0000 0.10900  0.65830  0.42250  Biso   1.000  H
  H95      1.0000 0.10900  0.84170  0.92250  Biso   1.000  H
  H96      1.0000 0.89100  0.34170  0.57750  Biso   1.000  H
