data_image0
_cell_length_a       8.2524
_cell_length_b       12.765
_cell_length_c       9.1125
_cell_angle_alpha    90
_cell_angle_beta     106.423
_cell_angle_gamma    90

_symmetry_space_group_name_H-M    "P 1"
_symmetry_int_tables_number       1

loop_
  _symmetry_equiv_pos_as_xyz
  'x, y, z'

loop_
  _atom_site_label
  _atom_site_occupancy
  _atom_site_fract_x
  _atom_site_fract_y
  _atom_site_fract_z
  _atom_site_thermal_displace_type
  _atom_site_B_iso_or_equiv
  _atom_site_type_symbol
  Cu1      1.0000 0.00000  0.50000  0.50000  Biso   1.000  Cu
  Cu2      1.0000 0.00000  0.00000  0.00000  Biso   1.000  Cu
  N1       1.0000 0.14880  0.38160  0.48860  Biso   1.000  N
  N2       1.0000 0.14880  0.11840  0.98860  Biso   1.000  N
  N3       1.0000 0.85120  0.61840  0.51140  Biso   1.000  N
  N4       1.0000 0.85120  0.88160  0.01140  Biso   1.000  N
  N5       1.0000 0.18220  0.35770  0.37440  Biso   1.000  N
  N6       1.0000 0.18220  0.14230  0.87440  Biso   1.000  N
  N7       1.0000 0.81780  0.64230  0.62560  Biso   1.000  N
  N8       1.0000 0.81780  0.85770  0.12560  Biso   1.000  N
  N9       1.0000 0.21760  0.33040  0.26430  Biso   1.000  N
  N10      1.0000 0.21760  0.16960  0.76430  Biso   1.000  N
  N11      1.0000 0.78240  0.66960  0.73570  Biso   1.000  N
  N12      1.0000 0.78240  0.83040  0.23570  Biso   1.000  N
  N13      1.0000 0.92430  0.61580  0.06700  Biso   1.000  N
  N14      1.0000 0.92430  0.88420  0.56700  Biso   1.000  N
  N15      1.0000 0.07570  0.38420  0.93300  Biso   1.000  N
  N16      1.0000 0.07570  0.11580  0.43300  Biso   1.000  N
  N17      1.0000 0.00910  0.54900  0.29830  Biso   1.000  N
  N18      1.0000 0.00910  0.95100  0.79830  Biso   1.000  N
  N19      1.0000 0.99090  0.45100  0.70170  Biso   1.000  N
  N20      1.0000 0.99090  0.04900  0.20170  Biso   1.000  N
  C1       1.0000 0.71150  0.51170  0.15870  Biso   1.000  C
  C2       1.0000 0.71150  0.98830  0.65870  Biso   1.000  C
  C3       1.0000 0.28850  0.48830  0.84130  Biso   1.000  C
  C4       1.0000 0.28850  0.01170  0.34130  Biso   1.000  C
  C5       1.0000 0.58050  0.52810  0.00290  Biso   1.000  C
  C6       1.0000 0.58050  0.97190  0.50290  Biso   1.000  C
  C7       1.0000 0.41950  0.47190  0.99710  Biso   1.000  C
  C8       1.0000 0.41950  0.02810  0.49710  Biso   1.000  C
  C9       1.0000 0.87910  0.55950  0.17340  Biso   1.000  C
  C10      1.0000 0.87910  0.94050  0.67340  Biso   1.000  C
  C11      1.0000 0.12090  0.44050  0.82660  Biso   1.000  C
  C12      1.0000 0.12090  0.05950  0.32660  Biso   1.000  C
  C13      1.0000 0.14500  0.59950  0.26970  Biso   1.000  C
  C14      1.0000 0.14500  0.90050  0.76970  Biso   1.000  C
  C15      1.0000 0.85500  0.40050  0.73030  Biso   1.000  C
  C16      1.0000 0.85500  0.09950  0.23030  Biso   1.000  C
  C17      1.0000 0.09340  0.64450  0.12260  Biso   1.000  C
  C18      1.0000 0.09340  0.85550  0.62260  Biso   1.000  C
  C19      1.0000 0.90660  0.35550  0.87740  Biso   1.000  C
  C20      1.0000 0.90660  0.14450  0.37740  Biso   1.000  C
  C21      1.0000 0.19790  0.70490  0.06660  Biso   1.000  C
  C22      1.0000 0.19790  0.79510  0.56660  Biso   1.000  C
  C23      1.0000 0.80210  0.29510  0.93340  Biso   1.000  C
  C24      1.0000 0.80210  0.20490  0.43340  Biso   1.000  C
  C25      1.0000 0.36140  0.71870  0.15830  Biso   1.000  C
  C26      1.0000 0.36140  0.78130  0.65830  Biso   1.000  C
  C27      1.0000 0.63860  0.28130  0.84170  Biso   1.000  C
  C28      1.0000 0.63860  0.21870  0.34170  Biso   1.000  C
  C29      1.0000 0.41850  0.67020  0.30150  Biso   1.000  C
  C30      1.0000 0.41850  0.82980  0.80150  Biso   1.000  C
  C31      1.0000 0.58150  0.32980  0.69850  Biso   1.000  C
  C32      1.0000 0.58150  0.17020  0.19850  Biso   1.000  C
  C33      1.0000 0.31220  0.60990  0.35900  Biso   1.000  C
  C34      1.0000 0.31220  0.89010  0.85900  Biso   1.000  C
  C35      1.0000 0.68780  0.39010  0.64100  Biso   1.000  C
  C36      1.0000 0.68780  0.10990  0.14100  Biso   1.000  C
  H1       1.0000 0.66580  0.54120  0.23930  Biso   1.000  H
  H2       1.0000 0.66580  0.95880  0.73930  Biso   1.000  H
  H3       1.0000 0.33420  0.45880  0.76070  Biso   1.000  H
  H4       1.0000 0.33420  0.04120  0.26070  Biso   1.000  H
  H5       1.0000 0.72700  0.43550  0.17770  Biso   1.000  H
  H6       1.0000 0.72700  0.06450  0.67770  Biso   1.000  H
  H7       1.0000 0.27300  0.56450  0.82230  Biso   1.000  H
  H8       1.0000 0.27300  0.93550  0.32230  Biso   1.000  H
  H9       1.0000 0.55740  0.60390  0.98550  Biso   1.000  H
  H10      1.0000 0.55740  0.89610  0.48550  Biso   1.000  H
  H11      1.0000 0.44260  0.39610  0.01450  Biso   1.000  H
  H12      1.0000 0.44260  0.10390  0.51450  Biso   1.000  H
  H13      1.0000 0.62630  0.50160  0.92050  Biso   1.000  H
  H14      1.0000 0.62630  0.99840  0.42050  Biso   1.000  H
  H15      1.0000 0.37370  0.49840  0.07950  Biso   1.000  H
  H16      1.0000 0.37370  0.00160  0.57950  Biso   1.000  H
  H17      1.0000 0.85740  0.63200  0.97620  Biso   1.000  H
  H18      1.0000 0.85740  0.86800  0.47620  Biso   1.000  H
  H19      1.0000 0.14260  0.36800  0.02380  Biso   1.000  H
  H20      1.0000 0.14260  0.13200  0.52380  Biso   1.000  H
  H21      1.0000 0.16010  0.73630  0.96840  Biso   1.000  H
  H22      1.0000 0.16010  0.76370  0.46840  Biso   1.000  H
  H23      1.0000 0.83990  0.26370  0.03160  Biso   1.000  H
  H24      1.0000 0.83990  0.23630  0.53160  Biso   1.000  H
  H25      1.0000 0.43650  0.76200  0.12340  Biso   1.000  H
  H26      1.0000 0.43650  0.73800  0.62340  Biso   1.000  H
  H27      1.0000 0.56350  0.23800  0.87660  Biso   1.000  H
  H28      1.0000 0.56350  0.26200  0.37660  Biso   1.000  H
  H29      1.0000 0.53280  0.67910  0.36010  Biso   1.000  H
  H30      1.0000 0.53280  0.82090  0.86010  Biso   1.000  H
  H31      1.0000 0.46720  0.32090  0.63990  Biso   1.000  H
  H32      1.0000 0.46720  0.17910  0.13990  Biso   1.000  H
  H33      1.0000 0.35120  0.57670  0.45580  Biso   1.000  H
  H34      1.0000 0.35120  0.92330  0.95580  Biso   1.000  H
  H35      1.0000 0.64880  0.42330  0.54420  Biso   1.000  H
  H36      1.0000 0.64880  0.07670  0.04420  Biso   1.000  H
