data_image0
_cell_length_a       6.9186
_cell_length_b       6.9186
_cell_length_c       7.9061
_cell_angle_alpha    90
_cell_angle_beta     90
_cell_angle_gamma    90

_symmetry_space_group_name_H-M    "P 1"
_symmetry_int_tables_number       1

loop_
  _symmetry_equiv_pos_as_xyz
  'x, y, z'

loop_
  _atom_site_label
  _atom_site_occupancy
  _atom_site_fract_x
  _atom_site_fract_y
  _atom_site_fract_z
  _atom_site_thermal_displace_type
  _atom_site_B_iso_or_equiv
  _atom_site_type_symbol
  N1       1.0000 0.50000  0.21700  0.50000  Biso   1.000  N
  N2       1.0000 0.78300  0.50000  0.50000  Biso   1.000  N
  N3       1.0000 0.50000  0.78300  0.50000  Biso   1.000  N
  N4       1.0000 0.21700  0.50000  0.50000  Biso   1.000  N
  C1       1.0000 0.50000  0.08930  0.38430  Biso   1.000  C
  C2       1.0000 0.91070  0.50000  0.38430  Biso   1.000  C
  C3       1.0000 0.50000  0.91070  0.38430  Biso   1.000  C
  C4       1.0000 0.08930  0.50000  0.38430  Biso   1.000  C
  C5       1.0000 0.50000  0.91070  0.61570  Biso   1.000  C
  C6       1.0000 0.91070  0.50000  0.61570  Biso   1.000  C
  C7       1.0000 0.50000  0.08930  0.61570  Biso   1.000  C
  C8       1.0000 0.08930  0.50000  0.61570  Biso   1.000  C
  H1       1.0000 0.50000  0.14010  0.27980  Biso   1.000  H
  H2       1.0000 0.85990  0.50000  0.27980  Biso   1.000  H
  H3       1.0000 0.50000  0.85990  0.27980  Biso   1.000  H
  H4       1.0000 0.14010  0.50000  0.27980  Biso   1.000  H
  H5       1.0000 0.50000  0.85990  0.72020  Biso   1.000  H
  H6       1.0000 0.85990  0.50000  0.72020  Biso   1.000  H
  H7       1.0000 0.50000  0.14010  0.72020  Biso   1.000  H
  H8       1.0000 0.14010  0.50000  0.72020  Biso   1.000  H
  Cu1      1.0000 0.50000  0.50000  0.50000  Biso   1.000  Cu
  F1       1.0000 0.50000  0.50000  0.23200  Biso   1.000  F
  F2       1.0000 0.50000  0.50000  0.76800  Biso   1.000  F
  F3       1.0000 0.33130  0.33130  0.00000  Biso   1.000  F
  F4       1.0000 0.66870  0.33130  0.00000  Biso   1.000  F
  F5       1.0000 0.66870  0.66870  0.00000  Biso   1.000  F
  F6       1.0000 0.33130  0.66870  0.00000  Biso   1.000  F
  Si1      1.0000 0.50000  0.50000  0.00000  Biso   1.000  Si
