data_image0
_cell_length_a       10.5773
_cell_length_b       10.8899
_cell_length_c       11.4306
_cell_angle_alpha    90
_cell_angle_beta     97.292
_cell_angle_gamma    90

_symmetry_space_group_name_H-M    "P 1"
_symmetry_int_tables_number       1

loop_
  _symmetry_equiv_pos_as_xyz
  'x, y, z'

loop_
  _atom_site_label
  _atom_site_occupancy
  _atom_site_fract_x
  _atom_site_fract_y
  _atom_site_fract_z
  _atom_site_thermal_displace_type
  _atom_site_B_iso_or_equiv
  _atom_site_type_symbol
  Ni1      1.0000 0.00000  0.00000  0.50000  Biso   1.000  Ni
  Ni2      1.0000 0.50000  0.50000  0.00000  Biso   1.000  Ni
  Cu1      1.0000 0.50000  0.50000  0.50000  Biso   1.000  Cu
  Cu2      1.0000 0.00000  0.00000  0.00000  Biso   1.000  Cu
  S1       1.0000 0.40316  0.67952  0.53497  Biso   1.000  S
  S2       1.0000 0.09684  0.17952  0.96503  Biso   1.000  S
  S3       1.0000 0.59684  0.32048  0.46503  Biso   1.000  S
  S4       1.0000 0.90316  0.82048  0.03497  Biso   1.000  S
  S5       1.0000 0.31336  0.42213  0.41462  Biso   1.000  S
  S6       1.0000 0.18664  0.92213  0.08538  Biso   1.000  S
  S7       1.0000 0.68664  0.57787  0.58538  Biso   1.000  S
  S8       1.0000 0.81336  0.07787  0.91462  Biso   1.000  S
  C1       1.0000 0.25190  0.65580  0.45920  Biso   1.000  C
  C2       1.0000 0.24810  0.15580  0.04080  Biso   1.000  C
  C3       1.0000 0.74810  0.34420  0.54080  Biso   1.000  C
  C4       1.0000 0.75190  0.84420  0.95920  Biso   1.000  C
  C5       1.0000 0.21300  0.54720  0.40860  Biso   1.000  C
  C6       1.0000 0.28700  0.04720  0.09140  Biso   1.000  C
  C7       1.0000 0.78700  0.45280  0.59140  Biso   1.000  C
  C8       1.0000 0.71300  0.95280  0.90860  Biso   1.000  C
  C9       1.0000 0.17320  0.76280  0.45530  Biso   1.000  C
  C10      1.0000 0.32680  0.26280  0.04470  Biso   1.000  C
  C11      1.0000 0.82680  0.23720  0.54470  Biso   1.000  C
  C12      1.0000 0.67320  0.73720  0.95530  Biso   1.000  C
  C13      1.0000 0.08410  0.52710  0.34290  Biso   1.000  C
  C14      1.0000 0.41590  0.02710  0.15710  Biso   1.000  C
  C15      1.0000 0.91590  0.47290  0.65710  Biso   1.000  C
  C16      1.0000 0.58410  0.97290  0.84290  Biso   1.000  C
  C17      1.0000 0.12720  0.13230  0.33490  Biso   1.000  C
  C18      1.0000 0.37280  0.63230  0.16510  Biso   1.000  C
  C19      1.0000 0.87280  0.86770  0.66510  Biso   1.000  C
  C20      1.0000 0.62720  0.36770  0.83490  Biso   1.000  C
  H1       1.0000 0.17110  0.06260  0.30580  Biso   1.000  H
  H2       1.0000 0.32890  0.56260  0.19420  Biso   1.000  H
  H3       1.0000 0.82890  0.93740  0.69420  Biso   1.000  H
  H4       1.0000 0.67110  0.43740  0.80580  Biso   1.000  H
  H5       1.0000 0.16720  0.20690  0.31120  Biso   1.000  H
  H6       1.0000 0.33280  0.70690  0.18880  Biso   1.000  H
  H7       1.0000 0.83280  0.79310  0.68880  Biso   1.000  H
  H8       1.0000 0.66720  0.29310  0.81120  Biso   1.000  H
  C21      1.0000 0.26600  0.10410  0.52450  Biso   1.000  C
  C22      1.0000 0.23400  0.60410  0.97550  Biso   1.000  C
  C23      1.0000 0.73400  0.89590  0.47550  Biso   1.000  C
  C24      1.0000 0.76600  0.39590  0.02450  Biso   1.000  C
  H9       1.0000 0.32240  0.16850  0.50360  Biso   1.000  H
  H10      1.0000 0.17760  0.66850  0.99640  Biso   1.000  H
  H11      1.0000 0.67760  0.83150  0.49640  Biso   1.000  H
  H12      1.0000 0.82240  0.33150  0.00360  Biso   1.000  H
  H13      1.0000 0.29690  0.02660  0.49750  Biso   1.000  H
  H14      1.0000 0.20310  0.52660  0.00250  Biso   1.000  H
  H15      1.0000 0.70310  0.97340  0.50250  Biso   1.000  H
  H16      1.0000 0.79690  0.47340  0.99750  Biso   1.000  H
  C25      1.0000 0.26860  0.10040  0.65700  Biso   1.000  C
  C26      1.0000 0.23140  0.60040  0.84300  Biso   1.000  C
  C27      1.0000 0.73140  0.89960  0.34300  Biso   1.000  C
  C28      1.0000 0.76860  0.39960  0.15700  Biso   1.000  C
  H17      1.0000 0.22380  0.17200  0.68100  Biso   1.000  H
  H18      1.0000 0.27620  0.67200  0.81900  Biso   1.000  H
  H19      1.0000 0.77620  0.82800  0.31900  Biso   1.000  H
  H20      1.0000 0.72380  0.32800  0.18100  Biso   1.000  H
  H21      1.0000 0.35660  0.10690  0.69270  Biso   1.000  H
  H22      1.0000 0.14340  0.60690  0.80730  Biso   1.000  H
  H23      1.0000 0.64340  0.89310  0.30730  Biso   1.000  H
  H24      1.0000 0.85660  0.39310  0.19270  Biso   1.000  H
  C29      1.0000 0.21060  0.98690  0.70630  Biso   1.000  C
  C30      1.0000 0.28940  0.48690  0.79370  Biso   1.000  C
  C31      1.0000 0.78940  0.01310  0.29370  Biso   1.000  C
  C32      1.0000 0.71060  0.51310  0.20630  Biso   1.000  C
  H25      1.0000 0.24760  0.91430  0.67510  Biso   1.000  H
  H26      1.0000 0.25240  0.41430  0.82490  Biso   1.000  H
  H27      1.0000 0.75240  0.08570  0.32490  Biso   1.000  H
  H28      1.0000 0.74760  0.58570  0.17510  Biso   1.000  H
  H29      1.0000 0.23190  0.98600  0.79140  Biso   1.000  H
  H30      1.0000 0.26810  0.48600  0.70860  Biso   1.000  H
  H31      1.0000 0.76810  0.01400  0.20860  Biso   1.000  H
  H32      1.0000 0.73190  0.51400  0.29140  Biso   1.000  H
  C33      1.0000 0.01070  0.86960  0.71550  Biso   1.000  C
  C34      1.0000 0.48930  0.36960  0.78450  Biso   1.000  C
  C35      1.0000 0.98930  0.13040  0.28450  Biso   1.000  C
  C36      1.0000 0.51070  0.63040  0.21550  Biso   1.000  C
  H33      1.0000 0.01830  0.86730  0.80090  Biso   1.000  H
  H34      1.0000 0.48170  0.36730  0.69910  Biso   1.000  H
  H35      1.0000 0.98170  0.13270  0.19910  Biso   1.000  H
  H36      1.0000 0.51830  0.63270  0.30090  Biso   1.000  H
  H37      1.0000 0.05360  0.79790  0.68890  Biso   1.000  H
  H38      1.0000 0.44640  0.29790  0.81110  Biso   1.000  H
  H39      1.0000 0.94640  0.20210  0.31110  Biso   1.000  H
  H40      1.0000 0.55360  0.70210  0.18890  Biso   1.000  H
  N1       1.0000 0.11710  0.85110  0.45770  Biso   1.000  N
  N2       1.0000 0.38290  0.35110  0.04230  Biso   1.000  N
  N3       1.0000 0.88290  0.14890  0.54230  Biso   1.000  N
  N4       1.0000 0.61710  0.64890  0.95770  Biso   1.000  N
  N5       1.0000 0.13600  0.12690  0.46500  Biso   1.000  N
  N6       1.0000 0.36400  0.62690  0.03500  Biso   1.000  N
  N7       1.0000 0.86400  0.87310  0.53500  Biso   1.000  N
  N8       1.0000 0.63600  0.37310  0.96500  Biso   1.000  N
  H41      1.0000 0.11090  0.20130  0.49000  Biso   1.000  H
  H42      1.0000 0.38910  0.70130  0.01000  Biso   1.000  H
  H43      1.0000 0.88910  0.79870  0.51000  Biso   1.000  H
  H44      1.0000 0.61090  0.29870  0.99000  Biso   1.000  H
  N9       1.0000 0.07090  0.98210  0.67690  Biso   1.000  N
  N10      1.0000 0.42910  0.48210  0.82310  Biso   1.000  N
  N11      1.0000 0.92910  0.01790  0.32310  Biso   1.000  N
  N12      1.0000 0.57090  0.51790  0.17690  Biso   1.000  N
  H45      1.0000 0.03870  0.04590  0.71530  Biso   1.000  H
  H46      1.0000 0.46130  0.54590  0.78470  Biso   1.000  H
  H47      1.0000 0.96130  0.95410  0.28470  Biso   1.000  H
  H48      1.0000 0.53870  0.45410  0.21530  Biso   1.000  H
  F1       1.0000 0.08640  0.50110  0.23140  Biso   1.000  F
  F2       1.0000 0.41360  0.00110  0.26860  Biso   1.000  F
  F3       1.0000 0.91360  0.49890  0.76860  Biso   1.000  F
  F4       1.0000 0.58640  0.99890  0.73140  Biso   1.000  F
  F5       1.0000 0.00280  0.61620  0.35010  Biso   1.000  F
  F6       1.0000 0.49720  0.11620  0.14990  Biso   1.000  F
  F7       1.0000 0.99720  0.38380  0.64990  Biso   1.000  F
  F8       1.0000 0.50280  0.88380  0.85010  Biso   1.000  F
  F9       1.0000 0.02560  0.42910  0.38150  Biso   1.000  F
  F10      1.0000 0.47440  0.92910  0.11850  Biso   1.000  F
  F11      1.0000 0.97440  0.57090  0.61850  Biso   1.000  F
  F12      1.0000 0.52560  0.07090  0.88150  Biso   1.000  F
