data_image0
_cell_length_a       13.953
_cell_length_b       22.121
_cell_length_c       19.9
_cell_angle_alpha    90
_cell_angle_beta     107.16
_cell_angle_gamma    90

_symmetry_space_group_name_H-M    "P 1"
_symmetry_int_tables_number       1

loop_
  _symmetry_equiv_pos_as_xyz
  'x, y, z'

loop_
  _atom_site_label
  _atom_site_occupancy
  _atom_site_fract_x
  _atom_site_fract_y
  _atom_site_fract_z
  _atom_site_thermal_displace_type
  _atom_site_B_iso_or_equiv
  _atom_site_type_symbol
  Y1       1.0000 0.84280  0.78365  0.67051  Biso   1.000  Y
  Y2       1.0000 0.15720  0.28365  0.82949  Biso   1.000  Y
  Y3       1.0000 0.15720  0.21635  0.32949  Biso   1.000  Y
  Y4       1.0000 0.84280  0.71635  0.17051  Biso   1.000  Y
  Y5       1.0000 0.02460  0.66462  0.59484  Biso   1.000  Y
  Y6       1.0000 0.97540  0.16462  0.90516  Biso   1.000  Y
  Y7       1.0000 0.97540  0.33538  0.40516  Biso   1.000  Y
  Y8       1.0000 0.02460  0.83538  0.09484  Biso   1.000  Y
  Cu1      1.0000 0.36128  0.68879  0.65411  Biso   1.000  Cu
  Cu2      1.0000 0.63872  0.18879  0.84589  Biso   1.000  Cu
  Cu3      1.0000 0.63872  0.31121  0.34589  Biso   1.000  Cu
  Cu4      1.0000 0.36128  0.81121  0.15411  Biso   1.000  Cu
  Cu5      1.0000 0.51312  0.74301  0.62379  Biso   1.000  Cu
  Cu6      1.0000 0.48688  0.24301  0.87621  Biso   1.000  Cu
  Cu7      1.0000 0.48688  0.25699  0.37621  Biso   1.000  Cu
  Cu8      1.0000 0.51312  0.75699  0.12379  Biso   1.000  Cu
  O1       1.0000 0.30270  0.77150  0.64240  Biso   1.000  O
  O2       1.0000 0.69730  0.27150  0.85760  Biso   1.000  O
  O3       1.0000 0.69730  0.22850  0.35760  Biso   1.000  O
  O4       1.0000 0.30270  0.72850  0.14240  Biso   1.000  O
  O5       1.0000 0.42990  0.81530  0.61350  Biso   1.000  O
  O6       1.0000 0.57010  0.31530  0.88650  Biso   1.000  O
  O7       1.0000 0.57010  0.18470  0.38650  Biso   1.000  O
  O8       1.0000 0.42990  0.68470  0.11350  Biso   1.000  O
  C1       1.0000 0.34640  0.81630  0.62620  Biso   1.000  C
  C2       1.0000 0.65360  0.31630  0.87380  Biso   1.000  C
  C3       1.0000 0.65360  0.18370  0.37380  Biso   1.000  C
  C4       1.0000 0.34640  0.68370  0.12620  Biso   1.000  C
  C5       1.0000 0.29890  0.87660  0.62380  Biso   1.000  C
  C6       1.0000 0.70110  0.37660  0.87620  Biso   1.000  C
  C7       1.0000 0.70110  0.12340  0.37620  Biso   1.000  C
  C8       1.0000 0.29890  0.62340  0.12380  Biso   1.000  C
  H1       1.0000 0.23560  0.87870  0.63020  Biso   1.000  H
  H2       1.0000 0.76440  0.37870  0.86980  Biso   1.000  H
  H3       1.0000 0.76440  0.12130  0.36980  Biso   1.000  H
  H4       1.0000 0.23560  0.62130  0.13020  Biso   1.000  H
  C9       1.0000 0.34140  0.92660  0.61330  Biso   1.000  C
  C10      1.0000 0.65860  0.42660  0.88670  Biso   1.000  C
  C11      1.0000 0.65860  0.07340  0.38670  Biso   1.000  C
  C12      1.0000 0.34140  0.57340  0.11330  Biso   1.000  C
  H5       1.0000 0.40290  0.92470  0.60410  Biso   1.000  H
  H6       1.0000 0.59710  0.42470  0.89590  Biso   1.000  H
  H7       1.0000 0.59710  0.07530  0.39590  Biso   1.000  H
  H8       1.0000 0.40290  0.57530  0.10410  Biso   1.000  H
  C13      1.0000 0.29390  0.98780  0.61550  Biso   1.000  C
  C14      1.0000 0.70610  0.48780  0.88450  Biso   1.000  C
  C15      1.0000 0.70610  0.01220  0.38450  Biso   1.000  C
  C16      1.0000 0.29390  0.51220  0.11550  Biso   1.000  C
  H9       1.0000 0.22360  0.98580  0.59070  Biso   1.000  H
  H10      1.0000 0.77640  0.48580  0.90930  Biso   1.000  H
  H11      1.0000 0.77640  0.01420  0.40930  Biso   1.000  H
  H12      1.0000 0.22360  0.51420  0.09070  Biso   1.000  H
  H13      1.0000 0.32540  0.01740  0.59370  Biso   1.000  H
  H14      1.0000 0.67460  0.51740  0.90630  Biso   1.000  H
  H15      1.0000 0.67460  0.98260  0.40630  Biso   1.000  H
  H16      1.0000 0.32540  0.48260  0.09370  Biso   1.000  H
  H17      1.0000 0.30250  0.99910  0.66350  Biso   1.000  H
  H18      1.0000 0.69750  0.49910  0.83650  Biso   1.000  H
  H19      1.0000 0.69750  0.00090  0.33650  Biso   1.000  H
  H20      1.0000 0.30250  0.50090  0.16350  Biso   1.000  H
  O9       1.0000 0.43410  0.70750  0.75200  Biso   1.000  O
  O10      1.0000 0.56590  0.20750  0.74800  Biso   1.000  O
  O11      1.0000 0.56590  0.29250  0.24800  Biso   1.000  O
  O12      1.0000 0.43410  0.79250  0.25200  Biso   1.000  O
  O13      1.0000 0.55660  0.75960  0.72610  Biso   1.000  O
  O14      1.0000 0.44340  0.25960  0.77390  Biso   1.000  O
  O15      1.0000 0.44340  0.24040  0.27390  Biso   1.000  O
  O16      1.0000 0.55660  0.74040  0.22610  Biso   1.000  O
  C17      1.0000 0.51240  0.74050  0.76850  Biso   1.000  C
  C18      1.0000 0.48760  0.24050  0.73150  Biso   1.000  C
  C19      1.0000 0.48760  0.25950  0.23150  Biso   1.000  C
  C20      1.0000 0.51240  0.75950  0.26850  Biso   1.000  C
  C21      1.0000 0.54830  0.75610  0.84360  Biso   1.000  C
  C22      1.0000 0.45170  0.25610  0.65640  Biso   1.000  C
  C23      1.0000 0.45170  0.24390  0.15640  Biso   1.000  C
  C24      1.0000 0.54830  0.74390  0.34360  Biso   1.000  C
  H21      1.0000 0.53920  0.72830  0.87620  Biso   1.000  H
  H22      1.0000 0.46080  0.22830  0.62380  Biso   1.000  H
  H23      1.0000 0.46080  0.27170  0.12380  Biso   1.000  H
  H24      1.0000 0.53920  0.77170  0.37620  Biso   1.000  H
  C25      1.0000 0.59310  0.80820  0.86690  Biso   1.000  C
  C26      1.0000 0.40690  0.30820  0.63310  Biso   1.000  C
  C27      1.0000 0.40690  0.19180  0.13310  Biso   1.000  C
  C28      1.0000 0.59310  0.69180  0.36690  Biso   1.000  C
  H25      1.0000 0.60560  0.83470  0.83410  Biso   1.000  H
  H26      1.0000 0.39440  0.33470  0.66590  Biso   1.000  H
  H27      1.0000 0.39440  0.16530  0.16590  Biso   1.000  H
  H28      1.0000 0.60560  0.66530  0.33410  Biso   1.000  H
  C29      1.0000 0.62490  0.82720  0.94250  Biso   1.000  C
  C30      1.0000 0.37510  0.32720  0.55750  Biso   1.000  C
  C31      1.0000 0.37510  0.17280  0.05750  Biso   1.000  C
  C32      1.0000 0.62490  0.67280  0.44250  Biso   1.000  C
  H29      1.0000 0.61900  0.79350  0.97150  Biso   1.000  H
  H30      1.0000 0.38100  0.29350  0.52850  Biso   1.000  H
  H31      1.0000 0.38100  0.20650  0.02850  Biso   1.000  H
  H32      1.0000 0.61900  0.70650  0.47150  Biso   1.000  H
  H33      1.0000 0.58270  0.85960  0.94910  Biso   1.000  H
  H34      1.0000 0.41730  0.35960  0.55090  Biso   1.000  H
  H35      1.0000 0.41730  0.14040  0.05090  Biso   1.000  H
  H36      1.0000 0.58270  0.64040  0.44910  Biso   1.000  H
  H37      1.0000 0.69340  0.84060  0.95560  Biso   1.000  H
  H38      1.0000 0.30660  0.34060  0.54440  Biso   1.000  H
  H39      1.0000 0.30660  0.15940  0.04440  Biso   1.000  H
  H40      1.0000 0.69340  0.65940  0.45560  Biso   1.000  H
  O17      1.0000 0.44400  0.61610  0.65940  Biso   1.000  O
  O18      1.0000 0.55600  0.11610  0.84060  Biso   1.000  O
  O19      1.0000 0.55600  0.38390  0.34060  Biso   1.000  O
  O20      1.0000 0.44400  0.88390  0.15940  Biso   1.000  O
  O21      1.0000 0.57680  0.66310  0.64260  Biso   1.000  O
  O22      1.0000 0.42320  0.16310  0.85740  Biso   1.000  O
  O23      1.0000 0.42320  0.33690  0.35740  Biso   1.000  O
  O24      1.0000 0.57680  0.83690  0.14260  Biso   1.000  O
  C33      1.0000 0.53180  0.61560  0.65640  Biso   1.000  C
  C34      1.0000 0.46820  0.11560  0.84360  Biso   1.000  C
  C35      1.0000 0.46820  0.38440  0.34360  Biso   1.000  C
  C36      1.0000 0.53180  0.88440  0.15640  Biso   1.000  C
  C37      1.0000 0.59000  0.55900  0.66980  Biso   1.000  C
  C38      1.0000 0.41000  0.05900  0.83020  Biso   1.000  C
  C39      1.0000 0.41000  0.44100  0.33020  Biso   1.000  C
  C40      1.0000 0.59000  0.94100  0.16980  Biso   1.000  C
  H41      1.0000 0.65770  0.56050  0.67240  Biso   1.000  H
  H42      1.0000 0.34230  0.06050  0.82760  Biso   1.000  H
  H43      1.0000 0.34230  0.43950  0.32760  Biso   1.000  H
  H44      1.0000 0.65770  0.93950  0.17240  Biso   1.000  H
  C41      1.0000 0.55260  0.50820  0.67790  Biso   1.000  C
  C42      1.0000 0.44740  0.00820  0.82210  Biso   1.000  C
  C43      1.0000 0.44740  0.49180  0.32210  Biso   1.000  C
  C44      1.0000 0.55260  0.99180  0.17790  Biso   1.000  C
  H45      1.0000 0.48570  0.50810  0.67730  Biso   1.000  H
  H46      1.0000 0.51430  0.00810  0.82270  Biso   1.000  H
  H47      1.0000 0.51430  0.49190  0.32270  Biso   1.000  H
  H48      1.0000 0.48570  0.99190  0.17730  Biso   1.000  H
  C45      1.0000 0.60610  0.44740  0.68850  Biso   1.000  C
  C46      1.0000 0.39390  0.94740  0.81150  Biso   1.000  C
  C47      1.0000 0.39390  0.55260  0.31150  Biso   1.000  C
  C48      1.0000 0.60610  0.05260  0.18850  Biso   1.000  C
  H49      1.0000 0.58810  0.42550  0.64490  Biso   1.000  H
  H50      1.0000 0.41190  0.92550  0.85510  Biso   1.000  H
  H51      1.0000 0.41190  0.57450  0.35510  Biso   1.000  H
  H52      1.0000 0.58810  0.07450  0.14490  Biso   1.000  H
  H53      1.0000 0.58670  0.42460  0.72340  Biso   1.000  H
  H54      1.0000 0.41330  0.92460  0.77660  Biso   1.000  H
  H55      1.0000 0.41330  0.57540  0.27660  Biso   1.000  H
  H56      1.0000 0.58670  0.07540  0.22340  Biso   1.000  H
  H57      1.0000 0.67740  0.45380  0.70390  Biso   1.000  H
  H58      1.0000 0.32260  0.95380  0.79610  Biso   1.000  H
  H59      1.0000 0.32260  0.54620  0.29610  Biso   1.000  H
  H60      1.0000 0.67740  0.04620  0.20390  Biso   1.000  H
  O25      1.0000 0.31230  0.67860  0.55110  Biso   1.000  O
  O26      1.0000 0.68770  0.17860  0.94890  Biso   1.000  O
  O27      1.0000 0.68770  0.32140  0.44890  Biso   1.000  O
  O28      1.0000 0.31230  0.82140  0.05110  Biso   1.000  O
  O29      1.0000 0.44280  0.72090  0.52590  Biso   1.000  O
  O30      1.0000 0.55720  0.22090  0.97410  Biso   1.000  O
  O31      1.0000 0.55720  0.27910  0.47410  Biso   1.000  O
  O32      1.0000 0.44280  0.77910  0.02590  Biso   1.000  O
  C49      1.0000 0.35930  0.69630  0.50980  Biso   1.000  C
  C50      1.0000 0.64070  0.19630  0.99020  Biso   1.000  C
  C51      1.0000 0.64070  0.30370  0.49020  Biso   1.000  C
  C52      1.0000 0.35930  0.80370  0.00980  Biso   1.000  C
  C53      1.0000 0.30120  0.68440  0.43210  Biso   1.000  C
  C54      1.0000 0.69880  0.18440  0.06790  Biso   1.000  C
  C55      1.0000 0.69880  0.31560  0.56790  Biso   1.000  C
  C56      1.0000 0.30120  0.81560  0.93210  Biso   1.000  C
  H61      1.0000 0.24780  0.65740  0.42220  Biso   1.000  H
  H62      1.0000 0.75220  0.15740  0.07780  Biso   1.000  H
  H63      1.0000 0.75220  0.34260  0.57780  Biso   1.000  H
  H64      1.0000 0.24780  0.84260  0.92220  Biso   1.000  H
  C57      1.0000 0.32310  0.71010  0.38010  Biso   1.000  C
  C58      1.0000 0.67690  0.21010  0.11990  Biso   1.000  C
  C59      1.0000 0.67690  0.28990  0.61990  Biso   1.000  C
  C60      1.0000 0.32310  0.78990  0.88010  Biso   1.000  C
  H65      1.0000 0.37840  0.73570  0.39020  Biso   1.000  H
  H66      1.0000 0.62160  0.23570  0.10980  Biso   1.000  H
  H67      1.0000 0.62160  0.26430  0.60980  Biso   1.000  H
  H68      1.0000 0.37840  0.76430  0.89020  Biso   1.000  H
  C61      1.0000 0.26490  0.70100  0.30500  Biso   1.000  C
  C62      1.0000 0.73510  0.20100  0.19500  Biso   1.000  C
  C63      1.0000 0.73510  0.29900  0.69500  Biso   1.000  C
  C64      1.0000 0.26490  0.79900  0.80500  Biso   1.000  C
  H69      1.0000 0.21380  0.67120  0.30180  Biso   1.000  H
  H70      1.0000 0.78620  0.17120  0.19820  Biso   1.000  H
  H71      1.0000 0.78620  0.32880  0.69820  Biso   1.000  H
  H72      1.0000 0.21380  0.82880  0.80180  Biso   1.000  H
  H73      1.0000 0.30910  0.68750  0.27920  Biso   1.000  H
  H74      1.0000 0.69090  0.18750  0.22080  Biso   1.000  H
  H75      1.0000 0.69090  0.31250  0.72080  Biso   1.000  H
  H76      1.0000 0.30910  0.81250  0.77920  Biso   1.000  H
  H77      1.0000 0.23440  0.73850  0.28560  Biso   1.000  H
  H78      1.0000 0.76560  0.23850  0.21440  Biso   1.000  H
  H79      1.0000 0.76560  0.26150  0.71440  Biso   1.000  H
  H80      1.0000 0.23440  0.76150  0.78560  Biso   1.000  H
  O33      1.0000 0.95750  0.57510  0.52530  Biso   1.000  O
  O34      1.0000 0.04250  0.07510  0.97470  Biso   1.000  O
  O35      1.0000 0.04250  0.42490  0.47470  Biso   1.000  O
  O36      1.0000 0.95750  0.92490  0.02530  Biso   1.000  O
  O37      1.0000 0.87600  0.61060  0.59470  Biso   1.000  O
  O38      1.0000 0.12400  0.11060  0.90530  Biso   1.000  O
  O39      1.0000 0.12400  0.38940  0.40530  Biso   1.000  O
  O40      1.0000 0.87600  0.88940  0.09470  Biso   1.000  O
  C65      1.0000 0.88330  0.57320  0.54900  Biso   1.000  C
  C66      1.0000 0.11670  0.07320  0.95100  Biso   1.000  C
  C67      1.0000 0.11670  0.42680  0.45100  Biso   1.000  C
  C68      1.0000 0.88330  0.92680  0.04900  Biso   1.000  C
  C69      1.0000 0.80790  0.52650  0.52190  Biso   1.000  C
  C70      1.0000 0.19210  0.02650  0.97810  Biso   1.000  C
  C71      1.0000 0.19210  0.47350  0.47810  Biso   1.000  C
  C72      1.0000 0.80790  0.97350  0.02190  Biso   1.000  C
  H81      1.0000 0.82450  0.49640  0.49470  Biso   1.000  H
  H82      1.0000 0.17550  0.99640  0.00530  Biso   1.000  H
  H83      1.0000 0.17550  0.50360  0.50530  Biso   1.000  H
  H84      1.0000 0.82450  0.00360  0.99470  Biso   1.000  H
  C73      1.0000 0.72380  0.52250  0.53130  Biso   1.000  C
  C74      1.0000 0.27620  0.02250  0.96870  Biso   1.000  C
  C75      1.0000 0.27620  0.47750  0.46870  Biso   1.000  C
  C76      1.0000 0.72380  0.97750  0.03130  Biso   1.000  C
  H85      1.0000 0.70940  0.55200  0.56020  Biso   1.000  H
  H86      1.0000 0.29060  0.05200  0.93980  Biso   1.000  H
  H87      1.0000 0.29060  0.44800  0.43980  Biso   1.000  H
  H88      1.0000 0.70940  0.94800  0.06020  Biso   1.000  H
  C77      1.0000 0.64260  0.47720  0.50250  Biso   1.000  C
  C78      1.0000 0.35740  0.97720  0.99750  Biso   1.000  C
  C79      1.0000 0.35740  0.52280  0.49750  Biso   1.000  C
  C80      1.0000 0.64260  0.02280  0.00250  Biso   1.000  C
  H89      1.0000 0.65820  0.45400  0.46630  Biso   1.000  H
  H90      1.0000 0.34180  0.95400  0.03370  Biso   1.000  H
  H91      1.0000 0.34180  0.54600  0.53370  Biso   1.000  H
  H92      1.0000 0.65820  0.04600  0.96630  Biso   1.000  H
  H93      1.0000 0.57990  0.49770  0.48310  Biso   1.000  H
  H94      1.0000 0.42010  0.99770  0.01690  Biso   1.000  H
  H95      1.0000 0.42010  0.50230  0.51690  Biso   1.000  H
  H96      1.0000 0.57990  0.00230  0.98310  Biso   1.000  H
  H97      1.0000 0.63770  0.45070  0.53950  Biso   1.000  H
  H98      1.0000 0.36230  0.95070  0.96050  Biso   1.000  H
  H99      1.0000 0.36230  0.54930  0.46050  Biso   1.000  H
  H100     1.0000 0.63770  0.04930  0.03950  Biso   1.000  H
  O41      1.0000 0.21680  0.65230  0.66340  Biso   1.000  O
  O42      1.0000 0.78320  0.15230  0.83660  Biso   1.000  O
  O43      1.0000 0.78320  0.34770  0.33660  Biso   1.000  O
  O44      1.0000 0.21680  0.84770  0.16340  Biso   1.000  O
  O45      1.0000 0.10650  0.58190  0.66290  Biso   1.000  O
  O46      1.0000 0.89350  0.08190  0.83710  Biso   1.000  O
  O47      1.0000 0.89350  0.41810  0.33710  Biso   1.000  O
  O48      1.0000 0.10650  0.91810  0.16290  Biso   1.000  O
  C81      1.0000 0.19580  0.60050  0.68290  Biso   1.000  C
  C82      1.0000 0.80420  0.10050  0.81710  Biso   1.000  C
  C83      1.0000 0.80420  0.39950  0.31710  Biso   1.000  C
  C84      1.0000 0.19580  0.89950  0.18290  Biso   1.000  C
  C85      1.0000 0.27930  0.56090  0.72730  Biso   1.000  C
  C86      1.0000 0.72070  0.06090  0.77270  Biso   1.000  C
  C87      1.0000 0.72070  0.43910  0.27270  Biso   1.000  C
  C88      1.0000 0.27930  0.93910  0.22730  Biso   1.000  C
  H101     1.0000 0.34460  0.57580  0.74050  Biso   1.000  H
  H102     1.0000 0.65540  0.07580  0.75950  Biso   1.000  H
  H103     1.0000 0.65540  0.42420  0.25950  Biso   1.000  H
  H104     1.0000 0.34460  0.92420  0.24050  Biso   1.000  H
  C89      1.0000 0.26350  0.50750  0.74740  Biso   1.000  C
  C90      1.0000 0.73650  0.00750  0.75260  Biso   1.000  C
  C91      1.0000 0.73650  0.49250  0.25260  Biso   1.000  C
  C92      1.0000 0.26350  0.99250  0.24740  Biso   1.000  C
  H105     1.0000 0.19750  0.49390  0.73370  Biso   1.000  H
  H106     1.0000 0.80250  0.99390  0.76630  Biso   1.000  H
  H107     1.0000 0.80250  0.50610  0.26630  Biso   1.000  H
  H108     1.0000 0.19750  0.00610  0.23370  Biso   1.000  H
  C93      1.0000 0.34170  0.46500  0.79110  Biso   1.000  C
  C94      1.0000 0.65830  0.96500  0.70890  Biso   1.000  C
  C95      1.0000 0.65830  0.53500  0.20890  Biso   1.000  C
  C96      1.0000 0.34170  0.03500  0.29110  Biso   1.000  C
  H109     1.0000 0.40710  0.48210  0.79830  Biso   1.000  H
  H110     1.0000 0.59290  0.98210  0.70170  Biso   1.000  H
  H111     1.0000 0.59290  0.51790  0.20170  Biso   1.000  H
  H112     1.0000 0.40710  0.01790  0.29830  Biso   1.000  H
  H113     1.0000 0.33770  0.42700  0.76710  Biso   1.000  H
  H114     1.0000 0.66230  0.92700  0.73290  Biso   1.000  H
  H115     1.0000 0.66230  0.57300  0.23290  Biso   1.000  H
  H116     1.0000 0.33770  0.07300  0.26710  Biso   1.000  H
  H117     1.0000 0.33010  0.45870  0.83580  Biso   1.000  H
  H118     1.0000 0.66990  0.95870  0.66420  Biso   1.000  H
  H119     1.0000 0.66990  0.54130  0.16420  Biso   1.000  H
  H120     1.0000 0.33010  0.04130  0.33580  Biso   1.000  H
  O49      1.0000 0.87410  0.74420  0.57110  Biso   1.000  O
  O50      1.0000 0.12590  0.24420  0.92890  Biso   1.000  O
  O51      1.0000 0.12590  0.25580  0.42890  Biso   1.000  O
  O52      1.0000 0.87410  0.75580  0.07110  Biso   1.000  O
  O53      1.0000 0.92210  0.70440  0.48660  Biso   1.000  O
  O54      1.0000 0.07790  0.20440  0.01340  Biso   1.000  O
  O55      1.0000 0.07790  0.29560  0.51340  Biso   1.000  O
  O56      1.0000 0.92210  0.79560  0.98660  Biso   1.000  O
  C97      1.0000 0.87200  0.74410  0.50660  Biso   1.000  C
  C98      1.0000 0.12800  0.24410  0.99340  Biso   1.000  C
  C99      1.0000 0.12800  0.25590  0.49340  Biso   1.000  C
  C100     1.0000 0.87200  0.75590  0.00660  Biso   1.000  C
  C101     1.0000 0.81510  0.79090  0.45920  Biso   1.000  C
  C102     1.0000 0.18490  0.29090  0.04080  Biso   1.000  C
  C103     1.0000 0.18490  0.20910  0.54080  Biso   1.000  C
  C104     1.0000 0.81510  0.70910  0.95920  Biso   1.000  C
  H121     1.0000 0.77550  0.81690  0.47640  Biso   1.000  H
  H122     1.0000 0.22450  0.31690  0.02360  Biso   1.000  H
  H123     1.0000 0.22450  0.18310  0.52360  Biso   1.000  H
  H124     1.0000 0.77550  0.68310  0.97640  Biso   1.000  H
  C105     1.0000 0.81640  0.79850  0.39450  Biso   1.000  C
  C106     1.0000 0.18360  0.29850  0.10550  Biso   1.000  C
  C107     1.0000 0.18360  0.20150  0.60550  Biso   1.000  C
  C108     1.0000 0.81640  0.70150  0.89450  Biso   1.000  C
  H125     1.0000 0.85540  0.77150  0.37800  Biso   1.000  H
  H126     1.0000 0.14460  0.27150  0.12200  Biso   1.000  H
  H127     1.0000 0.14460  0.22850  0.62200  Biso   1.000  H
  H128     1.0000 0.85540  0.72850  0.87800  Biso   1.000  H
  C109     1.0000 0.76360  0.84430  0.34530  Biso   1.000  C
  C110     1.0000 0.23640  0.34430  0.15470  Biso   1.000  C
  C111     1.0000 0.23640  0.15570  0.65470  Biso   1.000  C
  C112     1.0000 0.76360  0.65570  0.84530  Biso   1.000  C
  H129     1.0000 0.70610  0.85780  0.35830  Biso   1.000  H
  H130     1.0000 0.29390  0.35780  0.14170  Biso   1.000  H
  H131     1.0000 0.29390  0.14220  0.64170  Biso   1.000  H
  H132     1.0000 0.70610  0.64220  0.85830  Biso   1.000  H
  H133     1.0000 0.74220  0.82760  0.29870  Biso   1.000  H
  H134     1.0000 0.25780  0.32760  0.20130  Biso   1.000  H
  H135     1.0000 0.25780  0.17240  0.70130  Biso   1.000  H
  H136     1.0000 0.74220  0.67240  0.79870  Biso   1.000  H
  H137     1.0000 0.80750  0.87790  0.34630  Biso   1.000  H
  H138     1.0000 0.19250  0.37790  0.15370  Biso   1.000  H
  H139     1.0000 0.19250  0.12210  0.65370  Biso   1.000  H
  H140     1.0000 0.80750  0.62210  0.84630  Biso   1.000  H
  O57      1.0000 0.96100  0.75240  0.77670  Biso   1.000  O
  O58      1.0000 0.03900  0.25240  0.72330  Biso   1.000  O
  O59      1.0000 0.03900  0.24760  0.22330  Biso   1.000  O
  O60      1.0000 0.96100  0.74760  0.27670  Biso   1.000  O
  O61      1.0000 0.00080  0.69790  0.69840  Biso   1.000  O
  O62      1.0000 0.99920  0.19790  0.80160  Biso   1.000  O
  O63      1.0000 0.99920  0.30210  0.30160  Biso   1.000  O
  O64      1.0000 0.00080  0.80210  0.19840  Biso   1.000  O
  C113     1.0000 0.01020  0.71140  0.76150  Biso   1.000  C
  C114     1.0000 0.98980  0.21140  0.73850  Biso   1.000  C
  C115     1.0000 0.98980  0.28860  0.23850  Biso   1.000  C
  C116     1.0000 0.01020  0.78860  0.26150  Biso   1.000  C
  C117     1.0000 0.08490  0.67850  0.81830  Biso   1.000  C
  C118     1.0000 0.91510  0.17850  0.68170  Biso   1.000  C
  C119     1.0000 0.91510  0.32150  0.18170  Biso   1.000  C
  C120     1.0000 0.08490  0.82150  0.31830  Biso   1.000  C
  H141     1.0000 0.11990  0.64720  0.80490  Biso   1.000  H
  H142     1.0000 0.88010  0.14720  0.69510  Biso   1.000  H
  H143     1.0000 0.88010  0.35280  0.19510  Biso   1.000  H
  H144     1.0000 0.11990  0.85280  0.30490  Biso   1.000  H
  C121     1.0000 0.10480  0.68930  0.88270  Biso   1.000  C
  C122     1.0000 0.89520  0.18930  0.61730  Biso   1.000  C
  C123     1.0000 0.89520  0.31070  0.11730  Biso   1.000  C
  C124     1.0000 0.10480  0.81070  0.38270  Biso   1.000  C
  H145     1.0000 0.06950  0.72070  0.89560  Biso   1.000  H
  H146     1.0000 0.93050  0.22070  0.60440  Biso   1.000  H
  H147     1.0000 0.93050  0.27930  0.10440  Biso   1.000  H
  H148     1.0000 0.06950  0.77930  0.39560  Biso   1.000  H
  C125     1.0000 0.18040  0.65650  0.94160  Biso   1.000  C
  C126     1.0000 0.81960  0.15650  0.55840  Biso   1.000  C
  C127     1.0000 0.81960  0.34350  0.05840  Biso   1.000  C
  C128     1.0000 0.18040  0.84350  0.44160  Biso   1.000  C
  H149     1.0000 0.14770  0.62420  0.95860  Biso   1.000  H
  H150     1.0000 0.85230  0.12420  0.54140  Biso   1.000  H
  H151     1.0000 0.85230  0.37580  0.04140  Biso   1.000  H
  H152     1.0000 0.14770  0.87580  0.45860  Biso   1.000  H
  H153     1.0000 0.20920  0.68420  0.97930  Biso   1.000  H
  H154     1.0000 0.79080  0.18420  0.52070  Biso   1.000  H
  H155     1.0000 0.79080  0.31580  0.02070  Biso   1.000  H
  H156     1.0000 0.20920  0.81580  0.47930  Biso   1.000  H
  H157     1.0000 0.23250  0.64010  0.92450  Biso   1.000  H
  H158     1.0000 0.76750  0.14010  0.57550  Biso   1.000  H
  H159     1.0000 0.76750  0.35990  0.07550  Biso   1.000  H
  H160     1.0000 0.23250  0.85990  0.42450  Biso   1.000  H
  O65      1.0000 0.64760  0.78150  0.60610  Biso   1.000  O
  O66      1.0000 0.35240  0.28150  0.89390  Biso   1.000  O
  O67      1.0000 0.35240  0.21850  0.39390  Biso   1.000  O
  O68      1.0000 0.64760  0.71850  0.10610  Biso   1.000  O
  O69      1.0000 0.74310  0.85460  0.58950  Biso   1.000  O
  O70      1.0000 0.25690  0.35460  0.91050  Biso   1.000  O
  O71      1.0000 0.25690  0.14540  0.41050  Biso   1.000  O
  O72      1.0000 0.74310  0.64540  0.08950  Biso   1.000  O
  C129     1.0000 0.65780  0.82910  0.57460  Biso   1.000  C
  C130     1.0000 0.34220  0.32910  0.92540  Biso   1.000  C
  C131     1.0000 0.34220  0.17090  0.42540  Biso   1.000  C
  C132     1.0000 0.65780  0.67090  0.07460  Biso   1.000  C
  C133     1.0000 0.57020  0.85370  0.51870  Biso   1.000  C
  C134     1.0000 0.42980  0.35370  0.98130  Biso   1.000  C
  C135     1.0000 0.42980  0.14630  0.48130  Biso   1.000  C
  C136     1.0000 0.57020  0.64630  0.01870  Biso   1.000  C
  H161     1.0000 0.50910  0.83370  0.51050  Biso   1.000  H
  H162     1.0000 0.49090  0.33370  0.98950  Biso   1.000  H
  H163     1.0000 0.49090  0.16630  0.48950  Biso   1.000  H
  H164     1.0000 0.50910  0.66630  0.01050  Biso   1.000  H
  C137     1.0000 0.57300  0.89900  0.48220  Biso   1.000  C
  C138     1.0000 0.42700  0.39900  0.01780  Biso   1.000  C
  C139     1.0000 0.42700  0.10100  0.51780  Biso   1.000  C
  C140     1.0000 0.57300  0.60100  0.98220  Biso   1.000  C
  H165     1.0000 0.63340  0.91970  0.49080  Biso   1.000  H
  H166     1.0000 0.36660  0.41970  0.00920  Biso   1.000  H
  H167     1.0000 0.36660  0.08030  0.50920  Biso   1.000  H
  H168     1.0000 0.63340  0.58030  0.99080  Biso   1.000  H
  C141     1.0000 0.48260  0.92260  0.42420  Biso   1.000  C
  C142     1.0000 0.51740  0.42260  0.07580  Biso   1.000  C
  C143     1.0000 0.51740  0.07740  0.57580  Biso   1.000  C
  C144     1.0000 0.48260  0.57740  0.92420  Biso   1.000  C
  H169     1.0000 0.49170  0.91430  0.37910  Biso   1.000  H
  H170     1.0000 0.50830  0.41430  0.12090  Biso   1.000  H
  H171     1.0000 0.50830  0.08570  0.62090  Biso   1.000  H
  H172     1.0000 0.49170  0.58570  0.87910  Biso   1.000  H
  H173     1.0000 0.47650  0.96540  0.42950  Biso   1.000  H
  H174     1.0000 0.52350  0.46540  0.07050  Biso   1.000  H
  H175     1.0000 0.52350  0.03460  0.57050  Biso   1.000  H
  H176     1.0000 0.47650  0.53460  0.92950  Biso   1.000  H
  H177     1.0000 0.42280  0.90290  0.42740  Biso   1.000  H
  H178     1.0000 0.57720  0.40290  0.07260  Biso   1.000  H
  H179     1.0000 0.57720  0.09710  0.57260  Biso   1.000  H
  H180     1.0000 0.42280  0.59710  0.92740  Biso   1.000  H
  O73      1.0000 0.98370  0.83620  0.65880  Biso   1.000  O
  O74      1.0000 0.01630  0.33620  0.84120  Biso   1.000  O
  O75      1.0000 0.01630  0.16380  0.34120  Biso   1.000  O
  O76      1.0000 0.98370  0.66380  0.15880  Biso   1.000  O
  O77      1.0000 0.90370  0.87980  0.72440  Biso   1.000  O
  O78      1.0000 0.09630  0.37980  0.77560  Biso   1.000  O
  O79      1.0000 0.09630  0.12020  0.27560  Biso   1.000  O
  O80      1.0000 0.90370  0.62020  0.22440  Biso   1.000  O
  C145     1.0000 0.97360  0.88020  0.69740  Biso   1.000  C
  C146     1.0000 0.02640  0.38020  0.80260  Biso   1.000  C
  C147     1.0000 0.02640  0.11980  0.30260  Biso   1.000  C
  C148     1.0000 0.97360  0.61980  0.19740  Biso   1.000  C
  C149     1.0000 0.04240  0.93250  0.70550  Biso   1.000  C
  C150     1.0000 0.95760  0.43250  0.79450  Biso   1.000  C
  C151     1.0000 0.95760  0.06750  0.29450  Biso   1.000  C
  C152     1.0000 0.04240  0.56750  0.20550  Biso   1.000  C
  H181     1.0000 0.09320  0.93010  0.68410  Biso   1.000  H
  H182     1.0000 0.90680  0.43010  0.81590  Biso   1.000  H
  H183     1.0000 0.90680  0.06990  0.31590  Biso   1.000  H
  H184     1.0000 0.09320  0.56990  0.18410  Biso   1.000  H
  C153     1.0000 0.03680  0.98220  0.74060  Biso   1.000  C
  C154     1.0000 0.96320  0.48220  0.75940  Biso   1.000  C
  C155     1.0000 0.96320  0.01780  0.25940  Biso   1.000  C
  C156     1.0000 0.03680  0.51780  0.24060  Biso   1.000  C
  H185     1.0000 0.98470  0.98420  0.76080  Biso   1.000  H
  H186     1.0000 0.01530  0.48420  0.73920  Biso   1.000  H
  H187     1.0000 0.01530  0.01580  0.23920  Biso   1.000  H
  H188     1.0000 0.98470  0.51580  0.26080  Biso   1.000  H
  C157     1.0000 0.10530  0.03590  0.75160  Biso   1.000  C
  C158     1.0000 0.89470  0.53590  0.74840  Biso   1.000  C
  C159     1.0000 0.89470  0.96410  0.24840  Biso   1.000  C
  C160     1.0000 0.10530  0.46410  0.25160  Biso   1.000  C
  H189     1.0000 0.15880  0.02790  0.73160  Biso   1.000  H
  H190     1.0000 0.84120  0.52790  0.76840  Biso   1.000  H
  H191     1.0000 0.84120  0.97210  0.26840  Biso   1.000  H
  H192     1.0000 0.15880  0.47210  0.23160  Biso   1.000  H
  H193     1.0000 0.13270  0.04350  0.80110  Biso   1.000  H
  H194     1.0000 0.86730  0.54350  0.69890  Biso   1.000  H
  H195     1.0000 0.86730  0.95650  0.19890  Biso   1.000  H
  H196     1.0000 0.13270  0.45650  0.30110  Biso   1.000  H
  H197     1.0000 0.06820  0.07060  0.72920  Biso   1.000  H
  H198     1.0000 0.93180  0.57060  0.77080  Biso   1.000  H
  H199     1.0000 0.93180  0.92940  0.27080  Biso   1.000  H
  H200     1.0000 0.06820  0.42940  0.22920  Biso   1.000  H
  O81      1.0000 0.75270  0.79990  0.75010  Biso   1.000  O
  O82      1.0000 0.24730  0.29990  0.74990  Biso   1.000  O
  O83      1.0000 0.24730  0.20010  0.24990  Biso   1.000  O
  O84      1.0000 0.75270  0.70010  0.25010  Biso   1.000  O
  O85      1.0000 0.78290  0.68230  0.66900  Biso   1.000  O
  O86      1.0000 0.21710  0.18230  0.83100  Biso   1.000  O
  O87      1.0000 0.21710  0.31770  0.33100  Biso   1.000  O
  O88      1.0000 0.78290  0.81770  0.16900  Biso   1.000  O
  O89      1.0000 0.09540  0.76270  0.60560  Biso   1.000  O
  O90      1.0000 0.90460  0.26270  0.89440  Biso   1.000  O
  O91      1.0000 0.90460  0.23730  0.39440  Biso   1.000  O
  O92      1.0000 0.09540  0.73730  0.10560  Biso   1.000  O
  O93      1.0000 0.11580  0.65240  0.51540  Biso   1.000  O
  O94      1.0000 0.88420  0.15240  0.98460  Biso   1.000  O
  O95      1.0000 0.88420  0.34760  0.48460  Biso   1.000  O
  O96      1.0000 0.11580  0.84760  0.01540  Biso   1.000  O
  O97      1.0000 0.18780  0.36560  0.63440  Biso   1.000  O
  O98      1.0000 0.81220  0.86560  0.86560  Biso   1.000  O
  O99      1.0000 0.81220  0.63440  0.36560  Biso   1.000  O
  O100     1.0000 0.18780  0.13440  0.13440  Biso   1.000  O
  O101     1.0000 0.05210  0.03830  0.11080  Biso   1.000  O
  O102     1.0000 0.94790  0.53830  0.38920  Biso   1.000  O
  O103     1.0000 0.94790  0.96170  0.88920  Biso   1.000  O
  O104     1.0000 0.05210  0.46170  0.61080  Biso   1.000  O
  O105     1.0000 0.05400  0.64610  0.37390  Biso   1.000  O
  O106     1.0000 0.94600  0.14610  0.12610  Biso   1.000  O
  O107     1.0000 0.94600  0.35390  0.62610  Biso   1.000  O
  O108     1.0000 0.05400  0.85390  0.87390  Biso   1.000  O
