data_image0
_cell_length_a       13.8721
_cell_length_b       22.0682
_cell_length_c       19.8387
_cell_angle_alpha    90
_cell_angle_beta     107.137
_cell_angle_gamma    90

_symmetry_space_group_name_H-M    "P 1"
_symmetry_int_tables_number       1

loop_
  _symmetry_equiv_pos_as_xyz
  'x, y, z'

loop_
  _atom_site_label
  _atom_site_occupancy
  _atom_site_fract_x
  _atom_site_fract_y
  _atom_site_fract_z
  _atom_site_thermal_displace_type
  _atom_site_B_iso_or_equiv
  _atom_site_type_symbol
  Er1      1.0000 0.84406  0.78351  0.67093  Biso   1.000  Er
  Er2      1.0000 0.15594  0.28350  0.82907  Biso   1.000  Er
  Er3      1.0000 0.15594  0.21649  0.32907  Biso   1.000  Er
  Er4      1.0000 0.84406  0.71649  0.17093  Biso   1.000  Er
  Er5      1.0000 0.02532  0.66423  0.59495  Biso   1.000  Er
  Er6      1.0000 0.97468  0.16423  0.90505  Biso   1.000  Er
  Er7      1.0000 0.97468  0.33577  0.40505  Biso   1.000  Er
  Er8      1.0000 0.02532  0.83577  0.09495  Biso   1.000  Er
  Cu1      1.0000 0.36237  0.68858  0.65425  Biso   1.000  Cu
  Cu2      1.0000 0.63763  0.18858  0.84575  Biso   1.000  Cu
  Cu3      1.0000 0.63763  0.31142  0.34575  Biso   1.000  Cu
  Cu4      1.0000 0.36237  0.81142  0.15425  Biso   1.000  Cu
  Cu5      1.0000 0.51389  0.74295  0.62377  Biso   1.000  Cu
  Cu6      1.0000 0.48611  0.24295  0.87623  Biso   1.000  Cu
  Cu7      1.0000 0.48611  0.25705  0.37623  Biso   1.000  Cu
  Cu8      1.0000 0.51389  0.75705  0.12377  Biso   1.000  Cu
  O1       1.0000 0.30480  0.77130  0.64220  Biso   1.000  O
  O2       1.0000 0.69520  0.27130  0.85780  Biso   1.000  O
  O3       1.0000 0.69520  0.22870  0.35780  Biso   1.000  O
  O4       1.0000 0.30480  0.72870  0.14220  Biso   1.000  O
  O5       1.0000 0.43130  0.81480  0.61360  Biso   1.000  O
  O6       1.0000 0.56870  0.31480  0.88640  Biso   1.000  O
  O7       1.0000 0.56870  0.18520  0.38640  Biso   1.000  O
  O8       1.0000 0.43130  0.68520  0.11360  Biso   1.000  O
  C1       1.0000 0.34760  0.81630  0.62650  Biso   1.000  C
  C2       1.0000 0.65240  0.31630  0.87350  Biso   1.000  C
  C3       1.0000 0.65240  0.18370  0.37350  Biso   1.000  C
  C4       1.0000 0.34760  0.68370  0.12650  Biso   1.000  C
  C5       1.0000 0.29790  0.87310  0.62400  Biso   1.000  C
  C6       1.0000 0.70210  0.37310  0.87600  Biso   1.000  C
  C7       1.0000 0.70210  0.12690  0.37600  Biso   1.000  C
  C8       1.0000 0.29790  0.62690  0.12400  Biso   1.000  C
  H1       1.0000 0.23300  0.87370  0.62840  Biso   1.000  H
  H2       1.0000 0.76700  0.37370  0.87160  Biso   1.000  H
  H3       1.0000 0.76700  0.12630  0.37160  Biso   1.000  H
  H4       1.0000 0.23300  0.62630  0.12840  Biso   1.000  H
  C9       1.0000 0.33970  0.92410  0.61560  Biso   1.000  C
  C10      1.0000 0.66030  0.42410  0.88440  Biso   1.000  C
  C11      1.0000 0.66030  0.07590  0.38440  Biso   1.000  C
  C12      1.0000 0.33970  0.57590  0.11560  Biso   1.000  C
  H5       1.0000 0.40550  0.92260  0.61310  Biso   1.000  H
  H6       1.0000 0.59450  0.42260  0.88690  Biso   1.000  H
  H7       1.0000 0.59450  0.07740  0.38690  Biso   1.000  H
  H8       1.0000 0.40550  0.57740  0.11310  Biso   1.000  H
  C13      1.0000 0.29000  0.98600  0.60980  Biso   1.000  C
  C14      1.0000 0.71000  0.48600  0.89020  Biso   1.000  C
  C15      1.0000 0.71000  0.01400  0.39020  Biso   1.000  C
  C16      1.0000 0.29000  0.51400  0.10980  Biso   1.000  C
  H9       1.0000 0.22370  0.98190  0.61500  Biso   1.000  H
  H10      1.0000 0.77630  0.48190  0.88500  Biso   1.000  H
  H11      1.0000 0.77630  0.01810  0.38500  Biso   1.000  H
  H12      1.0000 0.22370  0.51810  0.11500  Biso   1.000  H
  H13      1.0000 0.28510  0.00330  0.56440  Biso   1.000  H
  H14      1.0000 0.71490  0.50330  0.93560  Biso   1.000  H
  H15      1.0000 0.71490  0.99670  0.43560  Biso   1.000  H
  H16      1.0000 0.28510  0.49670  0.06440  Biso   1.000  H
  H17      1.0000 0.32990  0.01210  0.64610  Biso   1.000  H
  H18      1.0000 0.67010  0.51210  0.85390  Biso   1.000  H
  H19      1.0000 0.67010  0.98790  0.35390  Biso   1.000  H
  H20      1.0000 0.32990  0.48790  0.14610  Biso   1.000  H
  O9       1.0000 0.43480  0.70680  0.75160  Biso   1.000  O
  O10      1.0000 0.56520  0.20680  0.74840  Biso   1.000  O
  O11      1.0000 0.56520  0.29320  0.24840  Biso   1.000  O
  O12      1.0000 0.43480  0.79320  0.25160  Biso   1.000  O
  O13      1.0000 0.55690  0.75980  0.72690  Biso   1.000  O
  O14      1.0000 0.44310  0.25980  0.77310  Biso   1.000  O
  O15      1.0000 0.44310  0.24020  0.27310  Biso   1.000  O
  O16      1.0000 0.55690  0.74020  0.22690  Biso   1.000  O
  C17      1.0000 0.51320  0.73920  0.76880  Biso   1.000  C
  C18      1.0000 0.48680  0.23920  0.73120  Biso   1.000  C
  C19      1.0000 0.48680  0.26080  0.23120  Biso   1.000  C
  C20      1.0000 0.51320  0.76080  0.26880  Biso   1.000  C
  C21      1.0000 0.55090  0.75610  0.84500  Biso   1.000  C
  C22      1.0000 0.44910  0.25610  0.65500  Biso   1.000  C
  C23      1.0000 0.44910  0.24390  0.15500  Biso   1.000  C
  C24      1.0000 0.55090  0.74390  0.34500  Biso   1.000  C
  H21      1.0000 0.54250  0.72860  0.87830  Biso   1.000  H
  H22      1.0000 0.45750  0.22860  0.62170  Biso   1.000  H
  H23      1.0000 0.45750  0.27140  0.12170  Biso   1.000  H
  H24      1.0000 0.54250  0.77140  0.37830  Biso   1.000  H
  C25      1.0000 0.59440  0.80670  0.86670  Biso   1.000  C
  C26      1.0000 0.40560  0.30670  0.63330  Biso   1.000  C
  C27      1.0000 0.40560  0.19330  0.13330  Biso   1.000  C
  C28      1.0000 0.59440  0.69330  0.36670  Biso   1.000  C
  H25      1.0000 0.60910  0.83200  0.83360  Biso   1.000  H
  H26      1.0000 0.39090  0.33200  0.66640  Biso   1.000  H
  H27      1.0000 0.39090  0.16800  0.16640  Biso   1.000  H
  H28      1.0000 0.60910  0.66800  0.33360  Biso   1.000  H
  C29      1.0000 0.62310  0.82790  0.94160  Biso   1.000  C
  C30      1.0000 0.37690  0.32790  0.55840  Biso   1.000  C
  C31      1.0000 0.37690  0.17210  0.05840  Biso   1.000  C
  C32      1.0000 0.62310  0.67210  0.44160  Biso   1.000  C
  H29      1.0000 0.61300  0.79570  0.97130  Biso   1.000  H
  H30      1.0000 0.38700  0.29570  0.52870  Biso   1.000  H
  H31      1.0000 0.38700  0.20430  0.02870  Biso   1.000  H
  H32      1.0000 0.61300  0.70430  0.47130  Biso   1.000  H
  H33      1.0000 0.58180  0.86190  0.94550  Biso   1.000  H
  H34      1.0000 0.41820  0.36190  0.55450  Biso   1.000  H
  H35      1.0000 0.41820  0.13810  0.05450  Biso   1.000  H
  H36      1.0000 0.58180  0.63810  0.44550  Biso   1.000  H
  H37      1.0000 0.69270  0.83980  0.95620  Biso   1.000  H
  H38      1.0000 0.30730  0.33980  0.54380  Biso   1.000  H
  H39      1.0000 0.30730  0.16020  0.04380  Biso   1.000  H
  H40      1.0000 0.69270  0.66020  0.45620  Biso   1.000  H
  O17      1.0000 0.44510  0.61620  0.66030  Biso   1.000  O
  O18      1.0000 0.55490  0.11620  0.83970  Biso   1.000  O
  O19      1.0000 0.55490  0.38380  0.33970  Biso   1.000  O
  O20      1.0000 0.44510  0.88380  0.16030  Biso   1.000  O
  O21      1.0000 0.57800  0.66250  0.64250  Biso   1.000  O
  O22      1.0000 0.42200  0.16250  0.85750  Biso   1.000  O
  O23      1.0000 0.42200  0.33750  0.35750  Biso   1.000  O
  O24      1.0000 0.57800  0.83750  0.14250  Biso   1.000  O
  C33      1.0000 0.52980  0.61580  0.65440  Biso   1.000  C
  C34      1.0000 0.47020  0.11580  0.84560  Biso   1.000  C
  C35      1.0000 0.47020  0.38420  0.34560  Biso   1.000  C
  C36      1.0000 0.52980  0.88420  0.15440  Biso   1.000  C
  C37      1.0000 0.58710  0.55850  0.66730  Biso   1.000  C
  C38      1.0000 0.41290  0.05850  0.83270  Biso   1.000  C
  C39      1.0000 0.41290  0.44150  0.33270  Biso   1.000  C
  C40      1.0000 0.58710  0.94150  0.16730  Biso   1.000  C
  H41      1.0000 0.65450  0.55990  0.66840  Biso   1.000  H
  H42      1.0000 0.34550  0.05990  0.83160  Biso   1.000  H
  H43      1.0000 0.34550  0.44010  0.33160  Biso   1.000  H
  H44      1.0000 0.65450  0.94010  0.16840  Biso   1.000  H
  C41      1.0000 0.55110  0.50720  0.67720  Biso   1.000  C
  C42      1.0000 0.44890  0.00720  0.82280  Biso   1.000  C
  C43      1.0000 0.44890  0.49280  0.32280  Biso   1.000  C
  C44      1.0000 0.55110  0.99280  0.17720  Biso   1.000  C
  H45      1.0000 0.48450  0.50760  0.67810  Biso   1.000  H
  H46      1.0000 0.51550  0.00760  0.82190  Biso   1.000  H
  H47      1.0000 0.51550  0.49240  0.32190  Biso   1.000  H
  H48      1.0000 0.48450  0.99240  0.17810  Biso   1.000  H
  C45      1.0000 0.60060  0.44740  0.68720  Biso   1.000  C
  C46      1.0000 0.39940  0.94740  0.81280  Biso   1.000  C
  C47      1.0000 0.39940  0.55260  0.31280  Biso   1.000  C
  C48      1.0000 0.60060  0.05260  0.18720  Biso   1.000  C
  H49      1.0000 0.56810  0.42150  0.64820  Biso   1.000  H
  H50      1.0000 0.43190  0.92150  0.85180  Biso   1.000  H
  H51      1.0000 0.43190  0.57850  0.35180  Biso   1.000  H
  H52      1.0000 0.56810  0.07850  0.14820  Biso   1.000  H
  H53      1.0000 0.59550  0.42960  0.73020  Biso   1.000  H
  H54      1.0000 0.40450  0.92960  0.76980  Biso   1.000  H
  H55      1.0000 0.40450  0.57040  0.26980  Biso   1.000  H
  H56      1.0000 0.59550  0.07040  0.23020  Biso   1.000  H
  H57      1.0000 0.67040  0.45200  0.68990  Biso   1.000  H
  H58      1.0000 0.32960  0.95200  0.81010  Biso   1.000  H
  H59      1.0000 0.32960  0.54800  0.31010  Biso   1.000  H
  H60      1.0000 0.67040  0.04800  0.18990  Biso   1.000  H
  O25      1.0000 0.31430  0.67820  0.55170  Biso   1.000  O
  O26      1.0000 0.68570  0.17820  0.94830  Biso   1.000  O
  O27      1.0000 0.68570  0.32180  0.44830  Biso   1.000  O
  O28      1.0000 0.31430  0.82180  0.05170  Biso   1.000  O
  O29      1.0000 0.44440  0.72040  0.52600  Biso   1.000  O
  O30      1.0000 0.55560  0.22040  0.97400  Biso   1.000  O
  O31      1.0000 0.55560  0.27960  0.47400  Biso   1.000  O
  O32      1.0000 0.44440  0.77960  0.02600  Biso   1.000  O
  C49      1.0000 0.35890  0.69520  0.50880  Biso   1.000  C
  C50      1.0000 0.64110  0.19520  0.99120  Biso   1.000  C
  C51      1.0000 0.64110  0.30480  0.49120  Biso   1.000  C
  C52      1.0000 0.35890  0.80480  0.00880  Biso   1.000  C
  C53      1.0000 0.30420  0.68420  0.43480  Biso   1.000  C
  C54      1.0000 0.69580  0.18420  0.06520  Biso   1.000  C
  C55      1.0000 0.69580  0.31580  0.56520  Biso   1.000  C
  C56      1.0000 0.30420  0.81580  0.93480  Biso   1.000  C
  H61      1.0000 0.25050  0.65710  0.42520  Biso   1.000  H
  H62      1.0000 0.74950  0.15710  0.07480  Biso   1.000  H
  H63      1.0000 0.74950  0.34290  0.57480  Biso   1.000  H
  H64      1.0000 0.25050  0.84290  0.92520  Biso   1.000  H
  C57      1.0000 0.32440  0.70880  0.38240  Biso   1.000  C
  C58      1.0000 0.67560  0.20880  0.11760  Biso   1.000  C
  C59      1.0000 0.67560  0.29120  0.61760  Biso   1.000  C
  C60      1.0000 0.32440  0.79120  0.88240  Biso   1.000  C
  H65      1.0000 0.38080  0.73380  0.39360  Biso   1.000  H
  H66      1.0000 0.61920  0.23380  0.10640  Biso   1.000  H
  H67      1.0000 0.61920  0.26620  0.60640  Biso   1.000  H
  H68      1.0000 0.38080  0.76620  0.89360  Biso   1.000  H
  C61      1.0000 0.26960  0.70290  0.30520  Biso   1.000  C
  C62      1.0000 0.73040  0.20290  0.19480  Biso   1.000  C
  C63      1.0000 0.73040  0.29710  0.69480  Biso   1.000  C
  C64      1.0000 0.26960  0.79710  0.80520  Biso   1.000  C
  H69      1.0000 0.21420  0.67520  0.29880  Biso   1.000  H
  H70      1.0000 0.78580  0.17520  0.20120  Biso   1.000  H
  H71      1.0000 0.78580  0.32480  0.70120  Biso   1.000  H
  H72      1.0000 0.21420  0.82480  0.79880  Biso   1.000  H
  H73      1.0000 0.31500  0.68780  0.28080  Biso   1.000  H
  H74      1.0000 0.68500  0.18780  0.21920  Biso   1.000  H
  H75      1.0000 0.68500  0.31220  0.71920  Biso   1.000  H
  H76      1.0000 0.31500  0.81220  0.78080  Biso   1.000  H
  H77      1.0000 0.24450  0.74180  0.28650  Biso   1.000  H
  H78      1.0000 0.75550  0.24180  0.21350  Biso   1.000  H
  H79      1.0000 0.75550  0.25820  0.71350  Biso   1.000  H
  H80      1.0000 0.24450  0.75820  0.78650  Biso   1.000  H
  O33      1.0000 0.95860  0.57540  0.52480  Biso   1.000  O
  O34      1.0000 0.04140  0.07540  0.97520  Biso   1.000  O
  O35      1.0000 0.04140  0.42460  0.47520  Biso   1.000  O
  O36      1.0000 0.95860  0.92460  0.02480  Biso   1.000  O
  O37      1.0000 0.87650  0.61070  0.59330  Biso   1.000  O
  O38      1.0000 0.12350  0.11070  0.90670  Biso   1.000  O
  O39      1.0000 0.12350  0.38930  0.40670  Biso   1.000  O
  O40      1.0000 0.87650  0.88930  0.09330  Biso   1.000  O
  C65      1.0000 0.88410  0.57310  0.54550  Biso   1.000  C
  C66      1.0000 0.11590  0.07310  0.95450  Biso   1.000  C
  C67      1.0000 0.11590  0.42690  0.45450  Biso   1.000  C
  C68      1.0000 0.88410  0.92690  0.04550  Biso   1.000  C
  C69      1.0000 0.80280  0.52630  0.51750  Biso   1.000  C
  C70      1.0000 0.19720  0.02630  0.98250  Biso   1.000  C
  C71      1.0000 0.19720  0.47370  0.48250  Biso   1.000  C
  C72      1.0000 0.80280  0.97370  0.01750  Biso   1.000  C
  H81      1.0000 0.81710  0.49680  0.48840  Biso   1.000  H
  H82      1.0000 0.18290  0.99680  0.01160  Biso   1.000  H
  H83      1.0000 0.18290  0.50320  0.51160  Biso   1.000  H
  H84      1.0000 0.81710  0.00320  0.98840  Biso   1.000  H
  C73      1.0000 0.72270  0.52210  0.52790  Biso   1.000  C
  C74      1.0000 0.27730  0.02210  0.97210  Biso   1.000  C
  C75      1.0000 0.27730  0.47790  0.47210  Biso   1.000  C
  C76      1.0000 0.72270  0.97790  0.02790  Biso   1.000  C
  H85      1.0000 0.70860  0.55070  0.55820  Biso   1.000  H
  H86      1.0000 0.29140  0.05070  0.94180  Biso   1.000  H
  H87      1.0000 0.29140  0.44930  0.44180  Biso   1.000  H
  H88      1.0000 0.70860  0.94930  0.05820  Biso   1.000  H
  C77      1.0000 0.64140  0.47580  0.49740  Biso   1.000  C
  C78      1.0000 0.35860  0.97580  0.00260  Biso   1.000  C
  C79      1.0000 0.35860  0.52420  0.50260  Biso   1.000  C
  C80      1.0000 0.64140  0.02420  0.99740  Biso   1.000  C
  H89      1.0000 0.67110  0.44020  0.48410  Biso   1.000  H
  H90      1.0000 0.32890  0.94020  0.01590  Biso   1.000  H
  H91      1.0000 0.32890  0.55980  0.51590  Biso   1.000  H
  H92      1.0000 0.67110  0.05980  0.98410  Biso   1.000  H
  H93      1.0000 0.59290  0.49250  0.45660  Biso   1.000  H
  H94      1.0000 0.40710  0.99250  0.04340  Biso   1.000  H
  H95      1.0000 0.40710  0.50750  0.54340  Biso   1.000  H
  H96      1.0000 0.59290  0.00750  0.95660  Biso   1.000  H
  H97      1.0000 0.60840  0.46530  0.53210  Biso   1.000  H
  H98      1.0000 0.39160  0.96530  0.96790  Biso   1.000  H
  H99      1.0000 0.39160  0.53470  0.46790  Biso   1.000  H
  H100     1.0000 0.60840  0.03470  0.03210  Biso   1.000  H
  O41      1.0000 0.21770  0.65160  0.66340  Biso   1.000  O
  O42      1.0000 0.78230  0.15160  0.83660  Biso   1.000  O
  O43      1.0000 0.78230  0.34840  0.33660  Biso   1.000  O
  O44      1.0000 0.21770  0.84840  0.16340  Biso   1.000  O
  O45      1.0000 0.10870  0.58160  0.66400  Biso   1.000  O
  O46      1.0000 0.89130  0.08160  0.83600  Biso   1.000  O
  O47      1.0000 0.89130  0.41840  0.33600  Biso   1.000  O
  O48      1.0000 0.10870  0.91840  0.16400  Biso   1.000  O
  C81      1.0000 0.19910  0.59920  0.68320  Biso   1.000  C
  C82      1.0000 0.80090  0.09920  0.81680  Biso   1.000  C
  C83      1.0000 0.80090  0.40080  0.31680  Biso   1.000  C
  C84      1.0000 0.19910  0.90080  0.18320  Biso   1.000  C
  C85      1.0000 0.27720  0.56170  0.72550  Biso   1.000  C
  C86      1.0000 0.72280  0.06170  0.77450  Biso   1.000  C
  C87      1.0000 0.72280  0.43830  0.27450  Biso   1.000  C
  C88      1.0000 0.27720  0.93830  0.22550  Biso   1.000  C
  H101     1.0000 0.34290  0.57660  0.73920  Biso   1.000  H
  H102     1.0000 0.65710  0.07660  0.76080  Biso   1.000  H
  H103     1.0000 0.65710  0.42340  0.26080  Biso   1.000  H
  H104     1.0000 0.34290  0.92340  0.23920  Biso   1.000  H
  C89      1.0000 0.26130  0.50810  0.74570  Biso   1.000  C
  C90      1.0000 0.73870  0.00810  0.75430  Biso   1.000  C
  C91      1.0000 0.73870  0.49190  0.25430  Biso   1.000  C
  C92      1.0000 0.26130  0.99190  0.24570  Biso   1.000  C
  H105     1.0000 0.19440  0.49550  0.73370  Biso   1.000  H
  H106     1.0000 0.80560  0.99550  0.76630  Biso   1.000  H
  H107     1.0000 0.80560  0.50450  0.26630  Biso   1.000  H
  H108     1.0000 0.19440  0.00450  0.23370  Biso   1.000  H
  C93      1.0000 0.33910  0.46340  0.78650  Biso   1.000  C
  C94      1.0000 0.66090  0.96340  0.71350  Biso   1.000  C
  C95      1.0000 0.66090  0.53660  0.21350  Biso   1.000  C
  C96      1.0000 0.33910  0.03660  0.28650  Biso   1.000  C
  H109     1.0000 0.40500  0.48130  0.79730  Biso   1.000  H
  H110     1.0000 0.59500  0.98130  0.70270  Biso   1.000  H
  H111     1.0000 0.59500  0.51870  0.20270  Biso   1.000  H
  H112     1.0000 0.40500  0.01870  0.29730  Biso   1.000  H
  H113     1.0000 0.33690  0.42750  0.75870  Biso   1.000  H
  H114     1.0000 0.66310  0.92750  0.74130  Biso   1.000  H
  H115     1.0000 0.66310  0.57250  0.24130  Biso   1.000  H
  H116     1.0000 0.33690  0.07250  0.25870  Biso   1.000  H
  H117     1.0000 0.32490  0.45290  0.82960  Biso   1.000  H
  H118     1.0000 0.67510  0.95290  0.67040  Biso   1.000  H
  H119     1.0000 0.67510  0.54710  0.17040  Biso   1.000  H
  H120     1.0000 0.32490  0.04710  0.32960  Biso   1.000  H
  O49      1.0000 0.87410  0.74420  0.57160  Biso   1.000  O
  O50      1.0000 0.12590  0.24420  0.92840  Biso   1.000  O
  O51      1.0000 0.12590  0.25580  0.42840  Biso   1.000  O
  O52      1.0000 0.87410  0.75580  0.07160  Biso   1.000  O
  O53      1.0000 0.92250  0.70320  0.48600  Biso   1.000  O
  O54      1.0000 0.07750  0.20320  0.01400  Biso   1.000  O
  O55      1.0000 0.07750  0.29680  0.51400  Biso   1.000  O
  O56      1.0000 0.92250  0.79680  0.98600  Biso   1.000  O
  C97      1.0000 0.87260  0.74350  0.50630  Biso   1.000  C
  C98      1.0000 0.12740  0.24350  0.99370  Biso   1.000  C
  C99      1.0000 0.12740  0.25650  0.49370  Biso   1.000  C
  C100     1.0000 0.87260  0.75650  0.00630  Biso   1.000  C
  C101     1.0000 0.81400  0.79060  0.45750  Biso   1.000  C
  C102     1.0000 0.18600  0.29060  0.04250  Biso   1.000  C
  C103     1.0000 0.18600  0.20940  0.54250  Biso   1.000  C
  C104     1.0000 0.81400  0.70940  0.95750  Biso   1.000  C
  H121     1.0000 0.77330  0.81650  0.47410  Biso   1.000  H
  H122     1.0000 0.22670  0.31650  0.02590  Biso   1.000  H
  H123     1.0000 0.22670  0.18350  0.52590  Biso   1.000  H
  H124     1.0000 0.77330  0.68350  0.97410  Biso   1.000  H
  C105     1.0000 0.81650  0.79740  0.39310  Biso   1.000  C
  C106     1.0000 0.18350  0.29740  0.10690  Biso   1.000  C
  C107     1.0000 0.18350  0.20260  0.60690  Biso   1.000  C
  C108     1.0000 0.81650  0.70260  0.89310  Biso   1.000  C
  H125     1.0000 0.85670  0.77120  0.37650  Biso   1.000  H
  H126     1.0000 0.14330  0.27120  0.12350  Biso   1.000  H
  H127     1.0000 0.14330  0.22880  0.62350  Biso   1.000  H
  H128     1.0000 0.85670  0.72880  0.87650  Biso   1.000  H
  C109     1.0000 0.76030  0.84350  0.34570  Biso   1.000  C
  C110     1.0000 0.23970  0.34350  0.15430  Biso   1.000  C
  C111     1.0000 0.23970  0.15650  0.65430  Biso   1.000  C
  C112     1.0000 0.76030  0.65650  0.84570  Biso   1.000  C
  H129     1.0000 0.69920  0.85240  0.35710  Biso   1.000  H
  H130     1.0000 0.30080  0.35240  0.14290  Biso   1.000  H
  H131     1.0000 0.30080  0.14760  0.64290  Biso   1.000  H
  H132     1.0000 0.69920  0.64760  0.85710  Biso   1.000  H
  H133     1.0000 0.74400  0.82910  0.29800  Biso   1.000  H
  H134     1.0000 0.25600  0.32910  0.20200  Biso   1.000  H
  H135     1.0000 0.25600  0.17090  0.70200  Biso   1.000  H
  H136     1.0000 0.74400  0.67090  0.79800  Biso   1.000  H
  H137     1.0000 0.80030  0.87960  0.35040  Biso   1.000  H
  H138     1.0000 0.19970  0.37960  0.14960  Biso   1.000  H
  H139     1.0000 0.19970  0.12040  0.64960  Biso   1.000  H
  H140     1.0000 0.80030  0.62040  0.85040  Biso   1.000  H
  O57      1.0000 0.95980  0.75220  0.77620  Biso   1.000  O
  O58      1.0000 0.04020  0.25220  0.72380  Biso   1.000  O
  O59      1.0000 0.04020  0.24780  0.22380  Biso   1.000  O
  O60      1.0000 0.95980  0.74780  0.27620  Biso   1.000  O
  O61      1.0000 0.00340  0.69840  0.69930  Biso   1.000  O
  O62      1.0000 0.99660  0.19840  0.80070  Biso   1.000  O
  O63      1.0000 0.99660  0.30160  0.30070  Biso   1.000  O
  O64      1.0000 0.00340  0.80160  0.19930  Biso   1.000  O
  C113     1.0000 0.01340  0.71160  0.76280  Biso   1.000  C
  C114     1.0000 0.98660  0.21160  0.73720  Biso   1.000  C
  C115     1.0000 0.98660  0.28840  0.23720  Biso   1.000  C
  C116     1.0000 0.01340  0.78840  0.26280  Biso   1.000  C
  C117     1.0000 0.08710  0.67680  0.81980  Biso   1.000  C
  C118     1.0000 0.91290  0.17680  0.68020  Biso   1.000  C
  C119     1.0000 0.91290  0.32320  0.18020  Biso   1.000  C
  C120     1.0000 0.08710  0.82320  0.31980  Biso   1.000  C
  H141     1.0000 0.12370  0.64610  0.80650  Biso   1.000  H
  H142     1.0000 0.87630  0.14610  0.69350  Biso   1.000  H
  H143     1.0000 0.87630  0.35390  0.19350  Biso   1.000  H
  H144     1.0000 0.12370  0.85390  0.30650  Biso   1.000  H
  C121     1.0000 0.10240  0.68630  0.88380  Biso   1.000  C
  C122     1.0000 0.89760  0.18630  0.61620  Biso   1.000  C
  C123     1.0000 0.89760  0.31370  0.11620  Biso   1.000  C
  C124     1.0000 0.10240  0.81370  0.38380  Biso   1.000  C
  H145     1.0000 0.06400  0.71680  0.89530  Biso   1.000  H
  H146     1.0000 0.93600  0.21680  0.60470  Biso   1.000  H
  H147     1.0000 0.93600  0.28320  0.10470  Biso   1.000  H
  H148     1.0000 0.06400  0.78320  0.39530  Biso   1.000  H
  C125     1.0000 0.17500  0.65470  0.94460  Biso   1.000  C
  C126     1.0000 0.82500  0.15470  0.55540  Biso   1.000  C
  C127     1.0000 0.82500  0.34530  0.05540  Biso   1.000  C
  C128     1.0000 0.17500  0.84530  0.44460  Biso   1.000  C
  H149     1.0000 0.14710  0.61650  0.95250  Biso   1.000  H
  H150     1.0000 0.85290  0.11650  0.54750  Biso   1.000  H
  H151     1.0000 0.85290  0.38350  0.04750  Biso   1.000  H
  H152     1.0000 0.14710  0.88350  0.45250  Biso   1.000  H
  H153     1.0000 0.18680  0.67940  0.98610  Biso   1.000  H
  H154     1.0000 0.81320  0.17940  0.51390  Biso   1.000  H
  H155     1.0000 0.81320  0.32060  0.01390  Biso   1.000  H
  H156     1.0000 0.18680  0.82060  0.48610  Biso   1.000  H
  H157     1.0000 0.23750  0.64810  0.93420  Biso   1.000  H
  H158     1.0000 0.76250  0.14810  0.56580  Biso   1.000  H
  H159     1.0000 0.76250  0.35190  0.06580  Biso   1.000  H
  H160     1.0000 0.23750  0.85190  0.43420  Biso   1.000  H
  O65      1.0000 0.64990  0.78110  0.60650  Biso   1.000  O
  O66      1.0000 0.35010  0.28110  0.89350  Biso   1.000  O
  O67      1.0000 0.35010  0.21890  0.39350  Biso   1.000  O
  O68      1.0000 0.64990  0.71890  0.10650  Biso   1.000  O
  O69      1.0000 0.74630  0.85400  0.59130  Biso   1.000  O
  O70      1.0000 0.25370  0.35400  0.90870  Biso   1.000  O
  O71      1.0000 0.25370  0.14600  0.40870  Biso   1.000  O
  O72      1.0000 0.74630  0.64600  0.09130  Biso   1.000  O
  C129     1.0000 0.66010  0.82920  0.57590  Biso   1.000  C
  C130     1.0000 0.33990  0.32920  0.92410  Biso   1.000  C
  C131     1.0000 0.33990  0.17080  0.42410  Biso   1.000  C
  C132     1.0000 0.66010  0.67080  0.07590  Biso   1.000  C
  C133     1.0000 0.57210  0.85280  0.52000  Biso   1.000  C
  C134     1.0000 0.42790  0.35280  0.98000  Biso   1.000  C
  C135     1.0000 0.42790  0.14720  0.48000  Biso   1.000  C
  C136     1.0000 0.57210  0.64720  0.02000  Biso   1.000  C
  H161     1.0000 0.51030  0.83370  0.51340  Biso   1.000  H
  H162     1.0000 0.48970  0.33370  0.98660  Biso   1.000  H
  H163     1.0000 0.48970  0.16630  0.48660  Biso   1.000  H
  H164     1.0000 0.51030  0.66630  0.01340  Biso   1.000  H
  C137     1.0000 0.57580  0.89470  0.48330  Biso   1.000  C
  C138     1.0000 0.42420  0.39470  0.01670  Biso   1.000  C
  C139     1.0000 0.42420  0.10530  0.51670  Biso   1.000  C
  C140     1.0000 0.57580  0.60530  0.98330  Biso   1.000  C
  H165     1.0000 0.63700  0.91490  0.49190  Biso   1.000  H
  H166     1.0000 0.36300  0.41490  0.00810  Biso   1.000  H
  H167     1.0000 0.36300  0.08510  0.50810  Biso   1.000  H
  H168     1.0000 0.63700  0.58510  0.99190  Biso   1.000  H
  C141     1.0000 0.48450  0.91850  0.42070  Biso   1.000  C
  C142     1.0000 0.51550  0.41850  0.07930  Biso   1.000  C
  C143     1.0000 0.51550  0.08150  0.57930  Biso   1.000  C
  C144     1.0000 0.48450  0.58150  0.92070  Biso   1.000  C
  H169     1.0000 0.50960  0.93540  0.38460  Biso   1.000  H
  H170     1.0000 0.49040  0.43540  0.11540  Biso   1.000  H
  H171     1.0000 0.49040  0.06460  0.61540  Biso   1.000  H
  H172     1.0000 0.50960  0.56460  0.88460  Biso   1.000  H
  H173     1.0000 0.44870  0.94910  0.43800  Biso   1.000  H
  H174     1.0000 0.55130  0.44910  0.06200  Biso   1.000  H
  H175     1.0000 0.55130  0.05090  0.56200  Biso   1.000  H
  H176     1.0000 0.44870  0.55090  0.93800  Biso   1.000  H
  H177     1.0000 0.43980  0.88540  0.40150  Biso   1.000  H
  H178     1.0000 0.56020  0.38540  0.09850  Biso   1.000  H
  H179     1.0000 0.56020  0.11460  0.59850  Biso   1.000  H
  H180     1.0000 0.43980  0.61460  0.90150  Biso   1.000  H
  O73      1.0000 0.98590  0.83620  0.65930  Biso   1.000  O
  O74      1.0000 0.01410  0.33620  0.84070  Biso   1.000  O
  O75      1.0000 0.01410  0.16380  0.34070  Biso   1.000  O
  O76      1.0000 0.98590  0.66380  0.15930  Biso   1.000  O
  O77      1.0000 0.90370  0.87930  0.72480  Biso   1.000  O
  O78      1.0000 0.09630  0.37930  0.77520  Biso   1.000  O
  O79      1.0000 0.09630  0.12070  0.27520  Biso   1.000  O
  O80      1.0000 0.90370  0.62070  0.22480  Biso   1.000  O
  C145     1.0000 0.97200  0.88070  0.69680  Biso   1.000  C
  C146     1.0000 0.02800  0.38070  0.80320  Biso   1.000  C
  C147     1.0000 0.02800  0.11930  0.30320  Biso   1.000  C
  C148     1.0000 0.97200  0.61930  0.19680  Biso   1.000  C
  C149     1.0000 0.04020  0.93270  0.70360  Biso   1.000  C
  C150     1.0000 0.95980  0.43270  0.79640  Biso   1.000  C
  C151     1.0000 0.95980  0.06730  0.29640  Biso   1.000  C
  C152     1.0000 0.04020  0.56730  0.20360  Biso   1.000  C
  H181     1.0000 0.09240  0.93050  0.68320  Biso   1.000  H
  H182     1.0000 0.90760  0.43050  0.81680  Biso   1.000  H
  H183     1.0000 0.90760  0.06950  0.31680  Biso   1.000  H
  H184     1.0000 0.09240  0.56950  0.18320  Biso   1.000  H
  C153     1.0000 0.03030  0.98040  0.73630  Biso   1.000  C
  C154     1.0000 0.96970  0.48040  0.76370  Biso   1.000  C
  C155     1.0000 0.96970  0.01960  0.26370  Biso   1.000  C
  C156     1.0000 0.03030  0.51960  0.23630  Biso   1.000  C
  H185     1.0000 0.97960  0.98070  0.75820  Biso   1.000  H
  H186     1.0000 0.02040  0.48070  0.74180  Biso   1.000  H
  H187     1.0000 0.02040  0.01930  0.24180  Biso   1.000  H
  H188     1.0000 0.97960  0.51930  0.25820  Biso   1.000  H
  C157     1.0000 0.09390  0.03720  0.74280  Biso   1.000  C
  C158     1.0000 0.90610  0.53720  0.75720  Biso   1.000  C
  C159     1.0000 0.90610  0.96280  0.25720  Biso   1.000  C
  C160     1.0000 0.09390  0.46280  0.24280  Biso   1.000  C
  H189     1.0000 0.15360  0.02820  0.72950  Biso   1.000  H
  H190     1.0000 0.84640  0.52820  0.77050  Biso   1.000  H
  H191     1.0000 0.84640  0.97180  0.27050  Biso   1.000  H
  H192     1.0000 0.15360  0.47180  0.22950  Biso   1.000  H
  H193     1.0000 0.11270  0.05130  0.79070  Biso   1.000  H
  H194     1.0000 0.88730  0.55130  0.70930  Biso   1.000  H
  H195     1.0000 0.88730  0.94870  0.20930  Biso   1.000  H
  H196     1.0000 0.11270  0.44870  0.29070  Biso   1.000  H
  H197     1.0000 0.05570  0.06800  0.71220  Biso   1.000  H
  H198     1.0000 0.94430  0.56800  0.78780  Biso   1.000  H
  H199     1.0000 0.94430  0.93200  0.28780  Biso   1.000  H
  H200     1.0000 0.05570  0.43200  0.21220  Biso   1.000  H
  O81      1.0000 0.75430  0.80040  0.75050  Biso   1.000  O
  O82      1.0000 0.24570  0.30040  0.74950  Biso   1.000  O
  O83      1.0000 0.24570  0.19960  0.24950  Biso   1.000  O
  O84      1.0000 0.75430  0.69960  0.25050  Biso   1.000  O
  O85      1.0000 0.78430  0.68260  0.66960  Biso   1.000  O
  O86      1.0000 0.21570  0.18260  0.83040  Biso   1.000  O
  O87      1.0000 0.21570  0.31740  0.33040  Biso   1.000  O
  O88      1.0000 0.78430  0.81740  0.16960  Biso   1.000  O
  O89      1.0000 0.09630  0.76160  0.60540  Biso   1.000  O
  O90      1.0000 0.90370  0.26160  0.89460  Biso   1.000  O
  O91      1.0000 0.90370  0.23840  0.39460  Biso   1.000  O
  O92      1.0000 0.09630  0.73840  0.10540  Biso   1.000  O
  O93      1.0000 0.11790  0.65260  0.51620  Biso   1.000  O
  O94      1.0000 0.88210  0.15260  0.98380  Biso   1.000  O
  O95      1.0000 0.88210  0.34740  0.48380  Biso   1.000  O
  O96      1.0000 0.11790  0.84740  0.01620  Biso   1.000  O
  O97      1.0000 0.81270  0.63400  0.36650  Biso   1.000  O
  O98      1.0000 0.18730  0.13400  0.13350  Biso   1.000  O
  O99      1.0000 0.18730  0.36600  0.63350  Biso   1.000  O
  O100     1.0000 0.81270  0.86600  0.86650  Biso   1.000  O
  O101     1.0000 0.94670  0.53760  0.38890  Biso   1.000  O
  O102     1.0000 0.05330  0.03760  0.11110  Biso   1.000  O
  O103     1.0000 0.05330  0.46240  0.61110  Biso   1.000  O
  O104     1.0000 0.94670  0.96240  0.88890  Biso   1.000  O
  O105     1.0000 0.05260  0.64630  0.37450  Biso   1.000  O
  O106     1.0000 0.94740  0.14630  0.12550  Biso   1.000  O
  O107     1.0000 0.94740  0.35370  0.62550  Biso   1.000  O
  O108     1.0000 0.05260  0.85370  0.87450  Biso   1.000  O
