data_image0
_cell_length_a       13.9272
_cell_length_b       22.089
_cell_length_c       19.918
_cell_angle_alpha    90
_cell_angle_beta     107.189
_cell_angle_gamma    90

_symmetry_space_group_name_H-M    "P 1"
_symmetry_int_tables_number       1

loop_
  _symmetry_equiv_pos_as_xyz
  'x, y, z'

loop_
  _atom_site_label
  _atom_site_occupancy
  _atom_site_fract_x
  _atom_site_fract_y
  _atom_site_fract_z
  _atom_site_thermal_displace_type
  _atom_site_B_iso_or_equiv
  _atom_site_type_symbol
  Gd1      1.0000 0.84326  0.78235  0.67065  Biso   1.000  Gd
  Gd2      1.0000 0.15674  0.28235  0.82935  Biso   1.000  Gd
  Gd3      1.0000 0.15674  0.21765  0.32935  Biso   1.000  Gd
  Gd4      1.0000 0.84326  0.71765  0.17065  Biso   1.000  Gd
  Gd5      1.0000 0.02483  0.66489  0.59481  Biso   1.000  Gd
  Gd6      1.0000 0.97517  0.16489  0.90519  Biso   1.000  Gd
  Gd7      1.0000 0.97517  0.33511  0.40519  Biso   1.000  Gd
  Gd8      1.0000 0.02483  0.83511  0.09481  Biso   1.000  Gd
  Cu1      1.0000 0.36177  0.68806  0.65395  Biso   1.000  Cu
  Cu2      1.0000 0.63823  0.18806  0.84605  Biso   1.000  Cu
  Cu3      1.0000 0.63823  0.31194  0.34605  Biso   1.000  Cu
  Cu4      1.0000 0.36177  0.81194  0.15395  Biso   1.000  Cu
  Cu5      1.0000 0.51360  0.74203  0.62399  Biso   1.000  Cu
  Cu6      1.0000 0.48640  0.24203  0.87601  Biso   1.000  Cu
  Cu7      1.0000 0.48640  0.25797  0.37601  Biso   1.000  Cu
  Cu8      1.0000 0.51360  0.75797  0.12399  Biso   1.000  Cu
  O1       1.0000 0.30530  0.77098  0.64270  Biso   1.000  O
  O2       1.0000 0.69470  0.27098  0.85730  Biso   1.000  O
  O3       1.0000 0.69470  0.22902  0.35730  Biso   1.000  O
  O4       1.0000 0.30530  0.72902  0.14270  Biso   1.000  O
  O5       1.0000 0.43200  0.81390  0.61390  Biso   1.000  O
  O6       1.0000 0.56800  0.31390  0.88610  Biso   1.000  O
  O7       1.0000 0.56800  0.18610  0.38610  Biso   1.000  O
  O8       1.0000 0.43200  0.68610  0.11390  Biso   1.000  O
  C1       1.0000 0.34860  0.81660  0.62630  Biso   1.000  C
  C2       1.0000 0.65140  0.31660  0.87370  Biso   1.000  C
  C3       1.0000 0.65140  0.18340  0.37370  Biso   1.000  C
  C4       1.0000 0.34860  0.68340  0.12630  Biso   1.000  C
  C5       1.0000 0.30050  0.87480  0.62490  Biso   1.000  C
  C6       1.0000 0.69950  0.37480  0.87510  Biso   1.000  C
  C7       1.0000 0.69950  0.12520  0.37510  Biso   1.000  C
  C8       1.0000 0.30050  0.62520  0.12490  Biso   1.000  C
  H1       1.0000 0.23750  0.87590  0.63210  Biso   1.000  H
  H2       1.0000 0.76250  0.37590  0.86790  Biso   1.000  H
  H3       1.0000 0.76250  0.12410  0.36790  Biso   1.000  H
  H4       1.0000 0.23750  0.62410  0.13210  Biso   1.000  H
  C9       1.0000 0.34030  0.92580  0.61430  Biso   1.000  C
  C10      1.0000 0.65970  0.42580  0.88570  Biso   1.000  C
  C11      1.0000 0.65970  0.07420  0.38570  Biso   1.000  C
  C12      1.0000 0.34030  0.57420  0.11430  Biso   1.000  C
  H5       1.0000 0.40220  0.92430  0.60540  Biso   1.000  H
  H6       1.0000 0.59780  0.42430  0.89460  Biso   1.000  H
  H7       1.0000 0.59780  0.07570  0.39460  Biso   1.000  H
  H8       1.0000 0.40220  0.57570  0.10540  Biso   1.000  H
  C13      1.0000 0.29310  0.98770  0.61530  Biso   1.000  C
  C14      1.0000 0.70690  0.48770  0.88470  Biso   1.000  C
  C15      1.0000 0.70690  0.01230  0.38470  Biso   1.000  C
  C16      1.0000 0.29310  0.51230  0.11530  Biso   1.000  C
  H9       1.0000 0.22390  0.98280  0.61360  Biso   1.000  H
  H10      1.0000 0.77610  0.48280  0.88640  Biso   1.000  H
  H11      1.0000 0.77610  0.01720  0.38640  Biso   1.000  H
  H12      1.0000 0.22390  0.51720  0.11360  Biso   1.000  H
  H13      1.0000 0.29700  0.01070  0.57530  Biso   1.000  H
  H14      1.0000 0.70300  0.51070  0.92470  Biso   1.000  H
  H15      1.0000 0.70300  0.98930  0.42470  Biso   1.000  H
  H16      1.0000 0.29700  0.48930  0.07530  Biso   1.000  H
  H17      1.0000 0.32840  0.00860  0.65760  Biso   1.000  H
  H18      1.0000 0.67160  0.50860  0.84240  Biso   1.000  H
  H19      1.0000 0.67160  0.99140  0.34240  Biso   1.000  H
  H20      1.0000 0.32840  0.49140  0.15760  Biso   1.000  H
  O9       1.0000 0.43450  0.70530  0.75130  Biso   1.000  O
  O10      1.0000 0.56550  0.20530  0.74870  Biso   1.000  O
  O11      1.0000 0.56550  0.29470  0.24870  Biso   1.000  O
  O12      1.0000 0.43450  0.79470  0.25130  Biso   1.000  O
  O13      1.0000 0.55610  0.75810  0.72590  Biso   1.000  O
  O14      1.0000 0.44390  0.25810  0.77410  Biso   1.000  O
  O15      1.0000 0.44390  0.24190  0.27410  Biso   1.000  O
  O16      1.0000 0.55610  0.74190  0.22590  Biso   1.000  O
  C17      1.0000 0.51110  0.73880  0.76870  Biso   1.000  C
  C18      1.0000 0.48890  0.23880  0.73130  Biso   1.000  C
  C19      1.0000 0.48890  0.26120  0.23130  Biso   1.000  C
  C20      1.0000 0.51110  0.76120  0.26870  Biso   1.000  C
  C21      1.0000 0.54880  0.75480  0.84400  Biso   1.000  C
  C22      1.0000 0.45120  0.25480  0.65600  Biso   1.000  C
  C23      1.0000 0.45120  0.24520  0.15600  Biso   1.000  C
  C24      1.0000 0.54880  0.74520  0.34400  Biso   1.000  C
  H21      1.0000 0.53940  0.72710  0.87660  Biso   1.000  H
  H22      1.0000 0.46060  0.22710  0.62340  Biso   1.000  H
  H23      1.0000 0.46060  0.27290  0.12340  Biso   1.000  H
  H24      1.0000 0.53940  0.77290  0.37660  Biso   1.000  H
  C25      1.0000 0.59520  0.80640  0.86770  Biso   1.000  C
  C26      1.0000 0.40480  0.30640  0.63230  Biso   1.000  C
  C27      1.0000 0.40480  0.19360  0.13230  Biso   1.000  C
  C28      1.0000 0.59520  0.69360  0.36770  Biso   1.000  C
  H25      1.0000 0.61050  0.83180  0.83520  Biso   1.000  H
  H26      1.0000 0.38950  0.33180  0.66480  Biso   1.000  H
  H27      1.0000 0.38950  0.16820  0.16480  Biso   1.000  H
  H28      1.0000 0.61050  0.66820  0.33520  Biso   1.000  H
  C29      1.0000 0.62400  0.82640  0.94060  Biso   1.000  C
  C30      1.0000 0.37600  0.32640  0.55940  Biso   1.000  C
  C31      1.0000 0.37600  0.17360  0.05940  Biso   1.000  C
  C32      1.0000 0.62400  0.67360  0.44060  Biso   1.000  C
  H29      1.0000 0.60800  0.79540  0.96940  Biso   1.000  H
  H30      1.0000 0.39200  0.29540  0.53060  Biso   1.000  H
  H31      1.0000 0.39200  0.20460  0.03060  Biso   1.000  H
  H32      1.0000 0.60800  0.70460  0.46940  Biso   1.000  H
  H33      1.0000 0.58800  0.86270  0.94430  Biso   1.000  H
  H34      1.0000 0.41200  0.36270  0.55570  Biso   1.000  H
  H35      1.0000 0.41200  0.13730  0.05570  Biso   1.000  H
  H36      1.0000 0.58800  0.63730  0.44430  Biso   1.000  H
  H37      1.0000 0.69490  0.83430  0.95630  Biso   1.000  H
  H38      1.0000 0.30510  0.33430  0.54370  Biso   1.000  H
  H39      1.0000 0.30510  0.16570  0.04370  Biso   1.000  H
  H40      1.0000 0.69490  0.66570  0.45630  Biso   1.000  H
  O17      1.0000 0.44370  0.61551  0.65970  Biso   1.000  O
  O18      1.0000 0.55630  0.11551  0.84030  Biso   1.000  O
  O19      1.0000 0.55630  0.38449  0.34030  Biso   1.000  O
  O20      1.0000 0.44370  0.88449  0.15970  Biso   1.000  O
  O21      1.0000 0.57650  0.66166  0.64220  Biso   1.000  O
  O22      1.0000 0.42350  0.16166  0.85780  Biso   1.000  O
  O23      1.0000 0.42350  0.33834  0.35780  Biso   1.000  O
  O24      1.0000 0.57650  0.83834  0.14220  Biso   1.000  O
  C33      1.0000 0.53180  0.61530  0.65620  Biso   1.000  C
  C34      1.0000 0.46820  0.11530  0.84380  Biso   1.000  C
  C35      1.0000 0.46820  0.38470  0.34380  Biso   1.000  C
  C36      1.0000 0.53180  0.88470  0.15620  Biso   1.000  C
  C37      1.0000 0.58900  0.55840  0.66900  Biso   1.000  C
  C38      1.0000 0.41100  0.05840  0.83100  Biso   1.000  C
  C39      1.0000 0.41100  0.44160  0.33100  Biso   1.000  C
  C40      1.0000 0.58900  0.94160  0.16900  Biso   1.000  C
  H41      1.0000 0.65680  0.55960  0.67170  Biso   1.000  H
  H42      1.0000 0.34320  0.05960  0.82830  Biso   1.000  H
  H43      1.0000 0.34320  0.44040  0.32830  Biso   1.000  H
  H44      1.0000 0.65680  0.94040  0.17170  Biso   1.000  H
  C41      1.0000 0.54950  0.50640  0.67660  Biso   1.000  C
  C42      1.0000 0.45050  0.00640  0.82340  Biso   1.000  C
  C43      1.0000 0.45050  0.49360  0.32340  Biso   1.000  C
  C44      1.0000 0.54950  0.99360  0.17660  Biso   1.000  C
  H45      1.0000 0.48180  0.50640  0.67420  Biso   1.000  H
  H46      1.0000 0.51820  0.00640  0.82580  Biso   1.000  H
  H47      1.0000 0.51820  0.49360  0.32580  Biso   1.000  H
  H48      1.0000 0.48180  0.99360  0.17420  Biso   1.000  H
  C45      1.0000 0.60220  0.44680  0.68900  Biso   1.000  C
  C46      1.0000 0.39780  0.94680  0.81100  Biso   1.000  C
  C47      1.0000 0.39780  0.55320  0.31100  Biso   1.000  C
  C48      1.0000 0.60220  0.05320  0.18900  Biso   1.000  C
  H49      1.0000 0.57750  0.42180  0.64810  Biso   1.000  H
  H50      1.0000 0.42250  0.92180  0.85190  Biso   1.000  H
  H51      1.0000 0.42250  0.57820  0.35190  Biso   1.000  H
  H52      1.0000 0.57750  0.07820  0.14810  Biso   1.000  H
  H53      1.0000 0.58980  0.42730  0.72870  Biso   1.000  H
  H54      1.0000 0.41020  0.92730  0.77130  Biso   1.000  H
  H55      1.0000 0.41020  0.57270  0.27130  Biso   1.000  H
  H56      1.0000 0.58980  0.07270  0.22870  Biso   1.000  H
  H57      1.0000 0.67310  0.45310  0.69810  Biso   1.000  H
  H58      1.0000 0.32690  0.95310  0.80190  Biso   1.000  H
  H59      1.0000 0.32690  0.54690  0.30190  Biso   1.000  H
  H60      1.0000 0.67310  0.04690  0.19810  Biso   1.000  H
  O25      1.0000 0.31420  0.67810  0.55240  Biso   1.000  O
  O26      1.0000 0.68580  0.17810  0.94760  Biso   1.000  O
  O27      1.0000 0.68580  0.32190  0.44760  Biso   1.000  O
  O28      1.0000 0.31420  0.82190  0.05240  Biso   1.000  O
  O29      1.0000 0.44370  0.72000  0.52610  Biso   1.000  O
  O30      1.0000 0.55630  0.22000  0.97390  Biso   1.000  O
  O31      1.0000 0.55630  0.28000  0.47390  Biso   1.000  O
  O32      1.0000 0.44370  0.78000  0.02610  Biso   1.000  O
  C49      1.0000 0.35900  0.69570  0.50910  Biso   1.000  C
  C50      1.0000 0.64100  0.19570  0.99090  Biso   1.000  C
  C51      1.0000 0.64100  0.30430  0.49090  Biso   1.000  C
  C52      1.0000 0.35900  0.80430  0.00910  Biso   1.000  C
  C53      1.0000 0.30480  0.68520  0.43490  Biso   1.000  C
  C54      1.0000 0.69520  0.18520  0.06510  Biso   1.000  C
  C55      1.0000 0.69520  0.31480  0.56510  Biso   1.000  C
  C56      1.0000 0.30480  0.81480  0.93490  Biso   1.000  C
  H61      1.0000 0.25070  0.65860  0.42490  Biso   1.000  H
  H62      1.0000 0.74930  0.15860  0.07510  Biso   1.000  H
  H63      1.0000 0.74930  0.34140  0.57510  Biso   1.000  H
  H64      1.0000 0.25070  0.84140  0.92490  Biso   1.000  H
  C57      1.0000 0.32590  0.71000  0.38250  Biso   1.000  C
  C58      1.0000 0.67410  0.21000  0.11750  Biso   1.000  C
  C59      1.0000 0.67410  0.29000  0.61750  Biso   1.000  C
  C60      1.0000 0.32590  0.79000  0.88250  Biso   1.000  C
  H65      1.0000 0.38110  0.73580  0.39260  Biso   1.000  H
  H66      1.0000 0.61890  0.23580  0.10740  Biso   1.000  H
  H67      1.0000 0.61890  0.26420  0.60740  Biso   1.000  H
  H68      1.0000 0.38110  0.76420  0.89260  Biso   1.000  H
  C61      1.0000 0.26910  0.70070  0.30590  Biso   1.000  C
  C62      1.0000 0.73090  0.20070  0.19410  Biso   1.000  C
  C63      1.0000 0.73090  0.29930  0.69410  Biso   1.000  C
  C64      1.0000 0.26910  0.79930  0.80590  Biso   1.000  C
  H69      1.0000 0.21630  0.67170  0.30200  Biso   1.000  H
  H70      1.0000 0.78370  0.17170  0.19800  Biso   1.000  H
  H71      1.0000 0.78370  0.32830  0.69800  Biso   1.000  H
  H72      1.0000 0.21630  0.82830  0.80200  Biso   1.000  H
  H73      1.0000 0.31420  0.68590  0.28140  Biso   1.000  H
  H74      1.0000 0.68580  0.18590  0.21860  Biso   1.000  H
  H75      1.0000 0.68580  0.31410  0.71860  Biso   1.000  H
  H76      1.0000 0.31420  0.81410  0.78140  Biso   1.000  H
  H77      1.0000 0.24050  0.73840  0.28570  Biso   1.000  H
  H78      1.0000 0.75950  0.23840  0.21430  Biso   1.000  H
  H79      1.0000 0.75950  0.26160  0.71430  Biso   1.000  H
  H80      1.0000 0.24050  0.76160  0.78570  Biso   1.000  H
  O33      1.0000 0.95860  0.57374  0.52520  Biso   1.000  O
  O34      1.0000 0.04140  0.07374  0.97480  Biso   1.000  O
  O35      1.0000 0.04140  0.42626  0.47480  Biso   1.000  O
  O36      1.0000 0.95860  0.92626  0.02520  Biso   1.000  O
  O37      1.0000 0.87470  0.60903  0.59310  Biso   1.000  O
  O38      1.0000 0.12530  0.10903  0.90690  Biso   1.000  O
  O39      1.0000 0.12530  0.39097  0.40690  Biso   1.000  O
  O40      1.0000 0.87470  0.89097  0.09310  Biso   1.000  O
  C65      1.0000 0.88300  0.57130  0.54660  Biso   1.000  C
  C66      1.0000 0.11700  0.07130  0.95340  Biso   1.000  C
  C67      1.0000 0.11700  0.42870  0.45340  Biso   1.000  C
  C68      1.0000 0.88300  0.92870  0.04660  Biso   1.000  C
  C69      1.0000 0.80520  0.52360  0.51830  Biso   1.000  C
  C70      1.0000 0.19480  0.02360  0.98170  Biso   1.000  C
  C71      1.0000 0.19480  0.47640  0.48170  Biso   1.000  C
  C72      1.0000 0.80520  0.97640  0.01830  Biso   1.000  C
  H81      1.0000 0.81970  0.49350  0.49020  Biso   1.000  H
  H82      1.0000 0.18030  0.99350  0.00980  Biso   1.000  H
  H83      1.0000 0.18030  0.50650  0.50980  Biso   1.000  H
  H84      1.0000 0.81970  0.00650  0.99020  Biso   1.000  H
  C73      1.0000 0.72220  0.52170  0.53010  Biso   1.000  C
  C74      1.0000 0.27780  0.02170  0.96990  Biso   1.000  C
  C75      1.0000 0.27780  0.47830  0.46990  Biso   1.000  C
  C76      1.0000 0.72220  0.97830  0.03010  Biso   1.000  C
  H85      1.0000 0.70870  0.55110  0.55960  Biso   1.000  H
  H86      1.0000 0.29130  0.05110  0.94040  Biso   1.000  H
  H87      1.0000 0.29130  0.44890  0.44040  Biso   1.000  H
  H88      1.0000 0.70870  0.94890  0.05960  Biso   1.000  H
  C77      1.0000 0.64220  0.47520  0.49990  Biso   1.000  C
  C78      1.0000 0.35780  0.97520  0.00010  Biso   1.000  C
  C79      1.0000 0.35780  0.52480  0.50010  Biso   1.000  C
  C80      1.0000 0.64220  0.02480  0.99990  Biso   1.000  C
  H89      1.0000 0.66740  0.44580  0.47390  Biso   1.000  H
  H90      1.0000 0.33260  0.94580  0.02610  Biso   1.000  H
  H91      1.0000 0.33260  0.55420  0.52610  Biso   1.000  H
  H92      1.0000 0.66740  0.05420  0.97390  Biso   1.000  H
  H93      1.0000 0.58410  0.49470  0.46920  Biso   1.000  H
  H94      1.0000 0.41590  0.99470  0.03080  Biso   1.000  H
  H95      1.0000 0.41590  0.50530  0.53080  Biso   1.000  H
  H96      1.0000 0.58410  0.00530  0.96920  Biso   1.000  H
  H97      1.0000 0.62410  0.45550  0.53740  Biso   1.000  H
  H98      1.0000 0.37590  0.95550  0.96260  Biso   1.000  H
  H99      1.0000 0.37590  0.54450  0.46260  Biso   1.000  H
  H100     1.0000 0.62410  0.04450  0.03740  Biso   1.000  H
  O41      1.0000 0.21730  0.65108  0.66340  Biso   1.000  O
  O42      1.0000 0.78270  0.15108  0.83660  Biso   1.000  O
  O43      1.0000 0.78270  0.34892  0.33660  Biso   1.000  O
  O44      1.0000 0.21730  0.84892  0.16340  Biso   1.000  O
  O45      1.0000 0.10820  0.58161  0.66740  Biso   1.000  O
  O46      1.0000 0.89180  0.08161  0.83260  Biso   1.000  O
  O47      1.0000 0.89180  0.41839  0.33260  Biso   1.000  O
  O48      1.0000 0.10820  0.91839  0.16740  Biso   1.000  O
  C81      1.0000 0.19780  0.59940  0.68310  Biso   1.000  C
  C82      1.0000 0.80220  0.09940  0.81690  Biso   1.000  C
  C83      1.0000 0.80220  0.40060  0.31690  Biso   1.000  C
  C84      1.0000 0.19780  0.90060  0.18310  Biso   1.000  C
  C85      1.0000 0.27770  0.56170  0.72680  Biso   1.000  C
  C86      1.0000 0.72230  0.06170  0.77320  Biso   1.000  C
  C87      1.0000 0.72230  0.43830  0.27320  Biso   1.000  C
  C88      1.0000 0.27770  0.93830  0.22680  Biso   1.000  C
  H101     1.0000 0.34260  0.57720  0.74060  Biso   1.000  H
  H102     1.0000 0.65740  0.07720  0.75940  Biso   1.000  H
  H103     1.0000 0.65740  0.42280  0.25940  Biso   1.000  H
  H104     1.0000 0.34260  0.92280  0.24060  Biso   1.000  H
  C89      1.0000 0.26310  0.50710  0.74770  Biso   1.000  C
  C90      1.0000 0.73690  0.00710  0.75230  Biso   1.000  C
  C91      1.0000 0.73690  0.49290  0.25230  Biso   1.000  C
  C92      1.0000 0.26310  0.99290  0.24770  Biso   1.000  C
  H105     1.0000 0.19700  0.49360  0.73590  Biso   1.000  H
  H106     1.0000 0.80300  0.99360  0.76410  Biso   1.000  H
  H107     1.0000 0.80300  0.50640  0.26410  Biso   1.000  H
  H108     1.0000 0.19700  0.00640  0.23590  Biso   1.000  H
  C93      1.0000 0.34260  0.46390  0.78870  Biso   1.000  C
  C94      1.0000 0.65740  0.96390  0.71130  Biso   1.000  C
  C95      1.0000 0.65740  0.53610  0.21130  Biso   1.000  C
  C96      1.0000 0.34260  0.03610  0.28870  Biso   1.000  C
  H109     1.0000 0.40780  0.48120  0.79480  Biso   1.000  H
  H110     1.0000 0.59220  0.98120  0.70520  Biso   1.000  H
  H111     1.0000 0.59220  0.51880  0.20520  Biso   1.000  H
  H112     1.0000 0.40780  0.01880  0.29480  Biso   1.000  H
  H113     1.0000 0.33720  0.42640  0.76350  Biso   1.000  H
  H114     1.0000 0.66280  0.92640  0.73650  Biso   1.000  H
  H115     1.0000 0.66280  0.57360  0.23650  Biso   1.000  H
  H116     1.0000 0.33720  0.07360  0.26350  Biso   1.000  H
  H117     1.0000 0.33320  0.45660  0.83380  Biso   1.000  H
  H118     1.0000 0.66680  0.95660  0.66620  Biso   1.000  H
  H119     1.0000 0.66680  0.54340  0.16620  Biso   1.000  H
  H120     1.0000 0.33320  0.04340  0.33380  Biso   1.000  H
  O49      1.0000 0.87640  0.74361  0.56919  Biso   1.000  O
  O50      1.0000 0.12360  0.24361  0.93081  Biso   1.000  O
  O51      1.0000 0.12360  0.25639  0.43081  Biso   1.000  O
  O52      1.0000 0.87640  0.75639  0.06919  Biso   1.000  O
  O53      1.0000 0.92070  0.70422  0.48250  Biso   1.000  O
  O54      1.0000 0.07930  0.20422  0.01750  Biso   1.000  O
  O55      1.0000 0.07930  0.29578  0.51750  Biso   1.000  O
  O56      1.0000 0.92070  0.79578  0.98250  Biso   1.000  O
  C97      1.0000 0.87290  0.74370  0.50450  Biso   1.000  C
  C98      1.0000 0.12710  0.24370  0.99550  Biso   1.000  C
  C99      1.0000 0.12710  0.25630  0.49550  Biso   1.000  C
  C100     1.0000 0.87290  0.75630  0.00450  Biso   1.000  C
  C101     1.0000 0.81460  0.79070  0.45750  Biso   1.000  C
  C102     1.0000 0.18540  0.29070  0.04250  Biso   1.000  C
  C103     1.0000 0.18540  0.20930  0.54250  Biso   1.000  C
  C104     1.0000 0.81460  0.70930  0.95750  Biso   1.000  C
  H121     1.0000 0.77470  0.81630  0.47490  Biso   1.000  H
  H122     1.0000 0.22530  0.31630  0.02510  Biso   1.000  H
  H123     1.0000 0.22530  0.18370  0.52510  Biso   1.000  H
  H124     1.0000 0.77470  0.68370  0.97490  Biso   1.000  H
  C105     1.0000 0.81540  0.79860  0.39240  Biso   1.000  C
  C106     1.0000 0.18460  0.29860  0.10760  Biso   1.000  C
  C107     1.0000 0.18460  0.20140  0.60760  Biso   1.000  C
  C108     1.0000 0.81540  0.70140  0.89240  Biso   1.000  C
  H125     1.0000 0.85330  0.77170  0.37470  Biso   1.000  H
  H126     1.0000 0.14670  0.27170  0.12530  Biso   1.000  H
  H127     1.0000 0.14670  0.22830  0.62530  Biso   1.000  H
  H128     1.0000 0.85330  0.72830  0.87470  Biso   1.000  H
  C109     1.0000 0.76120  0.84630  0.34550  Biso   1.000  C
  C110     1.0000 0.23880  0.34630  0.15450  Biso   1.000  C
  C111     1.0000 0.23880  0.15370  0.65450  Biso   1.000  C
  C112     1.0000 0.76120  0.65370  0.84550  Biso   1.000  C
  H129     1.0000 0.71120  0.86350  0.36420  Biso   1.000  H
  H130     1.0000 0.28880  0.36350  0.13580  Biso   1.000  H
  H131     1.0000 0.28880  0.13650  0.63580  Biso   1.000  H
  H132     1.0000 0.71120  0.63650  0.86420  Biso   1.000  H
  H133     1.0000 0.72910  0.82950  0.29990  Biso   1.000  H
  H134     1.0000 0.27090  0.32950  0.20010  Biso   1.000  H
  H135     1.0000 0.27090  0.17050  0.70010  Biso   1.000  H
  H136     1.0000 0.72910  0.67050  0.79990  Biso   1.000  H
  H137     1.0000 0.80760  0.87720  0.34140  Biso   1.000  H
  H138     1.0000 0.19240  0.37720  0.15860  Biso   1.000  H
  H139     1.0000 0.19240  0.12280  0.65860  Biso   1.000  H
  H140     1.0000 0.80760  0.62280  0.84140  Biso   1.000  H
  O57      1.0000 0.96020  0.75270  0.78170  Biso   1.000  O
  O58      1.0000 0.03980  0.25270  0.71830  Biso   1.000  O
  O59      1.0000 0.03980  0.24730  0.21830  Biso   1.000  O
  O60      1.0000 0.96020  0.74730  0.28170  Biso   1.000  O
  O61      1.0000 0.99670  0.70080  0.70020  Biso   1.000  O
  O62      1.0000 0.00330  0.20080  0.79980  Biso   1.000  O
  O63      1.0000 0.00330  0.29920  0.29980  Biso   1.000  O
  O64      1.0000 0.99670  0.79920  0.20020  Biso   1.000  O
  C113     1.0000 0.01100  0.71250  0.76380  Biso   1.000  C
  C114     1.0000 0.98900  0.21250  0.73620  Biso   1.000  C
  C115     1.0000 0.98900  0.28750  0.23620  Biso   1.000  C
  C116     1.0000 0.01100  0.78750  0.26380  Biso   1.000  C
  C117     1.0000 0.08610  0.67800  0.81690  Biso   1.000  C
  C118     1.0000 0.91390  0.17800  0.68310  Biso   1.000  C
  C119     1.0000 0.91390  0.32200  0.18310  Biso   1.000  C
  C120     1.0000 0.08610  0.82200  0.31690  Biso   1.000  C
  H141     1.0000 0.12090  0.64760  0.80160  Biso   1.000  H
  H142     1.0000 0.87910  0.14760  0.69840  Biso   1.000  H
  H143     1.0000 0.87910  0.35240  0.19840  Biso   1.000  H
  H144     1.0000 0.12090  0.85240  0.30160  Biso   1.000  H
  C121     1.0000 0.10680  0.68740  0.88340  Biso   1.000  C
  C122     1.0000 0.89320  0.18740  0.61660  Biso   1.000  C
  C123     1.0000 0.89320  0.31260  0.11660  Biso   1.000  C
  C124     1.0000 0.10680  0.81260  0.38340  Biso   1.000  C
  H145     1.0000 0.06770  0.71650  0.89670  Biso   1.000  H
  H146     1.0000 0.93230  0.21650  0.60330  Biso   1.000  H
  H147     1.0000 0.93230  0.28350  0.10330  Biso   1.000  H
  H148     1.0000 0.06770  0.78350  0.39670  Biso   1.000  H
  C125     1.0000 0.18560  0.65760  0.94280  Biso   1.000  C
  C126     1.0000 0.81440  0.15760  0.55720  Biso   1.000  C
  C127     1.0000 0.81440  0.34240  0.05720  Biso   1.000  C
  C128     1.0000 0.18560  0.84240  0.44280  Biso   1.000  C
  H149     1.0000 0.20120  0.61840  0.92810  Biso   1.000  H
  H150     1.0000 0.79880  0.11840  0.57190  Biso   1.000  H
  H151     1.0000 0.79880  0.38160  0.07190  Biso   1.000  H
  H152     1.0000 0.20120  0.88160  0.42810  Biso   1.000  H
  H153     1.0000 0.16060  0.65340  0.98260  Biso   1.000  H
  H154     1.0000 0.83940  0.15340  0.51740  Biso   1.000  H
  H155     1.0000 0.83940  0.34660  0.01740  Biso   1.000  H
  H156     1.0000 0.16060  0.84660  0.48260  Biso   1.000  H
  H157     1.0000 0.24520  0.68210  0.95550  Biso   1.000  H
  H158     1.0000 0.75480  0.18210  0.54450  Biso   1.000  H
  H159     1.0000 0.75480  0.31790  0.04450  Biso   1.000  H
  H160     1.0000 0.24520  0.81790  0.45550  Biso   1.000  H
  O65      1.0000 0.64940  0.78006  0.60650  Biso   1.000  O
  O66      1.0000 0.35060  0.28006  0.89350  Biso   1.000  O
  O67      1.0000 0.35060  0.21994  0.39350  Biso   1.000  O
  O68      1.0000 0.64940  0.71994  0.10650  Biso   1.000  O
  O69      1.0000 0.74140  0.85431  0.58810  Biso   1.000  O
  O70      1.0000 0.25860  0.35431  0.91190  Biso   1.000  O
  O71      1.0000 0.25860  0.14569  0.41190  Biso   1.000  O
  O72      1.0000 0.74140  0.64569  0.08810  Biso   1.000  O
  C129     1.0000 0.65740  0.82820  0.57390  Biso   1.000  C
  C130     1.0000 0.34260  0.32820  0.92610  Biso   1.000  C
  C131     1.0000 0.34260  0.17180  0.42610  Biso   1.000  C
  C132     1.0000 0.65740  0.67180  0.07390  Biso   1.000  C
  C133     1.0000 0.56910  0.85220  0.51960  Biso   1.000  C
  C134     1.0000 0.43090  0.35220  0.98040  Biso   1.000  C
  C135     1.0000 0.43090  0.14780  0.48040  Biso   1.000  C
  C136     1.0000 0.56910  0.64780  0.01960  Biso   1.000  C
  H161     1.0000 0.50760  0.83300  0.51300  Biso   1.000  H
  H162     1.0000 0.49240  0.33300  0.98700  Biso   1.000  H
  H163     1.0000 0.49240  0.16700  0.48700  Biso   1.000  H
  H164     1.0000 0.50760  0.66700  0.01300  Biso   1.000  H
  C137     1.0000 0.57250  0.89720  0.48180  Biso   1.000  C
  C138     1.0000 0.42750  0.39720  0.01820  Biso   1.000  C
  C139     1.0000 0.42750  0.10280  0.51820  Biso   1.000  C
  C140     1.0000 0.57250  0.60280  0.98180  Biso   1.000  C
  H165     1.0000 0.63310  0.91800  0.49110  Biso   1.000  H
  H166     1.0000 0.36690  0.41800  0.00890  Biso   1.000  H
  H167     1.0000 0.36690  0.08200  0.50890  Biso   1.000  H
  H168     1.0000 0.63310  0.58200  0.99110  Biso   1.000  H
  C141     1.0000 0.48540  0.92000  0.42250  Biso   1.000  C
  C142     1.0000 0.51460  0.42000  0.07750  Biso   1.000  C
  C143     1.0000 0.51460  0.08000  0.57750  Biso   1.000  C
  C144     1.0000 0.48540  0.58000  0.92250  Biso   1.000  C
  H169     1.0000 0.50860  0.93080  0.38330  Biso   1.000  H
  H170     1.0000 0.49140  0.43080  0.11670  Biso   1.000  H
  H171     1.0000 0.49140  0.06920  0.61670  Biso   1.000  H
  H172     1.0000 0.50860  0.56920  0.88330  Biso   1.000  H
  H173     1.0000 0.45650  0.95490  0.43790  Biso   1.000  H
  H174     1.0000 0.54350  0.45490  0.06210  Biso   1.000  H
  H175     1.0000 0.54350  0.04510  0.56210  Biso   1.000  H
  H176     1.0000 0.45650  0.54510  0.93790  Biso   1.000  H
  H177     1.0000 0.43540  0.88870  0.40860  Biso   1.000  H
  H178     1.0000 0.56460  0.38870  0.09140  Biso   1.000  H
  H179     1.0000 0.56460  0.11130  0.59140  Biso   1.000  H
  H180     1.0000 0.43540  0.61130  0.90860  Biso   1.000  H
  O73      1.0000 0.98760  0.83689  0.66070  Biso   1.000  O
  O74      1.0000 0.01240  0.33689  0.83930  Biso   1.000  O
  O75      1.0000 0.01240  0.16311  0.33930  Biso   1.000  O
  O76      1.0000 0.98760  0.66311  0.16070  Biso   1.000  O
  O77      1.0000 0.90390  0.88055  0.72400  Biso   1.000  O
  O78      1.0000 0.09610  0.38055  0.77600  Biso   1.000  O
  O79      1.0000 0.09610  0.11945  0.27600  Biso   1.000  O
  O80      1.0000 0.90390  0.61945  0.22400  Biso   1.000  O
  C145     1.0000 0.97420  0.88140  0.69780  Biso   1.000  C
  C146     1.0000 0.02580  0.38140  0.80220  Biso   1.000  C
  C147     1.0000 0.02580  0.11860  0.30220  Biso   1.000  C
  C148     1.0000 0.97420  0.61860  0.19780  Biso   1.000  C
  C149     1.0000 0.04350  0.93410  0.70560  Biso   1.000  C
  C150     1.0000 0.95650  0.43410  0.79440  Biso   1.000  C
  C151     1.0000 0.95650  0.06590  0.29440  Biso   1.000  C
  C152     1.0000 0.04350  0.56590  0.20560  Biso   1.000  C
  H181     1.0000 0.09540  0.93180  0.68500  Biso   1.000  H
  H182     1.0000 0.90460  0.43180  0.81500  Biso   1.000  H
  H183     1.0000 0.90460  0.06820  0.31500  Biso   1.000  H
  H184     1.0000 0.09540  0.56820  0.18500  Biso   1.000  H
  C153     1.0000 0.03540  0.98180  0.73860  Biso   1.000  C
  C154     1.0000 0.96460  0.48180  0.76140  Biso   1.000  C
  C155     1.0000 0.96460  0.01820  0.26140  Biso   1.000  C
  C156     1.0000 0.03540  0.51820  0.23860  Biso   1.000  C
  H185     1.0000 0.98280  0.98320  0.75840  Biso   1.000  H
  H186     1.0000 0.01720  0.48320  0.74160  Biso   1.000  H
  H187     1.0000 0.01720  0.01680  0.24160  Biso   1.000  H
  H188     1.0000 0.98280  0.51680  0.25840  Biso   1.000  H
  C157     1.0000 0.10150  0.03600  0.74880  Biso   1.000  C
  C158     1.0000 0.89850  0.53600  0.75120  Biso   1.000  C
  C159     1.0000 0.89850  0.96400  0.25120  Biso   1.000  C
  C160     1.0000 0.10150  0.46400  0.24880  Biso   1.000  C
  H189     1.0000 0.16630  0.02440  0.74530  Biso   1.000  H
  H190     1.0000 0.83370  0.52440  0.75470  Biso   1.000  H
  H191     1.0000 0.83370  0.97560  0.25470  Biso   1.000  H
  H192     1.0000 0.16630  0.47560  0.24530  Biso   1.000  H
  H193     1.0000 0.10880  0.05300  0.79440  Biso   1.000  H
  H194     1.0000 0.89120  0.55300  0.70560  Biso   1.000  H
  H195     1.0000 0.89120  0.94700  0.20560  Biso   1.000  H
  H196     1.0000 0.10880  0.44700  0.29440  Biso   1.000  H
  H197     1.0000 0.07200  0.06550  0.71330  Biso   1.000  H
  H198     1.0000 0.92800  0.56550  0.78670  Biso   1.000  H
  H199     1.0000 0.92800  0.93450  0.28670  Biso   1.000  H
  H200     1.0000 0.07200  0.43450  0.21330  Biso   1.000  H
  O81      1.0000 0.75160  0.80040  0.75130  Biso   1.000  O
  O82      1.0000 0.24840  0.30040  0.74870  Biso   1.000  O
  O83      1.0000 0.24840  0.19960  0.24870  Biso   1.000  O
  O84      1.0000 0.75160  0.69960  0.25130  Biso   1.000  O
  O85      1.0000 0.78150  0.67916  0.66820  Biso   1.000  O
  O86      1.0000 0.21850  0.17916  0.83180  Biso   1.000  O
  O87      1.0000 0.21850  0.32084  0.33180  Biso   1.000  O
  O88      1.0000 0.78150  0.82084  0.16820  Biso   1.000  O
  O89      1.0000 0.09690  0.76450  0.60490  Biso   1.000  O
  O90      1.0000 0.90310  0.26450  0.89510  Biso   1.000  O
  O91      1.0000 0.90310  0.23550  0.39510  Biso   1.000  O
  O92      1.0000 0.09690  0.73550  0.10490  Biso   1.000  O
  O93      1.0000 0.11810  0.65180  0.51490  Biso   1.000  O
  O94      1.0000 0.88190  0.15180  0.98510  Biso   1.000  O
  O95      1.0000 0.88190  0.34820  0.48510  Biso   1.000  O
  O96      1.0000 0.11810  0.84820  0.01490  Biso   1.000  O
  O97      1.0000 0.81100  0.63370  0.36570  Biso   1.000  O
  O98      1.0000 0.18900  0.13370  0.13430  Biso   1.000  O
  O99      1.0000 0.18900  0.36630  0.63430  Biso   1.000  O
  O100     1.0000 0.81100  0.86630  0.86570  Biso   1.000  O
  O101     1.0000 0.94550  0.53723  0.38810  Biso   1.000  O
  O102     1.0000 0.05450  0.03723  0.11190  Biso   1.000  O
  O103     1.0000 0.05450  0.46277  0.61190  Biso   1.000  O
  O104     1.0000 0.94550  0.96277  0.88810  Biso   1.000  O
  O105     1.0000 0.05500  0.64500  0.37410  Biso   1.000  O
  O106     1.0000 0.94500  0.14500  0.12590  Biso   1.000  O
  O107     1.0000 0.94500  0.35500  0.62590  Biso   1.000  O
  O108     1.0000 0.05500  0.85500  0.87410  Biso   1.000  O
