data_image0
_cell_length_a       7.449
_cell_length_b       7.7741
_cell_length_c       29.3227
_cell_angle_alpha    90
_cell_angle_beta     90
_cell_angle_gamma    90

_symmetry_space_group_name_H-M    "P 1"
_symmetry_int_tables_number       1

loop_
  _symmetry_equiv_pos_as_xyz
  'x, y, z'

loop_
  _atom_site_label
  _atom_site_occupancy
  _atom_site_fract_x
  _atom_site_fract_y
  _atom_site_fract_z
  _atom_site_thermal_displace_type
  _atom_site_B_iso_or_equiv
  _atom_site_type_symbol
  C1       1.0000 0.91360  0.59760  0.85193  Biso   1.000  C
  C2       1.0000 0.58640  0.40240  0.35193  Biso   1.000  C
  C3       1.0000 0.08640  0.09760  0.64807  Biso   1.000  C
  C4       1.0000 0.41360  0.90240  0.14807  Biso   1.000  C
  H1       1.0000 0.87570  0.70290  0.83860  Biso   1.000  H
  H2       1.0000 0.62430  0.29710  0.33860  Biso   1.000  H
  H3       1.0000 0.12430  0.20290  0.66140  Biso   1.000  H
  H4       1.0000 0.37570  0.79710  0.16140  Biso   1.000  H
  C5       1.0000 0.98060  0.32950  0.86148  Biso   1.000  C
  C6       1.0000 0.51940  0.67050  0.36148  Biso   1.000  C
  C7       1.0000 0.01940  0.82950  0.63852  Biso   1.000  C
  C8       1.0000 0.48060  0.17050  0.13852  Biso   1.000  C
  H5       1.0000 0.99730  0.21050  0.85560  Biso   1.000  H
  H6       1.0000 0.50270  0.78950  0.35560  Biso   1.000  H
  H7       1.0000 0.00270  0.71050  0.64440  Biso   1.000  H
  H8       1.0000 0.49730  0.28950  0.14440  Biso   1.000  H
  C9       1.0000 0.01350  0.40900  0.90173  Biso   1.000  C
  C10      1.0000 0.48650  0.59100  0.40173  Biso   1.000  C
  C11      1.0000 0.98650  0.90900  0.59827  Biso   1.000  C
  C12      1.0000 0.51350  0.09100  0.09827  Biso   1.000  C
  H9       1.0000 0.05800  0.35690  0.92880  Biso   1.000  H
  H10      1.0000 0.44200  0.64310  0.42880  Biso   1.000  H
  H11      1.0000 0.94200  0.85690  0.57120  Biso   1.000  H
  H12      1.0000 0.55800  0.14310  0.07120  Biso   1.000  H
  C13      1.0000 0.97260  0.71370  0.92921  Biso   1.000  C
  C14      1.0000 0.52740  0.28630  0.42921  Biso   1.000  C
  C15      1.0000 0.02740  0.21370  0.57079  Biso   1.000  C
  C16      1.0000 0.47260  0.78630  0.07079  Biso   1.000  C
  C17      1.0000 0.89160  0.87070  0.92103  Biso   1.000  C
  C18      1.0000 0.60840  0.12930  0.42103  Biso   1.000  C
  C19      1.0000 0.10840  0.37070  0.57897  Biso   1.000  C
  C20      1.0000 0.39160  0.62930  0.07897  Biso   1.000  C
  H13      1.0000 0.83780  0.89250  0.89220  Biso   1.000  H
  H14      1.0000 0.66220  0.10750  0.39220  Biso   1.000  H
  H15      1.0000 0.16220  0.39250  0.60780  Biso   1.000  H
  H16      1.0000 0.33780  0.60750  0.10780  Biso   1.000  H
  C21      1.0000 0.88820  0.99600  0.95428  Biso   1.000  C
  C22      1.0000 0.61180  0.00400  0.45428  Biso   1.000  C
  C23      1.0000 0.11180  0.49600  0.54572  Biso   1.000  C
  C24      1.0000 0.38820  0.50400  0.04572  Biso   1.000  C
  H17      1.0000 0.83010  0.10210  0.94790  Biso   1.000  H
  H18      1.0000 0.66990  0.89790  0.44790  Biso   1.000  H
  H19      1.0000 0.16990  0.60210  0.55210  Biso   1.000  H
  H20      1.0000 0.33010  0.39790  0.05210  Biso   1.000  H
  C25      1.0000 0.96810  0.97190  0.99733  Biso   1.000  C
  C26      1.0000 0.53190  0.02810  0.49733  Biso   1.000  C
  C27      1.0000 0.03190  0.47190  0.50267  Biso   1.000  C
  C28      1.0000 0.46810  0.52810  0.00267  Biso   1.000  C
  C29      1.0000 0.05060  0.81270  0.00444  Biso   1.000  C
  C30      1.0000 0.44940  0.18730  0.50444  Biso   1.000  C
  C31      1.0000 0.94940  0.31270  0.49556  Biso   1.000  C
  C32      1.0000 0.55060  0.68730  0.99556  Biso   1.000  C
  H21      1.0000 0.10690  0.79120  0.03290  Biso   1.000  H
  H22      1.0000 0.39310  0.20880  0.53290  Biso   1.000  H
  H23      1.0000 0.89310  0.29120  0.46710  Biso   1.000  H
  H24      1.0000 0.60690  0.70880  0.96710  Biso   1.000  H
  C33      1.0000 0.05350  0.68520  0.97149  Biso   1.000  C
  C34      1.0000 0.44650  0.31480  0.47149  Biso   1.000  C
  C35      1.0000 0.94650  0.18520  0.52851  Biso   1.000  C
  C36      1.0000 0.55350  0.81480  0.02851  Biso   1.000  C
  H25      1.0000 0.11040  0.57840  0.97770  Biso   1.000  H
  H26      1.0000 0.38960  0.42160  0.47770  Biso   1.000  H
  H27      1.0000 0.88960  0.07840  0.52230  Biso   1.000  H
  H28      1.0000 0.61040  0.92160  0.02230  Biso   1.000  H
  C37      1.0000 0.95820  0.10670  0.03337  Biso   1.000  C
  C38      1.0000 0.54180  0.89330  0.53337  Biso   1.000  C
  C39      1.0000 0.04180  0.60670  0.46663  Biso   1.000  C
  C40      1.0000 0.45820  0.39330  0.96663  Biso   1.000  C
  C41      1.0000 0.01380  0.07640  0.07852  Biso   1.000  C
  C42      1.0000 0.48620  0.92360  0.57852  Biso   1.000  C
  C43      1.0000 0.98620  0.57640  0.42148  Biso   1.000  C
  C44      1.0000 0.51380  0.42360  0.92148  Biso   1.000  C
  H29      1.0000 0.06920  0.96970  0.08570  Biso   1.000  H
  H30      1.0000 0.43080  0.03030  0.58570  Biso   1.000  H
  H31      1.0000 0.93080  0.46970  0.41430  Biso   1.000  H
  H32      1.0000 0.56920  0.53030  0.91430  Biso   1.000  H
  C45      1.0000 0.99050  0.19630  0.11269  Biso   1.000  C
  C46      1.0000 0.50950  0.80370  0.61269  Biso   1.000  C
  C47      1.0000 0.00950  0.69630  0.38731  Biso   1.000  C
  C48      1.0000 0.49050  0.30370  0.88731  Biso   1.000  C
  H33      1.0000 0.03070  0.17240  0.14280  Biso   1.000  H
  H34      1.0000 0.46930  0.82760  0.64280  Biso   1.000  H
  H35      1.0000 0.96930  0.67240  0.35720  Biso   1.000  H
  H36      1.0000 0.53070  0.32760  0.85720  Biso   1.000  H
  C49      1.0000 0.88340  0.26750  0.02415  Biso   1.000  C
  C50      1.0000 0.61660  0.73250  0.52415  Biso   1.000  C
  C51      1.0000 0.11660  0.76750  0.47585  Biso   1.000  C
  C52      1.0000 0.38340  0.23250  0.97585  Biso   1.000  C
  H37      1.0000 0.84800  0.29410  0.99380  Biso   1.000  H
  H38      1.0000 0.65200  0.70590  0.49380  Biso   1.000  H
  H39      1.0000 0.15200  0.79410  0.50620  Biso   1.000  H
  H40      1.0000 0.34800  0.20590  0.00620  Biso   1.000  H
  C53      1.0000 0.85950  0.38970  0.05825  Biso   1.000  C
  C54      1.0000 0.64050  0.61030  0.55825  Biso   1.000  C
  C55      1.0000 0.14050  0.88970  0.44175  Biso   1.000  C
  C56      1.0000 0.35950  0.11030  0.94175  Biso   1.000  C
  H41      1.0000 0.80990  0.49890  0.05110  Biso   1.000  H
  H42      1.0000 0.69010  0.50110  0.55110  Biso   1.000  H
  H43      1.0000 0.19010  0.99890  0.44890  Biso   1.000  H
  H44      1.0000 0.30990  0.00110  0.94890  Biso   1.000  H
  C57      1.0000 0.90830  0.35170  0.10286  Biso   1.000  C
  C58      1.0000 0.59170  0.64830  0.60286  Biso   1.000  C
  C59      1.0000 0.09170  0.85170  0.39714  Biso   1.000  C
  C60      1.0000 0.40830  0.14830  0.89714  Biso   1.000  C
  C61      1.0000 0.80950  0.43510  0.18074  Biso   1.000  C
  C62      1.0000 0.69050  0.56490  0.68074  Biso   1.000  C
  C63      1.0000 0.19050  0.93510  0.31926  Biso   1.000  C
  C64      1.0000 0.30950  0.06490  0.81926  Biso   1.000  C
  H45      1.0000 0.80660  0.32250  0.19330  Biso   1.000  H
  H46      1.0000 0.69340  0.67750  0.69330  Biso   1.000  H
  H47      1.0000 0.19340  0.82250  0.30670  Biso   1.000  H
  H48      1.0000 0.30660  0.17750  0.80670  Biso   1.000  H
  C65      1.0000 0.84790  0.64880  0.13274  Biso   1.000  C
  C66      1.0000 0.65210  0.35120  0.63274  Biso   1.000  C
  C67      1.0000 0.15210  0.14880  0.36726  Biso   1.000  C
  C68      1.0000 0.34790  0.85120  0.86726  Biso   1.000  C
  H49      1.0000 0.87530  0.71440  0.10630  Biso   1.000  H
  H50      1.0000 0.62470  0.28560  0.60630  Biso   1.000  H
  H51      1.0000 0.12470  0.21440  0.39370  Biso   1.000  H
  H52      1.0000 0.37530  0.78560  0.89370  Biso   1.000  H
  C69      1.0000 0.78320  0.70910  0.17292  Biso   1.000  C
  C70      1.0000 0.71680  0.29090  0.67292  Biso   1.000  C
  C71      1.0000 0.21680  0.20910  0.32708  Biso   1.000  C
  C72      1.0000 0.28320  0.79090  0.82708  Biso   1.000  C
  H53      1.0000 0.75810  0.82630  0.17950  Biso   1.000  H
  H54      1.0000 0.74190  0.17370  0.67950  Biso   1.000  H
  H55      1.0000 0.24190  0.32630  0.32050  Biso   1.000  H
  H56      1.0000 0.25810  0.67370  0.82050  Biso   1.000  H
  N1       1.0000 0.91900  0.44880  0.83051  Biso   1.000  N
  N2       1.0000 0.58100  0.55120  0.33051  Biso   1.000  N
  N3       1.0000 0.08100  0.94880  0.66949  Biso   1.000  N
  N4       1.0000 0.41900  0.05120  0.16949  Biso   1.000  N
  N5       1.0000 0.97010  0.57950  0.89587  Biso   1.000  N
  N6       1.0000 0.52990  0.42050  0.39587  Biso   1.000  N
  N7       1.0000 0.02990  0.07950  0.60413  Biso   1.000  N
  N8       1.0000 0.47010  0.92050  0.10413  Biso   1.000  N
  N9       1.0000 0.75960  0.57450  0.20248  Biso   1.000  N
  N10      1.0000 0.74040  0.42550  0.70248  Biso   1.000  N
  N11      1.0000 0.24040  0.07450  0.29752  Biso   1.000  N
  N12      1.0000 0.25960  0.92550  0.79752  Biso   1.000  N
  N13      1.0000 0.86600  0.47300  0.13783  Biso   1.000  N
  N14      1.0000 0.63400  0.52700  0.63783  Biso   1.000  N
  N15      1.0000 0.13400  0.97300  0.36217  Biso   1.000  N
  N16      1.0000 0.36600  0.02700  0.86217  Biso   1.000  N
  Cu1      1.0000 0.83536  0.42977  0.76592  Biso   1.000  Cu
  Cu2      1.0000 0.66464  0.57023  0.26592  Biso   1.000  Cu
  Cu3      1.0000 0.16464  0.92977  0.73408  Biso   1.000  Cu
  Cu4      1.0000 0.33536  0.07023  0.23408  Biso   1.000  Cu
  O1       1.0000 0.69920  0.21480  0.78100  Biso   1.000  O
  O2       1.0000 0.80080  0.78520  0.28100  Biso   1.000  O
  O3       1.0000 0.30080  0.71480  0.71900  Biso   1.000  O
  O4       1.0000 0.19920  0.28520  0.21900  Biso   1.000  O
  O5       1.0000 0.97410  0.09860  0.75279  Biso   1.000  O
  O6       1.0000 0.52590  0.90140  0.25279  Biso   1.000  O
  O7       1.0000 0.02590  0.59860  0.74721  Biso   1.000  O
  O8       1.0000 0.47410  0.40140  0.24721  Biso   1.000  O
  O9       1.0000 0.82840  0.96470  0.81805  Biso   1.000  O
  O10      1.0000 0.67160  0.03530  0.31805  Biso   1.000  O
  O11      1.0000 0.17160  0.46470  0.68195  Biso   1.000  O
  O12      1.0000 0.32840  0.53530  0.18195  Biso   1.000  O
  O13      1.0000 0.69420  0.93850  0.74342  Biso   1.000  O
  O14      1.0000 0.80580  0.06150  0.24342  Biso   1.000  O
  O15      1.0000 0.30580  0.43850  0.75658  Biso   1.000  O
  O16      1.0000 0.19420  0.56150  0.25658  Biso   1.000  O
  O17      1.0000 0.62030  0.61260  0.78490  Biso   1.000  O
  O18      1.0000 0.87970  0.38740  0.28490  Biso   1.000  O
  O19      1.0000 0.37970  0.11260  0.71510  Biso   1.000  O
  O20      1.0000 0.12030  0.88740  0.21510  Biso   1.000  O
  S1       1.0000 0.79852  0.04886  0.77442  Biso   1.000  S
  S2       1.0000 0.70148  0.95114  0.27442  Biso   1.000  S
  S3       1.0000 0.20148  0.54886  0.72558  Biso   1.000  S
  S4       1.0000 0.29852  0.45114  0.22558  Biso   1.000  S
  H57      1.0000 0.52100  0.58600  0.77630  Biso   1.000  H
  H58      1.0000 0.97900  0.41400  0.27630  Biso   1.000  H
  H59      1.0000 0.47900  0.08600  0.72370  Biso   1.000  H
  H60      1.0000 0.02100  0.91400  0.22370  Biso   1.000  H
  H61      1.0000 0.63600  0.71400  0.77200  Biso   1.000  H
  H62      1.0000 0.86400  0.28600  0.27200  Biso   1.000  H
  H63      1.0000 0.36400  0.21400  0.72800  Biso   1.000  H
  H64      1.0000 0.13600  0.78600  0.22800  Biso   1.000  H
