data_image0
_cell_length_a       15.749
_cell_length_b       9.1568
_cell_length_c       20.736
_cell_angle_alpha    90
_cell_angle_beta     98.84
_cell_angle_gamma    90

_symmetry_space_group_name_H-M    "P 1"
_symmetry_int_tables_number       1

loop_
  _symmetry_equiv_pos_as_xyz
  'x, y, z'

loop_
  _atom_site_label
  _atom_site_occupancy
  _atom_site_fract_x
  _atom_site_fract_y
  _atom_site_fract_z
  _atom_site_thermal_displace_type
  _atom_site_B_iso_or_equiv
  _atom_site_type_symbol
  Cu1      1.0000 0.03777  0.30723  0.21631  Biso   1.000  Cu
  Cu2      1.0000 0.96223  0.30723  0.78369  Biso   1.000  Cu
  Cu3      1.0000 0.53777  0.80723  0.21631  Biso   1.000  Cu
  Cu4      1.0000 0.46223  0.80723  0.78369  Biso   1.000  Cu
  F1       1.0000 0.89820  0.17440  0.40190  Biso   1.000  F
  F2       1.0000 0.10180  0.17440  0.59810  Biso   1.000  F
  F3       1.0000 0.39820  0.67440  0.40190  Biso   1.000  F
  F4       1.0000 0.60180  0.67440  0.59810  Biso   1.000  F
  F5       1.0000 0.98921  0.34530  0.42086  Biso   1.000  F
  F6       1.0000 0.01079  0.34530  0.57914  Biso   1.000  F
  F7       1.0000 0.48921  0.84530  0.42086  Biso   1.000  F
  F8       1.0000 0.51079  0.84530  0.57914  Biso   1.000  F
  F9       1.0000 0.85590  0.39090  0.39764  Biso   1.000  F
  F10      1.0000 0.14410  0.39090  0.60236  Biso   1.000  F
  F11      1.0000 0.35590  0.89090  0.39764  Biso   1.000  F
  F12      1.0000 0.64410  0.89090  0.60236  Biso   1.000  F
  F13      1.0000 0.93340  0.44800  0.40450  Biso   1.000  F
  F14      1.0000 0.06660  0.44800  0.59550  Biso   1.000  F
  F15      1.0000 0.43340  0.94800  0.40450  Biso   1.000  F
  F16      1.0000 0.56660  0.94800  0.59550  Biso   1.000  F
  F17      1.0000 0.97250  0.23270  0.42042  Biso   1.000  F
  F18      1.0000 0.02750  0.23270  0.57958  Biso   1.000  F
  F19      1.0000 0.47250  0.73270  0.42042  Biso   1.000  F
  F20      1.0000 0.52750  0.73270  0.57958  Biso   1.000  F
  F21      1.0000 0.84713  0.26360  0.39629  Biso   1.000  F
  F22      1.0000 0.15287  0.26360  0.60371  Biso   1.000  F
  F23      1.0000 0.34713  0.76360  0.39629  Biso   1.000  F
  F24      1.0000 0.65287  0.76360  0.60371  Biso   1.000  F
  F25      1.0000 0.08506  0.34250  0.01090  Biso   1.000  F
  F26      1.0000 0.91494  0.34250  0.98910  Biso   1.000  F
  F27      1.0000 0.58506  0.84250  0.01090  Biso   1.000  F
  F28      1.0000 0.41494  0.84250  0.98910  Biso   1.000  F
  F29      1.0000 0.19589  0.19229  0.03108  Biso   1.000  F
  F30      1.0000 0.80411  0.19229  0.96892  Biso   1.000  F
  F31      1.0000 0.69589  0.69229  0.03108  Biso   1.000  F
  F32      1.0000 0.30411  0.69229  0.96892  Biso   1.000  F
  F33      1.0000 0.20641  0.42040  0.03393  Biso   1.000  F
  F34      1.0000 0.79359  0.42040  0.96607  Biso   1.000  F
  F35      1.0000 0.70641  0.92040  0.03393  Biso   1.000  F
  F36      1.0000 0.29359  0.92040  0.96607  Biso   1.000  F
  F37      1.0000 0.77630  0.35320  0.09882  Biso   1.000  F
  F38      1.0000 0.22370  0.35320  0.90118  Biso   1.000  F
  F39      1.0000 0.27630  0.85320  0.09882  Biso   1.000  F
  F40      1.0000 0.72370  0.85320  0.90118  Biso   1.000  F
  F41      1.0000 0.71410  0.41610  0.17383  Biso   1.000  F
  F42      1.0000 0.28590  0.41610  0.82617  Biso   1.000  F
  F43      1.0000 0.21410  0.91610  0.17383  Biso   1.000  F
  F44      1.0000 0.78590  0.91610  0.82617  Biso   1.000  F
  F45      1.0000 0.72277  0.19440  0.16520  Biso   1.000  F
  F46      1.0000 0.27723  0.19440  0.83480  Biso   1.000  F
  F47      1.0000 0.22277  0.69440  0.16520  Biso   1.000  F
  F48      1.0000 0.77723  0.69440  0.83480  Biso   1.000  F
  F49      1.0000 0.77162  0.20220  0.10536  Biso   1.000  F
  F50      1.0000 0.22838  0.20220  0.89464  Biso   1.000  F
  F51      1.0000 0.27162  0.70220  0.10536  Biso   1.000  F
  F52      1.0000 0.72838  0.70220  0.89464  Biso   1.000  F
  F53      1.0000 0.70319  0.28370  0.17651  Biso   1.000  F
  F54      1.0000 0.29681  0.28370  0.82349  Biso   1.000  F
  F55      1.0000 0.20319  0.78370  0.17651  Biso   1.000  F
  F56      1.0000 0.79681  0.78370  0.82349  Biso   1.000  F
  F57      1.0000 0.76160  0.42650  0.12280  Biso   1.000  F
  F58      1.0000 0.23840  0.42650  0.87720  Biso   1.000  F
  F59      1.0000 0.26160  0.92650  0.12280  Biso   1.000  F
  F60      1.0000 0.73840  0.92650  0.87720  Biso   1.000  F
  F61      1.0000 0.30103  0.36170  0.33183  Biso   1.000  F
  F62      1.0000 0.69897  0.36170  0.66817  Biso   1.000  F
  F63      1.0000 0.80103  0.86170  0.33183  Biso   1.000  F
  F64      1.0000 0.19897  0.86170  0.66817  Biso   1.000  F
  F65      1.0000 0.35950  0.41690  0.25625  Biso   1.000  F
  F66      1.0000 0.64050  0.41690  0.74375  Biso   1.000  F
  F67      1.0000 0.85950  0.91690  0.25625  Biso   1.000  F
  F68      1.0000 0.14050  0.91690  0.74375  Biso   1.000  F
  F69      1.0000 0.35185  0.19120  0.26649  Biso   1.000  F
  F70      1.0000 0.64815  0.19120  0.73351  Biso   1.000  F
  F71      1.0000 0.85185  0.69120  0.26649  Biso   1.000  F
  F72      1.0000 0.14815  0.69120  0.73351  Biso   1.000  F
  F73      1.0000 0.36740  0.25530  0.25117  Biso   1.000  F
  F74      1.0000 0.63260  0.25530  0.74883  Biso   1.000  F
  F75      1.0000 0.86740  0.75530  0.25117  Biso   1.000  F
  F76      1.0000 0.13260  0.75530  0.74883  Biso   1.000  F
  F77      1.0000 0.30240  0.21850  0.33067  Biso   1.000  F
  F78      1.0000 0.69760  0.21850  0.66933  Biso   1.000  F
  F79      1.0000 0.80240  0.71850  0.33067  Biso   1.000  F
  F80      1.0000 0.19760  0.71850  0.66933  Biso   1.000  F
  F81      1.0000 0.32640  0.41980  0.29980  Biso   1.000  F
  F82      1.0000 0.67360  0.41980  0.70020  Biso   1.000  F
  F83      1.0000 0.82640  0.91980  0.29980  Biso   1.000  F
  F84      1.0000 0.17360  0.91980  0.70020  Biso   1.000  F
  O1       1.0000 0.05003  0.05297  0.22343  Biso   1.000  O
  O2       1.0000 0.94997  0.05297  0.77657  Biso   1.000  O
  O3       1.0000 0.55003  0.55297  0.22343  Biso   1.000  O
  O4       1.0000 0.44997  0.55297  0.77657  Biso   1.000  O
  O5       1.0000 0.04861  0.55808  0.22058  Biso   1.000  O
  O6       1.0000 0.95139  0.55808  0.77942  Biso   1.000  O
  O7       1.0000 0.54861  0.05808  0.22058  Biso   1.000  O
  O8       1.0000 0.45139  0.05808  0.77942  Biso   1.000  O
  O9       1.0000 0.07059  0.31100  0.13034  Biso   1.000  O
  O10      1.0000 0.92941  0.31100  0.86966  Biso   1.000  O
  O11      1.0000 0.57059  0.81100  0.13034  Biso   1.000  O
  O12      1.0000 0.42941  0.81100  0.86966  Biso   1.000  O
  O13      1.0000 0.15656  0.30870  0.25963  Biso   1.000  O
  O14      1.0000 0.84344  0.30870  0.74037  Biso   1.000  O
  O15      1.0000 0.65656  0.80870  0.25963  Biso   1.000  O
  O16      1.0000 0.34344  0.80870  0.74037  Biso   1.000  O
  O17      1.0000 0.00291  0.31080  0.30169  Biso   1.000  O
  O18      1.0000 0.99709  0.31080  0.69831  Biso   1.000  O
  O19      1.0000 0.50291  0.81080  0.30169  Biso   1.000  O
  O20      1.0000 0.49709  0.81080  0.69831  Biso   1.000  O
  O21      1.0000 0.91952  0.30560  0.17249  Biso   1.000  O
  O22      1.0000 0.08048  0.30560  0.82751  Biso   1.000  O
  O23      1.0000 0.41952  0.80560  0.17249  Biso   1.000  O
  O24      1.0000 0.58048  0.80560  0.82751  Biso   1.000  O
  C1       1.0000 0.03195  0.93010  0.20335  Biso   1.000  C
  C2       1.0000 0.96805  0.93010  0.79665  Biso   1.000  C
  C3       1.0000 0.53195  0.43010  0.20335  Biso   1.000  C
  C4       1.0000 0.46805  0.43010  0.79665  Biso   1.000  C
  C5       1.0000 0.98418  0.88638  0.13808  Biso   1.000  C
  C6       1.0000 0.01582  0.88638  0.86192  Biso   1.000  C
  C7       1.0000 0.48418  0.38638  0.13808  Biso   1.000  C
  C8       1.0000 0.51582  0.38638  0.86192  Biso   1.000  C
  C9       1.0000 0.94340  0.96330  0.08719  Biso   1.000  C
  C10      1.0000 0.05660  0.96330  0.91281  Biso   1.000  C
  C11      1.0000 0.44340  0.46330  0.08719  Biso   1.000  C
  C12      1.0000 0.55660  0.46330  0.91281  Biso   1.000  C
  H1       1.0000 0.94130  0.06700  0.08740  Biso   1.000  H
  H2       1.0000 0.05870  0.06700  0.91260  Biso   1.000  H
  H3       1.0000 0.44130  0.56700  0.08740  Biso   1.000  H
  H4       1.0000 0.55870  0.56700  0.91260  Biso   1.000  H
  C13      1.0000 0.90412  0.88060  0.03365  Biso   1.000  C
  C14      1.0000 0.09588  0.88060  0.96635  Biso   1.000  C
  C15      1.0000 0.40412  0.38060  0.03365  Biso   1.000  C
  C16      1.0000 0.59588  0.38060  0.96635  Biso   1.000  C
  H5       1.0000 0.87580  0.93110  0.99640  Biso   1.000  H
  H6       1.0000 0.12420  0.93110  0.00360  Biso   1.000  H
  H7       1.0000 0.37580  0.43110  0.99640  Biso   1.000  H
  H8       1.0000 0.62420  0.43110  0.00360  Biso   1.000  H
  C17      1.0000 0.90451  0.72950  0.03235  Biso   1.000  C
  C18      1.0000 0.09549  0.72950  0.96765  Biso   1.000  C
  C19      1.0000 0.40451  0.22950  0.03235  Biso   1.000  C
  C20      1.0000 0.59549  0.22950  0.96765  Biso   1.000  C
  H9       1.0000 0.87690  0.67870  0.99500  Biso   1.000  H
  H10      1.0000 0.12310  0.67870  0.00500  Biso   1.000  H
  H11      1.0000 0.37690  0.17870  0.99500  Biso   1.000  H
  H12      1.0000 0.62310  0.17870  0.00500  Biso   1.000  H
  C21      1.0000 0.94516  0.65290  0.08565  Biso   1.000  C
  C22      1.0000 0.05484  0.65290  0.91435  Biso   1.000  C
  C23      1.0000 0.44516  0.15290  0.08565  Biso   1.000  C
  C24      1.0000 0.55484  0.15290  0.91435  Biso   1.000  C
  H13      1.0000 0.94670  0.54910  0.08600  Biso   1.000  H
  H14      1.0000 0.05330  0.54910  0.91400  Biso   1.000  H
  H15      1.0000 0.44670  0.04910  0.08600  Biso   1.000  H
  H16      1.0000 0.55330  0.04910  0.91400  Biso   1.000  H
  C25      1.0000 0.98412  0.73510  0.13932  Biso   1.000  C
  C26      1.0000 0.01588  0.73510  0.86068  Biso   1.000  C
  C27      1.0000 0.48412  0.23510  0.13932  Biso   1.000  C
  C28      1.0000 0.51588  0.23510  0.86068  Biso   1.000  C
  C29      1.0000 0.03150  0.67840  0.20033  Biso   1.000  C
  C30      1.0000 0.96850  0.67840  0.79967  Biso   1.000  C
  C31      1.0000 0.53150  0.17840  0.20033  Biso   1.000  C
  C32      1.0000 0.46850  0.17840  0.79967  Biso   1.000  C
  N1       1.0000 0.05416  0.80820  0.23780  Biso   1.000  N
  N2       1.0000 0.94584  0.80820  0.76220  Biso   1.000  N
  N3       1.0000 0.55416  0.30820  0.23780  Biso   1.000  N
  N4       1.0000 0.44584  0.30820  0.76220  Biso   1.000  N
  N5       1.0000 0.11241  0.80290  0.29588  Biso   1.000  N
  N6       1.0000 0.88759  0.80290  0.70412  Biso   1.000  N
  N7       1.0000 0.61241  0.30290  0.29588  Biso   1.000  N
  N8       1.0000 0.38759  0.30290  0.70412  Biso   1.000  N
  H17      1.0000 0.17110  0.80070  0.29420  Biso   1.000  H
  H18      1.0000 0.82890  0.80070  0.70580  Biso   1.000  H
  H19      1.0000 0.67110  0.30070  0.29420  Biso   1.000  H
  H20      1.0000 0.32890  0.30070  0.70580  Biso   1.000  H
  C33      1.0000 0.08077  0.88210  0.34882  Biso   1.000  C
  C34      1.0000 0.91923  0.88210  0.65118  Biso   1.000  C
  C35      1.0000 0.58077  0.38210  0.34882  Biso   1.000  C
  C36      1.0000 0.41923  0.38210  0.65118  Biso   1.000  C
  H21      1.0000 0.02330  0.92880  0.33550  Biso   1.000  H
  H22      1.0000 0.97670  0.92880  0.66450  Biso   1.000  H
  H23      1.0000 0.52330  0.42880  0.33550  Biso   1.000  H
  H24      1.0000 0.47670  0.42880  0.66450  Biso   1.000  H
  C37      1.0000 0.14433  0.97860  0.38958  Biso   1.000  C
  C38      1.0000 0.85567  0.97860  0.61042  Biso   1.000  C
  C39      1.0000 0.64433  0.47860  0.38958  Biso   1.000  C
  C40      1.0000 0.35567  0.47860  0.61042  Biso   1.000  C
  H25      1.0000 0.18490  0.03290  0.36990  Biso   1.000  H
  H26      1.0000 0.81510  0.03290  0.63010  Biso   1.000  H
  H27      1.0000 0.68490  0.53290  0.36990  Biso   1.000  H
  H28      1.0000 0.31510  0.53290  0.63010  Biso   1.000  H
  C41      1.0000 0.14380  0.98830  0.45567  Biso   1.000  C
  C42      1.0000 0.85620  0.98830  0.54433  Biso   1.000  C
  C43      1.0000 0.64380  0.48830  0.45567  Biso   1.000  C
  C44      1.0000 0.35620  0.48830  0.54433  Biso   1.000  C
  H29      1.0000 0.16880  0.07420  0.47620  Biso   1.000  H
  H30      1.0000 0.83120  0.07420  0.52380  Biso   1.000  H
  H31      1.0000 0.66880  0.57420  0.47620  Biso   1.000  H
  H32      1.0000 0.33120  0.57420  0.52380  Biso   1.000  H
  C45      1.0000 0.11180  0.89050  0.49598  Biso   1.000  C
  C46      1.0000 0.88820  0.89050  0.50402  Biso   1.000  C
  C47      1.0000 0.61180  0.39050  0.49598  Biso   1.000  C
  C48      1.0000 0.38820  0.39050  0.50402  Biso   1.000  C
  H33      1.0000 0.04960  0.88080  0.47950  Biso   1.000  H
  H34      1.0000 0.95040  0.88080  0.52050  Biso   1.000  H
  H35      1.0000 0.54960  0.38080  0.47950  Biso   1.000  H
  H36      1.0000 0.45040  0.38080  0.52050  Biso   1.000  H
  H37      1.0000 0.11650  0.93770  0.53930  Biso   1.000  H
  H38      1.0000 0.88350  0.93770  0.46070  Biso   1.000  H
  H39      1.0000 0.61650  0.43770  0.53930  Biso   1.000  H
  H40      1.0000 0.38350  0.43770  0.46070  Biso   1.000  H
  C49      1.0000 0.14320  0.75060  0.50676  Biso   1.000  C
  C50      1.0000 0.85680  0.75060  0.49324  Biso   1.000  C
  C51      1.0000 0.64320  0.25060  0.50676  Biso   1.000  C
  C52      1.0000 0.35680  0.25060  0.49324  Biso   1.000  C
  H41      1.0000 0.12050  0.71510  0.54590  Biso   1.000  H
  H42      1.0000 0.87950  0.71510  0.45410  Biso   1.000  H
  H43      1.0000 0.62050  0.21510  0.54590  Biso   1.000  H
  H44      1.0000 0.37950  0.21510  0.45410  Biso   1.000  H
  H45      1.0000 0.20600  0.76110  0.51990  Biso   1.000  H
  H46      1.0000 0.79400  0.76110  0.48010  Biso   1.000  H
  H47      1.0000 0.70600  0.26110  0.51990  Biso   1.000  H
  H48      1.0000 0.29400  0.26110  0.48010  Biso   1.000  H
  C53      1.0000 0.13140  0.62730  0.45883  Biso   1.000  C
  C54      1.0000 0.86860  0.62730  0.54117  Biso   1.000  C
  C55      1.0000 0.63140  0.12730  0.45883  Biso   1.000  C
  C56      1.0000 0.36860  0.12730  0.54117  Biso   1.000  C
  H49      1.0000 0.16960  0.54820  0.47860  Biso   1.000  H
  H50      1.0000 0.83040  0.54820  0.52140  Biso   1.000  H
  H51      1.0000 0.66960  0.04820  0.47860  Biso   1.000  H
  H52      1.0000 0.33040  0.04820  0.52140  Biso   1.000  H
  H53      1.0000 0.07190  0.59200  0.45850  Biso   1.000  H
  H54      1.0000 0.92810  0.59200  0.54150  Biso   1.000  H
  H55      1.0000 0.57190  0.09200  0.45850  Biso   1.000  H
  H56      1.0000 0.42810  0.09200  0.54150  Biso   1.000  H
  C57      1.0000 0.14280  0.63360  0.39394  Biso   1.000  C
  C58      1.0000 0.85720  0.63360  0.60606  Biso   1.000  C
  C59      1.0000 0.64280  0.13360  0.39394  Biso   1.000  C
  C60      1.0000 0.35720  0.13360  0.60606  Biso   1.000  C
  H57      1.0000 0.14180  0.53250  0.37690  Biso   1.000  H
  H58      1.0000 0.85820  0.53250  0.62310  Biso   1.000  H
  H59      1.0000 0.64180  0.03250  0.37690  Biso   1.000  H
  H60      1.0000 0.35820  0.03250  0.62310  Biso   1.000  H
  H61      1.0000 0.20070  0.67380  0.39210  Biso   1.000  H
  H62      1.0000 0.79930  0.67380  0.60790  Biso   1.000  H
  H63      1.0000 0.70070  0.17380  0.39210  Biso   1.000  H
  H64      1.0000 0.29930  0.17380  0.60790  Biso   1.000  H
  C61      1.0000 0.07813  0.72300  0.34866  Biso   1.000  C
  C62      1.0000 0.92187  0.72300  0.65134  Biso   1.000  C
  C63      1.0000 0.57813  0.22300  0.34866  Biso   1.000  C
  C64      1.0000 0.42187  0.22300  0.65134  Biso   1.000  C
  H65      1.0000 0.02000  0.67800  0.33640  Biso   1.000  H
  H66      1.0000 0.98000  0.67800  0.66360  Biso   1.000  H
  H67      1.0000 0.52000  0.17800  0.33640  Biso   1.000  H
  H68      1.0000 0.48000  0.17800  0.66360  Biso   1.000  H
  C65      1.0000 0.15468  0.32260  0.04597  Biso   1.000  C
  C66      1.0000 0.84532  0.32260  0.95403  Biso   1.000  C
  C67      1.0000 0.65468  0.82260  0.04597  Biso   1.000  C
  C68      1.0000 0.34532  0.82260  0.95403  Biso   1.000  C
  C69      1.0000 0.14641  0.31010  0.11956  Biso   1.000  C
  C70      1.0000 0.85359  0.31010  0.88044  Biso   1.000  C
  C71      1.0000 0.64641  0.81010  0.11956  Biso   1.000  C
  C72      1.0000 0.35359  0.81010  0.88044  Biso   1.000  C
  C73      1.0000 0.22124  0.31530  0.16426  Biso   1.000  C
  C74      1.0000 0.77876  0.31530  0.83574  Biso   1.000  C
  C75      1.0000 0.72124  0.81530  0.16426  Biso   1.000  C
  C76      1.0000 0.27876  0.81530  0.83574  Biso   1.000  C
  H69      1.0000 0.27490  0.32240  0.14900  Biso   1.000  H
  H70      1.0000 0.72510  0.32240  0.85100  Biso   1.000  H
  H71      1.0000 0.77490  0.82240  0.14900  Biso   1.000  H
  H72      1.0000 0.22510  0.82240  0.85100  Biso   1.000  H
  C77      1.0000 0.21951  0.31030  0.23076  Biso   1.000  C
  C78      1.0000 0.78049  0.31030  0.76924  Biso   1.000  C
  C79      1.0000 0.71951  0.81030  0.23076  Biso   1.000  C
  C80      1.0000 0.28049  0.81030  0.76924  Biso   1.000  C
  C81      1.0000 0.30637  0.30820  0.27594  Biso   1.000  C
  C82      1.0000 0.69363  0.30820  0.72406  Biso   1.000  C
  C83      1.0000 0.80637  0.80820  0.27594  Biso   1.000  C
  C84      1.0000 0.19363  0.80820  0.72406  Biso   1.000  C
  C85      1.0000 0.76964  0.30660  0.15350  Biso   1.000  C
  C86      1.0000 0.23036  0.30660  0.84650  Biso   1.000  C
  C87      1.0000 0.26964  0.80660  0.15350  Biso   1.000  C
  C88      1.0000 0.73036  0.80660  0.84650  Biso   1.000  C
  C89      1.0000 0.85548  0.30580  0.20112  Biso   1.000  C
  C90      1.0000 0.14452  0.30580  0.79888  Biso   1.000  C
  C91      1.0000 0.35548  0.80580  0.20112  Biso   1.000  C
  C92      1.0000 0.64452  0.80580  0.79888  Biso   1.000  C
  C93      1.0000 0.85170  0.31170  0.26716  Biso   1.000  C
  C94      1.0000 0.14830  0.31170  0.73284  Biso   1.000  C
  C95      1.0000 0.35170  0.81170  0.26716  Biso   1.000  C
  C96      1.0000 0.64830  0.81170  0.73284  Biso   1.000  C
  H73      1.0000 0.79770  0.31770  0.28200  Biso   1.000  H
  H74      1.0000 0.20230  0.31770  0.71800  Biso   1.000  H
  H75      1.0000 0.29770  0.81770  0.28200  Biso   1.000  H
  H76      1.0000 0.70230  0.81770  0.71800  Biso   1.000  H
  C97      1.0000 0.92703  0.30870  0.31189  Biso   1.000  C
  C98      1.0000 0.07297  0.30870  0.68811  Biso   1.000  C
  C99      1.0000 0.42703  0.80870  0.31189  Biso   1.000  C
  C100     1.0000 0.57297  0.80870  0.68811  Biso   1.000  C
  C101     1.0000 0.91823  0.31090  0.38465  Biso   1.000  C
  C102     1.0000 0.08177  0.31090  0.61535  Biso   1.000  C
  C103     1.0000 0.41823  0.81090  0.38465  Biso   1.000  C
  C104     1.0000 0.58177  0.81090  0.61535  Biso   1.000  C
