data_image0
_cell_length_a       24.047
_cell_length_b       13.909
_cell_length_c       14.478
_cell_angle_alpha    90
_cell_angle_beta     90
_cell_angle_gamma    90

_symmetry_space_group_name_H-M    "P 1"
_symmetry_int_tables_number       1

loop_
  _symmetry_equiv_pos_as_xyz
  'x, y, z'

loop_
  _atom_site_label
  _atom_site_occupancy
  _atom_site_fract_x
  _atom_site_fract_y
  _atom_site_fract_z
  _atom_site_thermal_displace_type
  _atom_site_B_iso_or_equiv
  _atom_site_type_symbol
  Cu1      1.0000 0.10827  0.24503  0.33902  Biso   1.000  Cu
  Cu2      1.0000 0.60827  0.74503  0.66098  Biso   1.000  Cu
  Cu3      1.0000 0.39173  0.24503  0.83902  Biso   1.000  Cu
  Cu4      1.0000 0.10827  0.25497  0.83902  Biso   1.000  Cu
  Cu5      1.0000 0.89173  0.75497  0.66098  Biso   1.000  Cu
  Cu6      1.0000 0.39173  0.25497  0.33902  Biso   1.000  Cu
  Cu7      1.0000 0.60827  0.75497  0.16098  Biso   1.000  Cu
  Cu8      1.0000 0.89173  0.74503  0.16098  Biso   1.000  Cu
  O1       1.0000 0.11250  0.10910  0.31290  Biso   1.000  O
  O2       1.0000 0.61250  0.60910  0.68710  Biso   1.000  O
  O3       1.0000 0.38750  0.10910  0.81290  Biso   1.000  O
  O4       1.0000 0.11250  0.39090  0.81290  Biso   1.000  O
  O5       1.0000 0.88750  0.89090  0.68710  Biso   1.000  O
  O6       1.0000 0.38750  0.39090  0.31290  Biso   1.000  O
  O7       1.0000 0.61250  0.89090  0.18710  Biso   1.000  O
  O8       1.0000 0.88750  0.60910  0.18710  Biso   1.000  O
  H1       1.0000 0.11620  0.05460  0.33680  Biso   1.000  H
  H2       1.0000 0.61620  0.55460  0.66320  Biso   1.000  H
  H3       1.0000 0.38380  0.05460  0.83680  Biso   1.000  H
  H4       1.0000 0.11620  0.44540  0.83680  Biso   1.000  H
  H5       1.0000 0.88380  0.94540  0.66320  Biso   1.000  H
  H6       1.0000 0.38380  0.44540  0.33680  Biso   1.000  H
  H7       1.0000 0.61620  0.94540  0.16320  Biso   1.000  H
  H8       1.0000 0.88380  0.55460  0.16320  Biso   1.000  H
  H9       1.0000 0.11480  0.10320  0.25430  Biso   1.000  H
  H10      1.0000 0.61480  0.60320  0.74570  Biso   1.000  H
  H11      1.0000 0.38520  0.10320  0.75430  Biso   1.000  H
  H12      1.0000 0.11480  0.39680  0.75430  Biso   1.000  H
  H13      1.0000 0.88520  0.89680  0.74570  Biso   1.000  H
  H14      1.0000 0.38520  0.39680  0.25430  Biso   1.000  H
  H15      1.0000 0.61480  0.89680  0.24570  Biso   1.000  H
  H16      1.0000 0.88520  0.60320  0.24570  Biso   1.000  H
  N1       1.0000 0.09510  0.38360  0.36400  Biso   1.000  N
  N2       1.0000 0.59510  0.88360  0.63600  Biso   1.000  N
  N3       1.0000 0.40490  0.38360  0.86400  Biso   1.000  N
  N4       1.0000 0.09510  0.11640  0.86400  Biso   1.000  N
  N5       1.0000 0.90490  0.61640  0.63600  Biso   1.000  N
  N6       1.0000 0.40490  0.11640  0.36400  Biso   1.000  N
  N7       1.0000 0.59510  0.61640  0.13600  Biso   1.000  N
  N8       1.0000 0.90490  0.88360  0.13600  Biso   1.000  N
  C1       1.0000 0.02820  0.50320  0.38730  Biso   1.000  C
  C2       1.0000 0.52820  0.00320  0.61270  Biso   1.000  C
  C3       1.0000 0.47180  0.50320  0.88730  Biso   1.000  C
  C4       1.0000 0.02820  0.99680  0.88730  Biso   1.000  C
  C5       1.0000 0.97180  0.49680  0.61270  Biso   1.000  C
  C6       1.0000 0.47180  0.99680  0.38730  Biso   1.000  C
  C7       1.0000 0.52820  0.49680  0.11270  Biso   1.000  C
  C8       1.0000 0.97180  0.00320  0.11270  Biso   1.000  C
  H17      1.0000 0.99090  0.51970  0.39400  Biso   1.000  H
  H18      1.0000 0.49090  0.01970  0.60600  Biso   1.000  H
  H19      1.0000 0.50910  0.51970  0.89400  Biso   1.000  H
  H20      1.0000 0.99090  0.98030  0.89400  Biso   1.000  H
  H21      1.0000 0.00910  0.48030  0.60600  Biso   1.000  H
  H22      1.0000 0.50910  0.98030  0.39400  Biso   1.000  H
  H23      1.0000 0.49090  0.48030  0.10600  Biso   1.000  H
  H24      1.0000 0.00910  0.01970  0.10600  Biso   1.000  H
  N9       1.0000 0.19130  0.25100  0.34040  Biso   1.000  N
  N10      1.0000 0.69130  0.75100  0.65960  Biso   1.000  N
  N11      1.0000 0.30870  0.25100  0.84040  Biso   1.000  N
  N12      1.0000 0.19130  0.24900  0.84040  Biso   1.000  N
  N13      1.0000 0.80870  0.74900  0.65960  Biso   1.000  N
  N14      1.0000 0.30870  0.24900  0.34040  Biso   1.000  N
  N15      1.0000 0.69130  0.74900  0.15960  Biso   1.000  N
  N16      1.0000 0.80870  0.75100  0.15960  Biso   1.000  N
  C9       1.0000 0.00210  0.32930  0.35830  Biso   1.000  C
  C10      1.0000 0.50210  0.82930  0.64170  Biso   1.000  C
  C11      1.0000 0.49790  0.32930  0.85830  Biso   1.000  C
  C12      1.0000 0.00210  0.17070  0.85830  Biso   1.000  C
  C13      1.0000 0.99790  0.67070  0.64170  Biso   1.000  C
  C14      1.0000 0.49790  0.17070  0.35830  Biso   1.000  C
  C15      1.0000 0.50210  0.67070  0.14170  Biso   1.000  C
  C16      1.0000 0.99790  0.82930  0.14170  Biso   1.000  C
  N17      1.0000 0.02510  0.24320  0.33930  Biso   1.000  N
  N18      1.0000 0.52510  0.74320  0.66070  Biso   1.000  N
  N19      1.0000 0.47490  0.24320  0.83930  Biso   1.000  N
  N20      1.0000 0.02510  0.25680  0.83930  Biso   1.000  N
  N21      1.0000 0.97490  0.75680  0.66070  Biso   1.000  N
  N22      1.0000 0.47490  0.25680  0.33930  Biso   1.000  N
  N23      1.0000 0.52510  0.75680  0.16070  Biso   1.000  N
  N24      1.0000 0.97490  0.74320  0.16070  Biso   1.000  N
  C17      1.0000 0.04170  0.40790  0.36920  Biso   1.000  C
  C18      1.0000 0.54170  0.90790  0.63080  Biso   1.000  C
  C19      1.0000 0.45830  0.40790  0.86920  Biso   1.000  C
  C20      1.0000 0.04170  0.09210  0.86920  Biso   1.000  C
  C21      1.0000 0.95830  0.59210  0.63080  Biso   1.000  C
  C22      1.0000 0.45830  0.09210  0.36920  Biso   1.000  C
  C23      1.0000 0.54170  0.59210  0.13080  Biso   1.000  C
  C24      1.0000 0.95830  0.90790  0.13080  Biso   1.000  C
  C25      1.0000 0.12220  0.54880  0.39230  Biso   1.000  C
  C26      1.0000 0.62220  0.04880  0.60770  Biso   1.000  C
  C27      1.0000 0.37780  0.54880  0.89230  Biso   1.000  C
  C28      1.0000 0.12220  0.95120  0.89230  Biso   1.000  C
  C29      1.0000 0.87780  0.45120  0.60770  Biso   1.000  C
  C30      1.0000 0.37780  0.95120  0.39230  Biso   1.000  C
  C31      1.0000 0.62220  0.45120  0.10770  Biso   1.000  C
  C32      1.0000 0.87780  0.04880  0.10770  Biso   1.000  C
  H25      1.0000 0.15020  0.59410  0.40170  Biso   1.000  H
  H26      1.0000 0.65020  0.09410  0.59830  Biso   1.000  H
  H27      1.0000 0.34980  0.59410  0.90170  Biso   1.000  H
  H28      1.0000 0.15020  0.90590  0.90170  Biso   1.000  H
  H29      1.0000 0.84980  0.40590  0.59830  Biso   1.000  H
  H30      1.0000 0.34980  0.90590  0.40170  Biso   1.000  H
  H31      1.0000 0.65020  0.40590  0.09830  Biso   1.000  H
  H32      1.0000 0.84980  0.09410  0.09830  Biso   1.000  H
  C33      1.0000 0.99240  0.16980  0.32660  Biso   1.000  C
  C34      1.0000 0.49240  0.66980  0.67340  Biso   1.000  C
  C35      1.0000 0.50760  0.16980  0.82660  Biso   1.000  C
  C36      1.0000 0.99240  0.33020  0.82660  Biso   1.000  C
  C37      1.0000 0.00760  0.83020  0.67340  Biso   1.000  C
  C38      1.0000 0.50760  0.33020  0.32660  Biso   1.000  C
  C39      1.0000 0.49240  0.83020  0.17340  Biso   1.000  C
  C40      1.0000 0.00760  0.66980  0.17340  Biso   1.000  C
  H33      1.0000 0.00870  0.11040  0.31480  Biso   1.000  H
  H34      1.0000 0.50870  0.61040  0.68520  Biso   1.000  H
  H35      1.0000 0.49130  0.11040  0.81480  Biso   1.000  H
  H36      1.0000 0.00870  0.38960  0.81480  Biso   1.000  H
  H37      1.0000 0.99130  0.88960  0.68520  Biso   1.000  H
  H38      1.0000 0.49130  0.38960  0.31480  Biso   1.000  H
  H39      1.0000 0.50870  0.88960  0.18520  Biso   1.000  H
  H40      1.0000 0.99130  0.61040  0.18520  Biso   1.000  H
  C41      1.0000 0.06680  0.57250  0.39570  Biso   1.000  C
  C42      1.0000 0.56680  0.07250  0.60430  Biso   1.000  C
  C43      1.0000 0.43320  0.57250  0.89570  Biso   1.000  C
  C44      1.0000 0.06680  0.92750  0.89570  Biso   1.000  C
  C45      1.0000 0.93320  0.42750  0.60430  Biso   1.000  C
  C46      1.0000 0.43320  0.92750  0.39570  Biso   1.000  C
  C47      1.0000 0.56680  0.42750  0.10430  Biso   1.000  C
  C48      1.0000 0.93320  0.07250  0.10430  Biso   1.000  C
  H41      1.0000 0.05610  0.63620  0.40370  Biso   1.000  H
  H42      1.0000 0.55610  0.13620  0.59630  Biso   1.000  H
  H43      1.0000 0.44390  0.63620  0.90370  Biso   1.000  H
  H44      1.0000 0.05610  0.86380  0.90370  Biso   1.000  H
  H45      1.0000 0.94390  0.36380  0.59630  Biso   1.000  H
  H46      1.0000 0.44390  0.86380  0.40370  Biso   1.000  H
  H47      1.0000 0.55610  0.36380  0.09630  Biso   1.000  H
  H48      1.0000 0.94390  0.13620  0.09630  Biso   1.000  H
  C49      1.0000 0.13400  0.45200  0.37390  Biso   1.000  C
  C50      1.0000 0.63400  0.95200  0.62610  Biso   1.000  C
  C51      1.0000 0.36600  0.45200  0.87390  Biso   1.000  C
  C52      1.0000 0.13400  0.04800  0.87390  Biso   1.000  C
  C53      1.0000 0.86600  0.54800  0.62610  Biso   1.000  C
  C54      1.0000 0.36600  0.04800  0.37390  Biso   1.000  C
  C55      1.0000 0.63400  0.54800  0.12610  Biso   1.000  C
  C56      1.0000 0.86600  0.95200  0.12610  Biso   1.000  C
  H49      1.0000 0.17110  0.43410  0.36810  Biso   1.000  H
  H50      1.0000 0.67110  0.93410  0.63190  Biso   1.000  H
  H51      1.0000 0.32890  0.43410  0.86810  Biso   1.000  H
  H52      1.0000 0.17110  0.06590  0.86810  Biso   1.000  H
  H53      1.0000 0.82890  0.56590  0.63190  Biso   1.000  H
  H54      1.0000 0.32890  0.06590  0.36810  Biso   1.000  H
  H55      1.0000 0.67110  0.56590  0.13190  Biso   1.000  H
  H56      1.0000 0.82890  0.93410  0.13190  Biso   1.000  H
  C57      1.0000 0.94560  0.34430  0.36400  Biso   1.000  C
  C58      1.0000 0.44560  0.84430  0.63600  Biso   1.000  C
  C59      1.0000 0.55440  0.34430  0.86400  Biso   1.000  C
  C60      1.0000 0.94560  0.15570  0.86400  Biso   1.000  C
  C61      1.0000 0.05440  0.65570  0.63600  Biso   1.000  C
  C62      1.0000 0.55440  0.15570  0.36400  Biso   1.000  C
  C63      1.0000 0.44560  0.65570  0.13600  Biso   1.000  C
  C64      1.0000 0.05440  0.84430  0.13600  Biso   1.000  C
  H57      1.0000 0.93050  0.40390  0.37890  Biso   1.000  H
  H58      1.0000 0.43050  0.90390  0.62110  Biso   1.000  H
  H59      1.0000 0.56950  0.40390  0.87890  Biso   1.000  H
  H60      1.0000 0.93050  0.09610  0.87890  Biso   1.000  H
  H61      1.0000 0.06950  0.59610  0.62110  Biso   1.000  H
  H62      1.0000 0.56950  0.09610  0.37890  Biso   1.000  H
  H63      1.0000 0.43050  0.59610  0.12110  Biso   1.000  H
  H64      1.0000 0.06950  0.90390  0.12110  Biso   1.000  H
  C65      1.0000 0.93490  0.17470  0.32940  Biso   1.000  C
  C66      1.0000 0.43490  0.67470  0.67060  Biso   1.000  C
  C67      1.0000 0.56510  0.17470  0.82940  Biso   1.000  C
  C68      1.0000 0.93490  0.32530  0.82940  Biso   1.000  C
  C69      1.0000 0.06510  0.82530  0.67060  Biso   1.000  C
  C70      1.0000 0.56510  0.32530  0.32940  Biso   1.000  C
  C71      1.0000 0.43490  0.82530  0.17060  Biso   1.000  C
  C72      1.0000 0.06510  0.67470  0.17060  Biso   1.000  C
  H65      1.0000 0.91310  0.12030  0.32050  Biso   1.000  H
  H66      1.0000 0.41310  0.62030  0.67950  Biso   1.000  H
  H67      1.0000 0.58690  0.12030  0.82050  Biso   1.000  H
  H68      1.0000 0.91310  0.37970  0.82050  Biso   1.000  H
  H69      1.0000 0.08690  0.87970  0.67950  Biso   1.000  H
  H70      1.0000 0.58690  0.37970  0.32050  Biso   1.000  H
  H71      1.0000 0.41310  0.87970  0.17950  Biso   1.000  H
  H72      1.0000 0.08690  0.62030  0.17950  Biso   1.000  H
  C73      1.0000 0.22310  0.25200  0.41620  Biso   1.000  C
  C74      1.0000 0.72310  0.75200  0.58380  Biso   1.000  C
  C75      1.0000 0.27690  0.25200  0.91620  Biso   1.000  C
  C76      1.0000 0.22310  0.24800  0.91620  Biso   1.000  C
  C77      1.0000 0.77690  0.74800  0.58380  Biso   1.000  C
  C78      1.0000 0.27690  0.24800  0.41620  Biso   1.000  C
  C79      1.0000 0.72310  0.74800  0.08380  Biso   1.000  C
  C80      1.0000 0.77690  0.75200  0.08380  Biso   1.000  C
  H73      1.0000 0.20520  0.25590  0.47300  Biso   1.000  H
  H74      1.0000 0.70520  0.75590  0.52700  Biso   1.000  H
  H75      1.0000 0.29480  0.25590  0.97300  Biso   1.000  H
  H76      1.0000 0.20520  0.24410  0.97300  Biso   1.000  H
  H77      1.0000 0.79480  0.74410  0.52700  Biso   1.000  H
  H78      1.0000 0.29480  0.24410  0.47300  Biso   1.000  H
  H79      1.0000 0.70520  0.74410  0.02700  Biso   1.000  H
  H80      1.0000 0.79480  0.75590  0.02700  Biso   1.000  H
  C81      1.0000 0.22240  0.25140  0.26590  Biso   1.000  C
  C82      1.0000 0.72240  0.75140  0.73410  Biso   1.000  C
  C83      1.0000 0.27760  0.25140  0.76590  Biso   1.000  C
  C84      1.0000 0.22240  0.24860  0.76590  Biso   1.000  C
  C85      1.0000 0.77760  0.74860  0.73410  Biso   1.000  C
  C86      1.0000 0.27760  0.24860  0.26590  Biso   1.000  C
  C87      1.0000 0.72240  0.74860  0.23410  Biso   1.000  C
  C88      1.0000 0.77760  0.75140  0.23410  Biso   1.000  C
  H81      1.0000 0.20450  0.25380  0.20900  Biso   1.000  H
  H82      1.0000 0.70450  0.75380  0.79100  Biso   1.000  H
  H83      1.0000 0.29550  0.25380  0.70900  Biso   1.000  H
  H84      1.0000 0.20450  0.24620  0.70900  Biso   1.000  H
  H85      1.0000 0.79550  0.74620  0.79100  Biso   1.000  H
  H86      1.0000 0.29550  0.24620  0.20900  Biso   1.000  H
  H87      1.0000 0.70450  0.74620  0.29100  Biso   1.000  H
  H88      1.0000 0.79550  0.75380  0.29100  Biso   1.000  H
  C89      1.0000 0.91160  0.26240  0.34570  Biso   1.000  C
  C90      1.0000 0.41160  0.76240  0.65430  Biso   1.000  C
  C91      1.0000 0.58840  0.26240  0.84570  Biso   1.000  C
  C92      1.0000 0.91160  0.23760  0.84570  Biso   1.000  C
  C93      1.0000 0.08840  0.73760  0.65430  Biso   1.000  C
  C94      1.0000 0.58840  0.23760  0.34570  Biso   1.000  C
  C95      1.0000 0.41160  0.73760  0.15430  Biso   1.000  C
  C96      1.0000 0.08840  0.76240  0.15430  Biso   1.000  C
  H89      1.0000 0.87310  0.26890  0.34480  Biso   1.000  H
  H90      1.0000 0.37310  0.76890  0.65520  Biso   1.000  H
  H91      1.0000 0.62690  0.26890  0.84480  Biso   1.000  H
  H92      1.0000 0.87310  0.23110  0.84480  Biso   1.000  H
  H93      1.0000 0.12690  0.73110  0.65520  Biso   1.000  H
  H94      1.0000 0.62690  0.23110  0.34480  Biso   1.000  H
  H95      1.0000 0.37310  0.73110  0.15520  Biso   1.000  H
  H96      1.0000 0.12690  0.76890  0.15520  Biso   1.000  H
  S1       1.0000 0.07825  0.22870  0.58770  Biso   1.000  S
  S2       1.0000 0.57825  0.72870  0.41230  Biso   1.000  S
  S3       1.0000 0.42175  0.22870  0.08770  Biso   1.000  S
  S4       1.0000 0.07825  0.27130  0.08770  Biso   1.000  S
  S5       1.0000 0.92175  0.77130  0.41230  Biso   1.000  S
  S6       1.0000 0.42175  0.27130  0.58770  Biso   1.000  S
  S7       1.0000 0.57825  0.77130  0.91230  Biso   1.000  S
  S8       1.0000 0.92175  0.72870  0.91230  Biso   1.000  S
  O9       1.0000 0.11220  0.21720  0.50870  Biso   1.000  O
  O10      1.0000 0.61220  0.71720  0.49130  Biso   1.000  O
  O11      1.0000 0.38780  0.21720  0.00870  Biso   1.000  O
  O12      1.0000 0.11220  0.28280  0.00870  Biso   1.000  O
  O13      1.0000 0.88780  0.78280  0.49130  Biso   1.000  O
  O14      1.0000 0.38780  0.28280  0.50870  Biso   1.000  O
  O15      1.0000 0.61220  0.78280  0.99130  Biso   1.000  O
  O16      1.0000 0.88780  0.71720  0.99130  Biso   1.000  O
  O17      1.0000 0.03800  0.29830  0.57750  Biso   1.000  O
  O18      1.0000 0.53800  0.79830  0.42250  Biso   1.000  O
  O19      1.0000 0.46200  0.29830  0.07750  Biso   1.000  O
  O20      1.0000 0.03800  0.20170  0.07750  Biso   1.000  O
  O21      1.0000 0.96200  0.70170  0.42250  Biso   1.000  O
  O22      1.0000 0.46200  0.20170  0.57750  Biso   1.000  O
  O23      1.0000 0.53800  0.70170  0.92250  Biso   1.000  O
  O24      1.0000 0.96200  0.79830  0.92250  Biso   1.000  O
  O25      1.0000 0.10770  0.23240  0.67080  Biso   1.000  O
  O26      1.0000 0.60770  0.73240  0.32920  Biso   1.000  O
  O27      1.0000 0.39230  0.23240  0.17080  Biso   1.000  O
  O28      1.0000 0.10770  0.26760  0.17080  Biso   1.000  O
  O29      1.0000 0.89230  0.76760  0.32920  Biso   1.000  O
  O30      1.0000 0.39230  0.26760  0.67080  Biso   1.000  O
  O31      1.0000 0.60770  0.76760  0.82920  Biso   1.000  O
  O32      1.0000 0.89230  0.73240  0.82920  Biso   1.000  O
  C97      1.0000 0.03990  0.11380  0.59550  Biso   1.000  C
  C98      1.0000 0.53990  0.61380  0.40450  Biso   1.000  C
  C99      1.0000 0.46010  0.11380  0.09550  Biso   1.000  C
  C100     1.0000 0.03990  0.38620  0.09550  Biso   1.000  C
  C101     1.0000 0.96010  0.88620  0.40450  Biso   1.000  C
  C102     1.0000 0.46010  0.38620  0.59550  Biso   1.000  C
  C103     1.0000 0.53990  0.88620  0.90450  Biso   1.000  C
  C104     1.0000 0.96010  0.61380  0.90450  Biso   1.000  C
  F1       1.0000 0.01480  0.10100  0.51770  Biso   1.000  F
  F2       1.0000 0.51480  0.60100  0.48230  Biso   1.000  F
  F3       1.0000 0.48520  0.10100  0.01770  Biso   1.000  F
  F4       1.0000 0.01480  0.39900  0.01770  Biso   1.000  F
  F5       1.0000 0.98520  0.89900  0.48230  Biso   1.000  F
  F6       1.0000 0.48520  0.39900  0.51770  Biso   1.000  F
  F7       1.0000 0.51480  0.89900  0.98230  Biso   1.000  F
  F8       1.0000 0.98520  0.60100  0.98230  Biso   1.000  F
  F9       1.0000 0.07710  0.04770  0.60870  Biso   1.000  F
  F10      1.0000 0.57710  0.54770  0.39130  Biso   1.000  F
  F11      1.0000 0.42290  0.04770  0.10870  Biso   1.000  F
  F12      1.0000 0.07710  0.45230  0.10870  Biso   1.000  F
  F13      1.0000 0.92290  0.95230  0.39130  Biso   1.000  F
  F14      1.0000 0.42290  0.45230  0.60870  Biso   1.000  F
  F15      1.0000 0.57710  0.95230  0.89130  Biso   1.000  F
  F16      1.0000 0.92290  0.54770  0.89130  Biso   1.000  F
  F17      1.0000 0.00510  0.11600  0.66290  Biso   1.000  F
  F18      1.0000 0.50510  0.61600  0.33710  Biso   1.000  F
  F19      1.0000 0.49490  0.11600  0.16290  Biso   1.000  F
  F20      1.0000 0.00510  0.38400  0.16290  Biso   1.000  F
  F21      1.0000 0.99490  0.88400  0.33710  Biso   1.000  F
  F22      1.0000 0.49490  0.38400  0.66290  Biso   1.000  F
  F23      1.0000 0.50510  0.88400  0.83710  Biso   1.000  F
  F24      1.0000 0.99490  0.61600  0.83710  Biso   1.000  F
  S9       1.0000 0.21220  0.49360  0.61290  Biso   1.000  S
  S10      1.0000 0.71220  0.99360  0.38710  Biso   1.000  S
  S11      1.0000 0.28780  0.49360  0.11290  Biso   1.000  S
  S12      1.0000 0.21220  0.00640  0.11290  Biso   1.000  S
  S13      1.0000 0.78780  0.50640  0.38710  Biso   1.000  S
  S14      1.0000 0.28780  0.00640  0.61290  Biso   1.000  S
  S15      1.0000 0.71220  0.50640  0.88710  Biso   1.000  S
  S16      1.0000 0.78780  0.99360  0.88710  Biso   1.000  S
  O33      1.0000 0.16170  0.47380  0.65380  Biso   1.000  O
  O34      1.0000 0.66170  0.97380  0.34620  Biso   1.000  O
  O35      1.0000 0.33830  0.47380  0.15380  Biso   1.000  O
  O36      1.0000 0.16170  0.02620  0.15380  Biso   1.000  O
  O37      1.0000 0.83830  0.52620  0.34620  Biso   1.000  O
  O38      1.0000 0.33830  0.02620  0.65380  Biso   1.000  O
  O39      1.0000 0.66170  0.52620  0.84620  Biso   1.000  O
  O40      1.0000 0.83830  0.97380  0.84620  Biso   1.000  O
  O41      1.0000 0.23710  0.41760  0.56700  Biso   1.000  O
  O42      1.0000 0.73710  0.91760  0.43300  Biso   1.000  O
  O43      1.0000 0.26290  0.41760  0.06700  Biso   1.000  O
  O44      1.0000 0.23710  0.08240  0.06700  Biso   1.000  O
  O45      1.0000 0.76290  0.58240  0.43300  Biso   1.000  O
  O46      1.0000 0.26290  0.08240  0.56700  Biso   1.000  O
  O47      1.0000 0.73710  0.58240  0.93300  Biso   1.000  O
  O48      1.0000 0.76290  0.91760  0.93300  Biso   1.000  O
  O49      1.0000 0.21160  0.57950  0.56010  Biso   1.000  O
  O50      1.0000 0.71160  0.07950  0.43990  Biso   1.000  O
  O51      1.0000 0.28840  0.57950  0.06010  Biso   1.000  O
  O52      1.0000 0.21160  0.92050  0.06010  Biso   1.000  O
  O53      1.0000 0.78840  0.42050  0.43990  Biso   1.000  O
  O54      1.0000 0.28840  0.92050  0.56010  Biso   1.000  O
  O55      1.0000 0.71160  0.42050  0.93990  Biso   1.000  O
  O56      1.0000 0.78840  0.07950  0.93990  Biso   1.000  O
  C105     1.0000 0.25520  0.56110  0.68950  Biso   1.000  C
  C106     1.0000 0.75520  0.06110  0.31050  Biso   1.000  C
  C107     1.0000 0.24480  0.56110  0.18950  Biso   1.000  C
  C108     1.0000 0.25520  0.93890  0.18950  Biso   1.000  C
  C109     1.0000 0.74480  0.43890  0.31050  Biso   1.000  C
  C110     1.0000 0.24480  0.93890  0.68950  Biso   1.000  C
  C111     1.0000 0.75520  0.43890  0.81050  Biso   1.000  C
  C112     1.0000 0.74480  0.06110  0.81050  Biso   1.000  C
  F25      1.0000 0.26040  0.49690  0.75330  Biso   1.000  F
  F26      1.0000 0.76040  0.99690  0.24670  Biso   1.000  F
  F27      1.0000 0.23960  0.49690  0.25330  Biso   1.000  F
  F28      1.0000 0.26040  0.00310  0.25330  Biso   1.000  F
  F29      1.0000 0.73960  0.50310  0.24670  Biso   1.000  F
  F30      1.0000 0.23960  0.00310  0.75330  Biso   1.000  F
  F31      1.0000 0.76040  0.50310  0.74670  Biso   1.000  F
  F32      1.0000 0.73960  0.99690  0.74670  Biso   1.000  F
  F33      1.0000 0.22890  0.63580  0.71800  Biso   1.000  F
  F34      1.0000 0.72890  0.13580  0.28200  Biso   1.000  F
  F35      1.0000 0.27110  0.63580  0.21800  Biso   1.000  F
  F36      1.0000 0.22890  0.86420  0.21800  Biso   1.000  F
  F37      1.0000 0.77110  0.36420  0.28200  Biso   1.000  F
  F38      1.0000 0.27110  0.86420  0.71800  Biso   1.000  F
  F39      1.0000 0.72890  0.36420  0.78200  Biso   1.000  F
  F40      1.0000 0.77110  0.13580  0.78200  Biso   1.000  F
  F41      1.0000 0.30230  0.58320  0.65310  Biso   1.000  F
  F42      1.0000 0.80230  0.08320  0.34690  Biso   1.000  F
  F43      1.0000 0.19770  0.58320  0.15310  Biso   1.000  F
  F44      1.0000 0.30230  0.91680  0.15310  Biso   1.000  F
  F45      1.0000 0.69770  0.41680  0.34690  Biso   1.000  F
  F46      1.0000 0.19770  0.91680  0.65310  Biso   1.000  F
  F47      1.0000 0.80230  0.41680  0.84690  Biso   1.000  F
  F48      1.0000 0.69770  0.08320  0.84690  Biso   1.000  F
