data_image0
_cell_length_a       9.695
_cell_length_b       13.422
_cell_length_c       10.228
_cell_angle_alpha    90
_cell_angle_beta     92.2
_cell_angle_gamma    90

_symmetry_space_group_name_H-M    "P 1"
_symmetry_int_tables_number       1

loop_
  _symmetry_equiv_pos_as_xyz
  'x, y, z'

loop_
  _atom_site_label
  _atom_site_occupancy
  _atom_site_fract_x
  _atom_site_fract_y
  _atom_site_fract_z
  _atom_site_thermal_displace_type
  _atom_site_B_iso_or_equiv
  _atom_site_type_symbol
  Cu1      1.0000 0.17511  0.25000  0.61043  Biso   1.000  Cu
  Cu2      1.0000 0.82489  0.75000  0.38957  Biso   1.000  Cu
  N1       1.0000 0.27320  0.15340  0.49790  Biso   1.000  N
  N2       1.0000 0.27320  0.34660  0.49790  Biso   1.000  N
  N3       1.0000 0.72680  0.84660  0.50210  Biso   1.000  N
  N4       1.0000 0.72680  0.65340  0.50210  Biso   1.000  N
  N5       1.0000 0.11130  0.14670  0.73680  Biso   1.000  N
  N6       1.0000 0.11130  0.35330  0.73680  Biso   1.000  N
  N7       1.0000 0.88870  0.85330  0.26320  Biso   1.000  N
  N8       1.0000 0.88870  0.64670  0.26320  Biso   1.000  N
  C1       1.0000 0.02280  0.03030  0.94440  Biso   1.000  C
  C2       1.0000 0.02280  0.46970  0.94440  Biso   1.000  C
  C3       1.0000 0.97720  0.96970  0.05560  Biso   1.000  C
  C4       1.0000 0.97720  0.53030  0.05560  Biso   1.000  C
  C5       1.0000 0.19880  0.10590  0.82420  Biso   1.000  C
  C6       1.0000 0.19880  0.39410  0.82420  Biso   1.000  C
  C7       1.0000 0.80120  0.89410  0.17580  Biso   1.000  C
  C8       1.0000 0.80120  0.60590  0.17580  Biso   1.000  C
  H1       1.0000 0.29250  0.11820  0.81640  Biso   1.000  H
  H2       1.0000 0.29250  0.38180  0.81640  Biso   1.000  H
  H3       1.0000 0.70750  0.88180  0.18360  Biso   1.000  H
  H4       1.0000 0.70750  0.61820  0.18360  Biso   1.000  H
  C9       1.0000 0.93620  0.06920  0.85430  Biso   1.000  C
  C10      1.0000 0.93620  0.43080  0.85430  Biso   1.000  C
  C11      1.0000 0.06380  0.93080  0.14570  Biso   1.000  C
  C12      1.0000 0.06380  0.56920  0.14570  Biso   1.000  C
  H5       1.0000 0.84210  0.05700  0.85950  Biso   1.000  H
  H6       1.0000 0.84210  0.44300  0.85950  Biso   1.000  H
  H7       1.0000 0.15790  0.94300  0.14050  Biso   1.000  H
  H8       1.0000 0.15790  0.55700  0.14050  Biso   1.000  H
  C13      1.0000 0.33550  0.99430  0.41660  Biso   1.000  C
  C14      1.0000 0.33550  0.50570  0.41660  Biso   1.000  C
  C15      1.0000 0.66450  0.00570  0.58340  Biso   1.000  C
  C16      1.0000 0.66450  0.49430  0.58340  Biso   1.000  C
  H9       1.0000 0.32400  0.92550  0.41610  Biso   1.000  H
  H10      1.0000 0.32400  0.57450  0.41610  Biso   1.000  H
  H11      1.0000 0.67600  0.07450  0.58390  Biso   1.000  H
  H12      1.0000 0.67600  0.42550  0.58390  Biso   1.000  H
  C17      1.0000 0.44600  0.14000  0.34130  Biso   1.000  C
  C18      1.0000 0.44600  0.36000  0.34130  Biso   1.000  C
  C19      1.0000 0.55400  0.86000  0.65870  Biso   1.000  C
  C20      1.0000 0.55400  0.64000  0.65870  Biso   1.000  C
  H13      1.0000 0.51230  0.17100  0.29200  Biso   1.000  H
  H14      1.0000 0.51230  0.32900  0.29200  Biso   1.000  H
  H15      1.0000 0.48770  0.82900  0.70800  Biso   1.000  H
  H16      1.0000 0.48770  0.67100  0.70800  Biso   1.000  H
  C21      1.0000 0.43040  0.03840  0.33940  Biso   1.000  C
  C22      1.0000 0.43040  0.46160  0.33940  Biso   1.000  C
  C23      1.0000 0.56960  0.96160  0.66060  Biso   1.000  C
  C24      1.0000 0.56960  0.53840  0.66060  Biso   1.000  C
  H17      1.0000 0.48420  0.99960  0.28580  Biso   1.000  H
  H18      1.0000 0.48420  0.50040  0.28580  Biso   1.000  H
  H19      1.0000 0.51580  0.00040  0.71420  Biso   1.000  H
  H20      1.0000 0.51580  0.49960  0.71420  Biso   1.000  H
  C25      1.0000 0.15930  0.04680  0.92520  Biso   1.000  C
  C26      1.0000 0.15930  0.45320  0.92520  Biso   1.000  C
  C27      1.0000 0.84070  0.95320  0.07480  Biso   1.000  C
  C28      1.0000 0.84070  0.54680  0.07480  Biso   1.000  C
  H21      1.0000 0.22580  0.01770  0.98100  Biso   1.000  H
  H22      1.0000 0.22580  0.48230  0.98100  Biso   1.000  H
  H23      1.0000 0.77420  0.98230  0.01900  Biso   1.000  H
  H24      1.0000 0.77420  0.51770  0.01900  Biso   1.000  H
  C29      1.0000 0.36050  0.19460  0.41810  Biso   1.000  C
  C30      1.0000 0.36050  0.30540  0.41810  Biso   1.000  C
  C31      1.0000 0.63950  0.80540  0.58190  Biso   1.000  C
  C32      1.0000 0.63950  0.69460  0.58190  Biso   1.000  C
  C33      1.0000 0.25580  0.05520  0.49660  Biso   1.000  C
  C34      1.0000 0.25580  0.44480  0.49660  Biso   1.000  C
  C35      1.0000 0.74420  0.94480  0.50340  Biso   1.000  C
  C36      1.0000 0.74420  0.55520  0.50340  Biso   1.000  C
  H25      1.0000 0.19040  0.02640  0.54900  Biso   1.000  H
  H26      1.0000 0.19040  0.47360  0.54900  Biso   1.000  H
  H27      1.0000 0.80960  0.97360  0.45100  Biso   1.000  H
  H28      1.0000 0.80960  0.52640  0.45100  Biso   1.000  H
  C37      1.0000 0.98150  0.12680  0.75420  Biso   1.000  C
  C38      1.0000 0.98150  0.37320  0.75420  Biso   1.000  C
  C39      1.0000 0.01850  0.87320  0.24580  Biso   1.000  C
  C40      1.0000 0.01850  0.62680  0.24580  Biso   1.000  C
  H29      1.0000 0.91600  0.15320  0.69510  Biso   1.000  H
  H30      1.0000 0.91600  0.34680  0.69510  Biso   1.000  H
  H31      1.0000 0.08400  0.84680  0.30490  Biso   1.000  H
  H32      1.0000 0.08400  0.65320  0.30490  Biso   1.000  H
  S1       1.0000 0.88400  0.25000  0.38380  Biso   1.000  S
  S2       1.0000 0.11600  0.75000  0.61620  Biso   1.000  S
  F1       1.0000 0.91770  0.25000  0.13240  Biso   1.000  F
  F2       1.0000 0.08230  0.75000  0.86760  Biso   1.000  F
  F3       1.0000 0.06890  0.32710  0.24120  Biso   1.000  F
  F4       1.0000 0.06890  0.17290  0.24120  Biso   1.000  F
  F5       1.0000 0.93110  0.67290  0.75880  Biso   1.000  F
  F6       1.0000 0.93110  0.82710  0.75880  Biso   1.000  F
  O1       1.0000 0.97260  0.25000  0.49070  Biso   1.000  O
  O2       1.0000 0.02740  0.75000  0.50930  Biso   1.000  O
  O3       1.0000 0.80680  0.16570  0.37390  Biso   1.000  O
  O4       1.0000 0.80680  0.33430  0.37390  Biso   1.000  O
  O5       1.0000 0.19320  0.83430  0.62610  Biso   1.000  O
  O6       1.0000 0.19320  0.66570  0.62610  Biso   1.000  O
  C41      1.0000 0.98710  0.25000  0.24100  Biso   1.000  C
  C42      1.0000 0.01290  0.75000  0.75900  Biso   1.000  C
  S3       1.0000 0.43300  0.75000  0.18930  Biso   1.000  S
  S4       1.0000 0.56700  0.25000  0.81070  Biso   1.000  S
  O7       1.0000 0.43200  0.64320  0.17720  Biso   1.000  O
  O8       1.0000 0.43200  0.85680  0.17720  Biso   1.000  O
  O9       1.0000 0.56800  0.35680  0.82280  Biso   1.000  O
  O10      1.0000 0.56800  0.14320  0.82280  Biso   1.000  O
  O11      1.0000 0.54640  0.77600  0.26530  Biso   1.000  O
  O12      1.0000 0.54640  0.72400  0.26530  Biso   1.000  O
  O13      1.0000 0.45360  0.22400  0.73470  Biso   1.000  O
  O14      1.0000 0.45360  0.27600  0.73470  Biso   1.000  O
  O15      1.0000 0.30930  0.78160  0.22930  Biso   1.000  O
  O16      1.0000 0.30930  0.71840  0.22930  Biso   1.000  O
  O17      1.0000 0.69070  0.21840  0.77070  Biso   1.000  O
  O18      1.0000 0.69070  0.28160  0.77070  Biso   1.000  O
  F7       1.0000 0.36320  0.75000  0.94370  Biso   1.000  F
  F8       1.0000 0.63680  0.25000  0.05630  Biso   1.000  F
  F9       1.0000 0.57510  0.75000  0.98080  Biso   1.000  F
  F10      1.0000 0.42490  0.25000  0.01920  Biso   1.000  F
  F11      1.0000 0.46360  0.88380  0.01210  Biso   1.000  F
  F12      1.0000 0.46360  0.61620  0.01210  Biso   1.000  F
  F13      1.0000 0.53640  0.11620  0.98790  Biso   1.000  F
  F14      1.0000 0.53640  0.38380  0.98790  Biso   1.000  F
  C43      1.0000 0.45990  0.79040  0.02010  Biso   1.000  C
  C44      1.0000 0.45990  0.70960  0.02010  Biso   1.000  C
  C45      1.0000 0.54010  0.20960  0.97990  Biso   1.000  C
  C46      1.0000 0.54010  0.29040  0.97990  Biso   1.000  C
