data_image0
_cell_length_a       9.104
_cell_length_b       11.755
_cell_length_c       13.595
_cell_angle_alpha    88.72
_cell_angle_beta     87.66
_cell_angle_gamma    87.33

_symmetry_space_group_name_H-M    "P 1"
_symmetry_int_tables_number       1

loop_
  _symmetry_equiv_pos_as_xyz
  'x, y, z'

loop_
  _atom_site_label
  _atom_site_occupancy
  _atom_site_fract_x
  _atom_site_fract_y
  _atom_site_fract_z
  _atom_site_thermal_displace_type
  _atom_site_B_iso_or_equiv
  _atom_site_type_symbol
  Cu1      1.0000 0.74979  0.43561  0.24504  Biso   1.000  Cu
  Cu2      1.0000 0.25021  0.56439  0.75496  Biso   1.000  Cu
  N1       1.0000 0.70870  0.56070  0.34120  Biso   1.000  N
  N2       1.0000 0.29130  0.43930  0.65880  Biso   1.000  N
  C1       1.0000 0.66430  0.66060  0.30110  Biso   1.000  C
  C2       1.0000 0.33570  0.33940  0.69890  Biso   1.000  C
  C3       1.0000 0.63990  0.75680  0.35610  Biso   1.000  C
  C4       1.0000 0.36010  0.24320  0.64390  Biso   1.000  C
  H1       1.0000 0.61190  0.82570  0.32570  Biso   1.000  H
  H2       1.0000 0.38810  0.17430  0.67430  Biso   1.000  H
  C5       1.0000 0.65720  0.75090  0.45710  Biso   1.000  C
  C6       1.0000 0.34280  0.24910  0.54290  Biso   1.000  C
  H3       1.0000 0.63950  0.81480  0.49570  Biso   1.000  H
  H4       1.0000 0.36050  0.18520  0.50430  Biso   1.000  H
  C7       1.0000 0.70110  0.64790  0.49820  Biso   1.000  C
  C8       1.0000 0.29890  0.35210  0.50180  Biso   1.000  C
  H5       1.0000 0.71420  0.64120  0.56560  Biso   1.000  H
  H6       1.0000 0.28580  0.35880  0.43440  Biso   1.000  H
  C9       1.0000 0.72600  0.55410  0.43940  Biso   1.000  C
  C10      1.0000 0.27400  0.44590  0.56060  Biso   1.000  C
  H7       1.0000 0.75530  0.48460  0.46820  Biso   1.000  H
  H8       1.0000 0.24470  0.51540  0.53180  Biso   1.000  H
  N3       1.0000 0.68270  0.55970  0.15130  Biso   1.000  N
  N4       1.0000 0.31730  0.44030  0.84870  Biso   1.000  N
  C11      1.0000 0.64520  0.65880  0.19410  Biso   1.000  C
  C12      1.0000 0.35480  0.34120  0.80590  Biso   1.000  C
  C13      1.0000 0.59060  0.75280  0.14040  Biso   1.000  C
  C14      1.0000 0.40940  0.24720  0.85960  Biso   1.000  C
  H9       1.0000 0.56630  0.82170  0.17060  Biso   1.000  H
  H10      1.0000 0.43370  0.17830  0.82940  Biso   1.000  H
  C15      1.0000 0.57360  0.74000  0.03990  Biso   1.000  C
  C16      1.0000 0.42640  0.26000  0.96010  Biso   1.000  C
  H11      1.0000 0.53570  0.80060  0.00210  Biso   1.000  H
  H12      1.0000 0.46430  0.19940  0.99790  Biso   1.000  H
  C17      1.0000 0.61210  0.63970  0.99730  Biso   1.000  C
  C18      1.0000 0.38790  0.36030  0.00270  Biso   1.000  C
  H13      1.0000 0.60190  0.63140  0.93010  Biso   1.000  H
  H14      1.0000 0.39810  0.36860  0.06990  Biso   1.000  H
  C19      1.0000 0.66670  0.54940  0.05370  Biso   1.000  C
  C20      1.0000 0.33330  0.45060  0.94630  Biso   1.000  C
  H15      1.0000 0.69270  0.48040  0.02400  Biso   1.000  H
  H16      1.0000 0.30730  0.51960  0.97600  Biso   1.000  H
  N5       1.0000 0.81630  0.32090  0.14130  Biso   1.000  N
  N6       1.0000 0.18370  0.67910  0.85870  Biso   1.000  N
  C21      1.0000 0.93400  0.33240  0.07990  Biso   1.000  C
  C22      1.0000 0.06600  0.66760  0.92010  Biso   1.000  C
  H17      1.0000 0.97500  0.40330  0.07420  Biso   1.000  H
  H18      1.0000 0.02500  0.59670  0.92580  Biso   1.000  H
  C23      1.0000 0.99690  0.24520  0.02500  Biso   1.000  C
  C24      1.0000 0.00310  0.75480  0.97500  Biso   1.000  C
  H19      1.0000 0.07670  0.25740  0.98170  Biso   1.000  H
  H20      1.0000 0.92330  0.74260  0.01830  Biso   1.000  H
  C25      1.0000 0.93910  0.13920  0.03560  Biso   1.000  C
  C26      1.0000 0.06090  0.86080  0.96440  Biso   1.000  C
  C27      1.0000 0.81430  0.12490  0.09470  Biso   1.000  C
  C28      1.0000 0.18570  0.87510  0.90530  Biso   1.000  C
  H21      1.0000 0.77040  0.05510  0.10070  Biso   1.000  H
  H22      1.0000 0.22960  0.94490  0.89930  Biso   1.000  H
  C29      1.0000 0.75760  0.21950  0.14460  Biso   1.000  C
  C30      1.0000 0.24240  0.78050  0.85540  Biso   1.000  C
  H23      1.0000 0.67200  0.21150  0.18330  Biso   1.000  H
  H24      1.0000 0.32800  0.78850  0.81670  Biso   1.000  H
  N7       1.0000 0.81810  0.31610  0.34590  Biso   1.000  N
  N8       1.0000 0.18190  0.68390  0.65410  Biso   1.000  N
  N9       1.0000 0.93670  0.00800  0.49390  Biso   1.000  N
  N10      1.0000 0.06330  0.99200  0.50610  Biso   1.000  N
  C31      1.0000 0.96050  0.28140  0.34700  Biso   1.000  C
  C32      1.0000 0.03950  0.71860  0.65300  Biso   1.000  C
  H25      1.0000 0.02970  0.32480  0.31310  Biso   1.000  H
  H26      1.0000 0.97030  0.67520  0.68690  Biso   1.000  H
  C33      1.0000 0.00760  0.18380  0.39640  Biso   1.000  C
  C34      1.0000 0.99240  0.81620  0.60360  Biso   1.000  C
  H27      1.0000 0.10710  0.16180  0.39640  Biso   1.000  H
  H28      1.0000 0.89290  0.83820  0.60360  Biso   1.000  H
  C35      1.0000 0.90450  0.11910  0.44620  Biso   1.000  C
  C36      1.0000 0.09550  0.88090  0.55380  Biso   1.000  C
  C37      1.0000 0.75940  0.15490  0.44920  Biso   1.000  C
  C38      1.0000 0.24060  0.84510  0.55080  Biso   1.000  C
  H29      1.0000 0.68920  0.11380  0.48440  Biso   1.000  H
  H30      1.0000 0.31080  0.88620  0.51560  Biso   1.000  H
  C39      1.0000 0.72020  0.25380  0.39850  Biso   1.000  C
  C40      1.0000 0.27980  0.74620  0.60150  Biso   1.000  C
  H31      1.0000 0.62170  0.27880  0.40060  Biso   1.000  H
  H32      1.0000 0.37830  0.72120  0.59940  Biso   1.000  H
  N11      1.0000 0.01430  0.04710  0.98300  Biso   1.000  N
  N12      1.0000 0.98570  0.95290  0.01700  Biso   1.000  N
  O1       1.0000 0.50380  0.37990  0.25100  Biso   1.000  O
  O2       1.0000 0.49620  0.62010  0.74900  Biso   1.000  O
  H33      1.0000 0.49700  0.30850  0.26000  Biso   1.000  H
  H34      1.0000 0.50300  0.69150  0.74000  Biso   1.000  H
  H35      1.0000 0.41910  0.41130  0.26290  Biso   1.000  H
  H36      1.0000 0.58090  0.58870  0.73710  Biso   1.000  H
  S1       1.0000 0.14714  0.56309  0.22733  Biso   1.000  S
  S2       1.0000 0.85286  0.43691  0.77267  Biso   1.000  S
  O3       1.0000 0.00180  0.53230  0.21530  Biso   1.000  O
  O4       1.0000 0.99820  0.46770  0.78470  Biso   1.000  O
  O5       1.0000 0.23260  0.48550  0.28170  Biso   1.000  O
  O6       1.0000 0.76740  0.51450  0.71830  Biso   1.000  O
  O7       1.0000 0.22260  0.60340  0.14190  Biso   1.000  O
  O8       1.0000 0.77740  0.39660  0.85810  Biso   1.000  O
  C41      1.0000 0.12410  0.68790  0.30300  Biso   1.000  C
  C42      1.0000 0.87590  0.31210  0.69700  Biso   1.000  C
  F1       1.0000 0.05950  0.65610  0.38610  Biso   1.000  F
  F2       1.0000 0.94050  0.34390  0.61390  Biso   1.000  F
  F3       1.0000 0.04350  0.76300  0.26250  Biso   1.000  F
  F4       1.0000 0.95650  0.23700  0.73750  Biso   1.000  F
  F5       1.0000 0.24870  0.72500  0.32320  Biso   1.000  F
  F6       1.0000 0.75130  0.27500  0.67680  Biso   1.000  F
  S3       1.0000 0.41377  0.05700  0.27817  Biso   1.000  S
  S4       1.0000 0.58623  0.94300  0.72183  Biso   1.000  S
  O9       1.0000 0.38430  0.17160  0.30230  Biso   1.000  O
  O10      1.0000 0.61570  0.82840  0.69770  Biso   1.000  O
  O11      1.0000 0.54720  0.03030  0.22880  Biso   1.000  O
  O12      1.0000 0.45280  0.96970  0.77120  Biso   1.000  O
  O13      1.0000 0.38300  0.98110  0.36070  Biso   1.000  O
  O14      1.0000 0.61700  0.01890  0.63930  Biso   1.000  O
  C43      1.0000 0.27420  0.02520  0.19370  Biso   1.000  C
  C44      1.0000 0.72580  0.97480  0.80630  Biso   1.000  C
  F7       1.0000 0.14370  0.03200  0.22980  Biso   1.000  F
  F8       1.0000 0.85630  0.96800  0.77020  Biso   1.000  F
  F9       1.0000 0.29530  0.92800  0.15560  Biso   1.000  F
  F10      1.0000 0.70470  0.07200  0.84440  Biso   1.000  F
  F11      1.0000 0.28100  0.09910  0.12290  Biso   1.000  F
  F12      1.0000 0.71900  0.90090  0.87710  Biso   1.000  F
