data_image0
_cell_length_a       14.713
_cell_length_b       15.897
_cell_length_c       13.89
_cell_angle_alpha    90
_cell_angle_beta     90
_cell_angle_gamma    90

_symmetry_space_group_name_H-M    "P 1"
_symmetry_int_tables_number       1

loop_
  _symmetry_equiv_pos_as_xyz
  'x, y, z'

loop_
  _atom_site_label
  _atom_site_occupancy
  _atom_site_fract_x
  _atom_site_fract_y
  _atom_site_fract_z
  _atom_site_thermal_displace_type
  _atom_site_B_iso_or_equiv
  _atom_site_type_symbol
  Cu1      1.0000 0.63948  0.25000  0.00000  Biso   1.000  Cu
  Cu2      1.0000 0.63948  0.25000  0.50000  Biso   1.000  Cu
  Cu3      1.0000 0.36052  0.75000  0.00000  Biso   1.000  Cu
  Cu4      1.0000 0.36052  0.75000  0.50000  Biso   1.000  Cu
  C1       1.0000 0.75580  0.39380  0.04230  Biso   1.000  C
  C2       1.0000 0.75580  0.39380  0.45770  Biso   1.000  C
  C3       1.0000 0.24420  0.89380  0.04230  Biso   1.000  C
  C4       1.0000 0.75580  0.10620  0.54230  Biso   1.000  C
  C5       1.0000 0.24420  0.60620  0.95770  Biso   1.000  C
  C6       1.0000 0.24420  0.60620  0.54230  Biso   1.000  C
  C7       1.0000 0.75580  0.10620  0.95770  Biso   1.000  C
  C8       1.0000 0.24420  0.89380  0.45770  Biso   1.000  C
  H1       1.0000 0.71390  0.40180  0.09160  Biso   1.000  H
  H2       1.0000 0.71390  0.40180  0.40840  Biso   1.000  H
  H3       1.0000 0.28610  0.90180  0.09160  Biso   1.000  H
  H4       1.0000 0.71390  0.09820  0.59160  Biso   1.000  H
  H5       1.0000 0.28610  0.59820  0.90840  Biso   1.000  H
  H6       1.0000 0.28610  0.59820  0.59160  Biso   1.000  H
  H7       1.0000 0.71390  0.09820  0.90840  Biso   1.000  H
  H8       1.0000 0.28610  0.90180  0.40840  Biso   1.000  H
  N1       1.0000 0.53760  0.17680  0.03720  Biso   1.000  N
  N2       1.0000 0.53760  0.17680  0.46280  Biso   1.000  N
  N3       1.0000 0.46240  0.67680  0.03720  Biso   1.000  N
  N4       1.0000 0.53760  0.32320  0.53720  Biso   1.000  N
  N5       1.0000 0.46240  0.82320  0.96280  Biso   1.000  N
  N6       1.0000 0.46240  0.82320  0.53720  Biso   1.000  N
  N7       1.0000 0.53760  0.32320  0.96280  Biso   1.000  N
  N8       1.0000 0.46240  0.67680  0.46280  Biso   1.000  N
  N9       1.0000 0.73770  0.33560  0.97670  Biso   1.000  N
  N10      1.0000 0.73770  0.33560  0.52330  Biso   1.000  N
  N11      1.0000 0.26230  0.83560  0.97670  Biso   1.000  N
  N12      1.0000 0.73770  0.16440  0.47670  Biso   1.000  N
  N13      1.0000 0.26230  0.66440  0.02330  Biso   1.000  N
  N14      1.0000 0.26230  0.66440  0.47670  Biso   1.000  N
  N15      1.0000 0.73770  0.16440  0.02330  Biso   1.000  N
  N16      1.0000 0.26230  0.83560  0.52330  Biso   1.000  N
  C9       1.0000 0.98510  0.47480  0.96830  Biso   1.000  C
  C10      1.0000 0.98510  0.47480  0.53170  Biso   1.000  C
  C11      1.0000 0.01490  0.97480  0.96830  Biso   1.000  C
  C12      1.0000 0.98510  0.02520  0.46830  Biso   1.000  C
  C13      1.0000 0.01490  0.52520  0.03170  Biso   1.000  C
  C14      1.0000 0.01490  0.52520  0.46830  Biso   1.000  C
  C15      1.0000 0.98510  0.02520  0.03170  Biso   1.000  C
  C16      1.0000 0.01490  0.97480  0.53170  Biso   1.000  C
  H9       1.0000 0.02270  0.46460  0.91580  Biso   1.000  H
  H10      1.0000 0.02270  0.46460  0.58420  Biso   1.000  H
  H11      1.0000 0.97730  0.96460  0.91580  Biso   1.000  H
  H12      1.0000 0.02270  0.03540  0.41580  Biso   1.000  H
  H13      1.0000 0.97730  0.53540  0.08420  Biso   1.000  H
  H14      1.0000 0.97730  0.53540  0.41580  Biso   1.000  H
  H15      1.0000 0.02270  0.03540  0.08420  Biso   1.000  H
  H16      1.0000 0.97730  0.96460  0.58420  Biso   1.000  H
  C17      1.0000 0.79850  0.32580  0.90840  Biso   1.000  C
  C18      1.0000 0.79850  0.32580  0.59160  Biso   1.000  C
  C19      1.0000 0.20150  0.82580  0.90840  Biso   1.000  C
  C20      1.0000 0.79850  0.17420  0.40840  Biso   1.000  C
  C21      1.0000 0.20150  0.67420  0.09160  Biso   1.000  C
  C22      1.0000 0.20150  0.67420  0.40840  Biso   1.000  C
  C23      1.0000 0.79850  0.17420  0.09160  Biso   1.000  C
  C24      1.0000 0.20150  0.82580  0.59160  Biso   1.000  C
  H17      1.0000 0.78710  0.28560  0.86130  Biso   1.000  H
  H18      1.0000 0.78710  0.28560  0.63870  Biso   1.000  H
  H19      1.0000 0.21290  0.78560  0.86130  Biso   1.000  H
  H20      1.0000 0.78710  0.21440  0.36130  Biso   1.000  H
  H21      1.0000 0.21290  0.71440  0.13870  Biso   1.000  H
  H22      1.0000 0.21290  0.71440  0.36130  Biso   1.000  H
  H23      1.0000 0.78710  0.21440  0.13870  Biso   1.000  H
  H24      1.0000 0.21290  0.78560  0.63870  Biso   1.000  H
  C25      1.0000 0.89600  0.43010  0.96940  Biso   1.000  C
  C26      1.0000 0.89600  0.43010  0.53060  Biso   1.000  C
  C27      1.0000 0.10400  0.93010  0.96940  Biso   1.000  C
  C28      1.0000 0.89600  0.06990  0.46940  Biso   1.000  C
  C29      1.0000 0.10400  0.56990  0.03060  Biso   1.000  C
  C30      1.0000 0.10400  0.56990  0.46940  Biso   1.000  C
  C31      1.0000 0.89600  0.06990  0.03060  Biso   1.000  C
  C32      1.0000 0.10400  0.93010  0.53060  Biso   1.000  C
  C33      1.0000 0.87770  0.37100  0.90200  Biso   1.000  C
  C34      1.0000 0.87770  0.37100  0.59800  Biso   1.000  C
  C35      1.0000 0.12230  0.87100  0.90200  Biso   1.000  C
  C36      1.0000 0.87770  0.12900  0.40200  Biso   1.000  C
  C37      1.0000 0.12230  0.62900  0.09800  Biso   1.000  C
  C38      1.0000 0.12230  0.62900  0.40200  Biso   1.000  C
  C39      1.0000 0.87770  0.12900  0.09800  Biso   1.000  C
  C40      1.0000 0.12230  0.87100  0.59800  Biso   1.000  C
  H25      1.0000 0.91840  0.36120  0.85190  Biso   1.000  H
  H26      1.0000 0.91840  0.36120  0.64810  Biso   1.000  H
  H27      1.0000 0.08160  0.86120  0.85190  Biso   1.000  H
  H28      1.0000 0.91840  0.13880  0.35190  Biso   1.000  H
  H29      1.0000 0.08160  0.63880  0.14810  Biso   1.000  H
  H30      1.0000 0.08160  0.63880  0.35190  Biso   1.000  H
  H31      1.0000 0.91840  0.13880  0.14810  Biso   1.000  H
  H32      1.0000 0.08160  0.86120  0.64810  Biso   1.000  H
  C41      1.0000 0.83270  0.44300  0.04210  Biso   1.000  C
  C42      1.0000 0.83270  0.44300  0.45790  Biso   1.000  C
  C43      1.0000 0.16730  0.94300  0.04210  Biso   1.000  C
  C44      1.0000 0.83270  0.05700  0.54210  Biso   1.000  C
  C45      1.0000 0.16730  0.55700  0.95790  Biso   1.000  C
  C46      1.0000 0.16730  0.55700  0.54210  Biso   1.000  C
  C47      1.0000 0.83270  0.05700  0.95790  Biso   1.000  C
  C48      1.0000 0.16730  0.94300  0.45790  Biso   1.000  C
  H33      1.0000 0.84210  0.48370  0.08920  Biso   1.000  H
  H34      1.0000 0.84210  0.48370  0.41080  Biso   1.000  H
  H35      1.0000 0.15790  0.98370  0.08920  Biso   1.000  H
  H36      1.0000 0.84210  0.01630  0.58920  Biso   1.000  H
  H37      1.0000 0.15790  0.51630  0.91080  Biso   1.000  H
  H38      1.0000 0.15790  0.51630  0.58920  Biso   1.000  H
  H39      1.0000 0.84210  0.01630  0.91080  Biso   1.000  H
  H40      1.0000 0.15790  0.98370  0.41080  Biso   1.000  H
  C49      1.0000 0.45480  0.21010  0.02480  Biso   1.000  C
  C50      1.0000 0.45480  0.21010  0.47520  Biso   1.000  C
  C51      1.0000 0.54520  0.71010  0.02480  Biso   1.000  C
  C52      1.0000 0.45480  0.28990  0.52480  Biso   1.000  C
  C53      1.0000 0.54520  0.78990  0.97520  Biso   1.000  C
  C54      1.0000 0.54520  0.78990  0.52480  Biso   1.000  C
  C55      1.0000 0.45480  0.28990  0.97520  Biso   1.000  C
  C56      1.0000 0.54520  0.71010  0.47520  Biso   1.000  C
  C57      1.0000 0.46920  0.05660  0.11660  Biso   1.000  C
  C58      1.0000 0.46920  0.05660  0.38340  Biso   1.000  C
  C59      1.0000 0.53080  0.55660  0.11660  Biso   1.000  C
  C60      1.0000 0.46920  0.44340  0.61660  Biso   1.000  C
  C61      1.0000 0.53080  0.94340  0.88340  Biso   1.000  C
  C62      1.0000 0.53080  0.94340  0.61660  Biso   1.000  C
  C63      1.0000 0.46920  0.44340  0.88340  Biso   1.000  C
  C64      1.0000 0.53080  0.55660  0.38340  Biso   1.000  C
  H41      1.0000 0.47550  0.00440  0.14600  Biso   1.000  H
  H42      1.0000 0.47550  0.00440  0.35400  Biso   1.000  H
  H43      1.0000 0.52450  0.50440  0.14600  Biso   1.000  H
  H44      1.0000 0.47550  0.49560  0.64600  Biso   1.000  H
  H45      1.0000 0.52450  0.99560  0.85400  Biso   1.000  H
  H46      1.0000 0.52450  0.99560  0.64600  Biso   1.000  H
  H47      1.0000 0.47550  0.49560  0.85400  Biso   1.000  H
  H48      1.0000 0.52450  0.50440  0.35400  Biso   1.000  H
  C65      1.0000 0.38680  0.09470  0.10360  Biso   1.000  C
  C66      1.0000 0.38680  0.09470  0.39640  Biso   1.000  C
  C67      1.0000 0.61320  0.59470  0.10360  Biso   1.000  C
  C68      1.0000 0.38680  0.40530  0.60360  Biso   1.000  C
  C69      1.0000 0.61320  0.90530  0.89640  Biso   1.000  C
  C70      1.0000 0.61320  0.90530  0.60360  Biso   1.000  C
  C71      1.0000 0.38680  0.40530  0.89640  Biso   1.000  C
  C72      1.0000 0.61320  0.59470  0.39640  Biso   1.000  C
  H49      1.0000 0.33430  0.06710  0.12330  Biso   1.000  H
  H50      1.0000 0.33430  0.06710  0.37670  Biso   1.000  H
  H51      1.0000 0.66570  0.56710  0.12330  Biso   1.000  H
  H52      1.0000 0.33430  0.43290  0.62330  Biso   1.000  H
  H53      1.0000 0.66570  0.93290  0.87670  Biso   1.000  H
  H54      1.0000 0.66570  0.93290  0.62330  Biso   1.000  H
  H55      1.0000 0.33430  0.43290  0.87670  Biso   1.000  H
  H56      1.0000 0.66570  0.56710  0.37670  Biso   1.000  H
  C73      1.0000 0.54320  0.10310  0.08180  Biso   1.000  C
  C74      1.0000 0.54320  0.10310  0.41820  Biso   1.000  C
  C75      1.0000 0.45680  0.60310  0.08180  Biso   1.000  C
  C76      1.0000 0.54320  0.39690  0.58180  Biso   1.000  C
  C77      1.0000 0.45680  0.89690  0.91820  Biso   1.000  C
  C78      1.0000 0.45680  0.89690  0.58180  Biso   1.000  C
  C79      1.0000 0.54320  0.39690  0.91820  Biso   1.000  C
  C80      1.0000 0.45680  0.60310  0.41820  Biso   1.000  C
  H57      1.0000 0.60090  0.08040  0.09070  Biso   1.000  H
  H58      1.0000 0.60090  0.08040  0.40930  Biso   1.000  H
  H59      1.0000 0.39910  0.58040  0.09070  Biso   1.000  H
  H60      1.0000 0.60090  0.41960  0.59070  Biso   1.000  H
  H61      1.0000 0.39910  0.91960  0.90930  Biso   1.000  H
  H62      1.0000 0.39910  0.91960  0.59070  Biso   1.000  H
  H63      1.0000 0.60090  0.41960  0.90930  Biso   1.000  H
  H64      1.0000 0.39910  0.58040  0.40930  Biso   1.000  H
  C81      1.0000 0.38040  0.16830  0.06450  Biso   1.000  C
  C82      1.0000 0.38040  0.16830  0.43550  Biso   1.000  C
  C83      1.0000 0.61960  0.66830  0.06450  Biso   1.000  C
  C84      1.0000 0.38040  0.33170  0.56450  Biso   1.000  C
  C85      1.0000 0.61960  0.83170  0.93550  Biso   1.000  C
  C86      1.0000 0.61960  0.83170  0.56450  Biso   1.000  C
  C87      1.0000 0.38040  0.33170  0.93550  Biso   1.000  C
  C88      1.0000 0.61960  0.66830  0.43550  Biso   1.000  C
  H65      1.0000 0.32380  0.19440  0.06290  Biso   1.000  H
  H66      1.0000 0.32380  0.19440  0.43710  Biso   1.000  H
  H67      1.0000 0.67620  0.69440  0.06290  Biso   1.000  H
  H68      1.0000 0.32380  0.30560  0.56290  Biso   1.000  H
  H69      1.0000 0.67620  0.80560  0.93710  Biso   1.000  H
  H70      1.0000 0.67620  0.80560  0.56290  Biso   1.000  H
  H71      1.0000 0.32380  0.30560  0.93710  Biso   1.000  H
  H72      1.0000 0.67620  0.69440  0.43710  Biso   1.000  H
  B1       1.0000 0.15560  0.12190  0.25000  Biso   1.000  B
  B2       1.0000 0.84440  0.62190  0.25000  Biso   1.000  B
  B3       1.0000 0.15560  0.37810  0.75000  Biso   1.000  B
  B4       1.0000 0.84440  0.87810  0.75000  Biso   1.000  B
  F1       1.0000 0.06670  0.11510  0.25000  Biso   1.000  F
  F2       1.0000 0.93330  0.61510  0.25000  Biso   1.000  F
  F3       1.0000 0.06670  0.38490  0.75000  Biso   1.000  F
  F4       1.0000 0.93330  0.88490  0.75000  Biso   1.000  F
  F5       1.0000 0.20050  0.04890  0.25000  Biso   1.000  F
  F6       1.0000 0.79950  0.54890  0.25000  Biso   1.000  F
  F7       1.0000 0.20050  0.45110  0.75000  Biso   1.000  F
  F8       1.0000 0.79950  0.95110  0.75000  Biso   1.000  F
  F9       1.0000 0.18030  0.16590  0.17550  Biso   1.000  F
  F10      1.0000 0.18030  0.16590  0.32450  Biso   1.000  F
  F11      1.0000 0.81970  0.66590  0.17550  Biso   1.000  F
  F12      1.0000 0.18030  0.33410  0.67550  Biso   1.000  F
  F13      1.0000 0.81970  0.83410  0.82450  Biso   1.000  F
  F14      1.0000 0.81970  0.83410  0.67550  Biso   1.000  F
  F15      1.0000 0.18030  0.33410  0.82450  Biso   1.000  F
  F16      1.0000 0.81970  0.66590  0.32450  Biso   1.000  F
  B5       1.0000 0.58980  0.31110  0.25000  Biso   1.000  B
  B6       1.0000 0.41020  0.81110  0.25000  Biso   1.000  B
  B7       1.0000 0.58980  0.18890  0.75000  Biso   1.000  B
  B8       1.0000 0.41020  0.68890  0.75000  Biso   1.000  B
  F17      1.0000 0.50490  0.27510  0.25000  Biso   1.000  F
  F18      1.0000 0.49510  0.77510  0.25000  Biso   1.000  F
  F19      1.0000 0.50490  0.22490  0.75000  Biso   1.000  F
  F20      1.0000 0.49510  0.72490  0.75000  Biso   1.000  F
  F21      1.0000 0.63760  0.28350  0.17400  Biso   1.000  F
  F22      1.0000 0.63760  0.28350  0.32600  Biso   1.000  F
  F23      1.0000 0.36240  0.78350  0.17400  Biso   1.000  F
  F24      1.0000 0.63760  0.21650  0.67400  Biso   1.000  F
  F25      1.0000 0.36240  0.71650  0.82600  Biso   1.000  F
  F26      1.0000 0.36240  0.71650  0.67400  Biso   1.000  F
  F27      1.0000 0.63760  0.21650  0.82600  Biso   1.000  F
  F28      1.0000 0.36240  0.78350  0.32600  Biso   1.000  F
  F29      1.0000 0.58790  0.39480  0.25000  Biso   1.000  F
  F30      1.0000 0.41210  0.89480  0.25000  Biso   1.000  F
  F31      1.0000 0.58790  0.10520  0.75000  Biso   1.000  F
  F32      1.0000 0.41210  0.60520  0.75000  Biso   1.000  F
  F33      1.0000 0.65280  0.24800  0.25000  Biso   1.000  F
  F34      1.0000 0.34720  0.74800  0.25000  Biso   1.000  F
  F35      1.0000 0.65280  0.25200  0.75000  Biso   1.000  F
  F36      1.0000 0.34720  0.75200  0.75000  Biso   1.000  F
  F37      1.0000 0.59500  0.35200  0.16300  Biso   1.000  F
  F38      1.0000 0.59500  0.35200  0.33700  Biso   1.000  F
  F39      1.0000 0.40500  0.85200  0.16300  Biso   1.000  F
  F40      1.0000 0.59500  0.14800  0.66300  Biso   1.000  F
  F41      1.0000 0.40500  0.64800  0.83700  Biso   1.000  F
  F42      1.0000 0.40500  0.64800  0.66300  Biso   1.000  F
  F43      1.0000 0.59500  0.14800  0.83700  Biso   1.000  F
  F44      1.0000 0.40500  0.85200  0.33700  Biso   1.000  F
