data_image0
_cell_length_a       19.177
_cell_length_b       8.298
_cell_length_c       21.249
_cell_angle_alpha    90
_cell_angle_beta     109.8
_cell_angle_gamma    90

_symmetry_space_group_name_H-M    "P 1"
_symmetry_int_tables_number       1

loop_
  _symmetry_equiv_pos_as_xyz
  'x, y, z'

loop_
  _atom_site_label
  _atom_site_occupancy
  _atom_site_fract_x
  _atom_site_fract_y
  _atom_site_fract_z
  _atom_site_thermal_displace_type
  _atom_site_B_iso_or_equiv
  _atom_site_type_symbol
  Cu1      1.0000 0.95894  0.17840  0.46675  Biso   1.000  Cu
  Cu2      1.0000 0.45894  0.67840  0.46675  Biso   1.000  Cu
  Cu3      1.0000 0.95894  0.82160  0.96674  Biso   1.000  Cu
  Cu4      1.0000 0.45894  0.32160  0.96674  Biso   1.000  Cu
  Cu5      1.0000 0.04106  0.82160  0.53326  Biso   1.000  Cu
  Cu6      1.0000 0.54106  0.32160  0.53326  Biso   1.000  Cu
  Cu7      1.0000 0.04106  0.17840  0.03325  Biso   1.000  Cu
  Cu8      1.0000 0.54106  0.67840  0.03325  Biso   1.000  Cu
  Cl1      1.0000 0.06553  0.06454  0.46243  Biso   1.000  Cl
  Cl2      1.0000 0.56553  0.56454  0.46243  Biso   1.000  Cl
  Cl3      1.0000 0.06553  0.93546  0.96243  Biso   1.000  Cl
  Cl4      1.0000 0.56553  0.43546  0.96243  Biso   1.000  Cl
  Cl5      1.0000 0.93447  0.93546  0.53757  Biso   1.000  Cl
  Cl6      1.0000 0.43447  0.43546  0.53757  Biso   1.000  Cl
  Cl7      1.0000 0.93447  0.06454  0.03757  Biso   1.000  Cl
  Cl8      1.0000 0.43447  0.56454  0.03757  Biso   1.000  Cl
  N1       1.0000 0.00854  0.31804  0.54621  Biso   1.000  N
  N2       1.0000 0.50854  0.81804  0.54621  Biso   1.000  N
  N3       1.0000 0.00854  0.68196  0.04621  Biso   1.000  N
  N4       1.0000 0.50854  0.18196  0.04621  Biso   1.000  N
  N5       1.0000 0.99146  0.68196  0.45379  Biso   1.000  N
  N6       1.0000 0.49146  0.18196  0.45379  Biso   1.000  N
  N7       1.0000 0.99146  0.31804  0.95379  Biso   1.000  N
  N8       1.0000 0.49146  0.81804  0.95379  Biso   1.000  N
  N9       1.0000 0.87048  0.30266  0.46822  Biso   1.000  N
  N10      1.0000 0.37048  0.80266  0.46822  Biso   1.000  N
  N11      1.0000 0.87048  0.69734  0.96822  Biso   1.000  N
  N12      1.0000 0.37048  0.19734  0.96822  Biso   1.000  N
  N13      1.0000 0.12952  0.69734  0.53178  Biso   1.000  N
  N14      1.0000 0.62952  0.19734  0.53178  Biso   1.000  N
  N15      1.0000 0.12952  0.30266  0.03178  Biso   1.000  N
  N16      1.0000 0.62952  0.80266  0.03178  Biso   1.000  N
  C1       1.0000 0.96190  0.41890  0.56274  Biso   1.000  C
  C2       1.0000 0.46190  0.91890  0.56274  Biso   1.000  C
  C3       1.0000 0.96190  0.58110  0.06274  Biso   1.000  C
  C4       1.0000 0.46190  0.08110  0.06274  Biso   1.000  C
  C5       1.0000 0.03810  0.58110  0.43726  Biso   1.000  C
  C6       1.0000 0.53810  0.08110  0.43726  Biso   1.000  C
  C7       1.0000 0.03810  0.41890  0.93726  Biso   1.000  C
  C8       1.0000 0.53810  0.91890  0.93726  Biso   1.000  C
  C9       1.0000 0.00000  0.97620  0.25000  Biso   1.000  C
  C10      1.0000 0.50000  0.47620  0.25000  Biso   1.000  C
  C11      1.0000 0.00000  0.02380  0.75000  Biso   1.000  C
  C12      1.0000 0.50000  0.52380  0.75000  Biso   1.000  C
  H1       1.0000 0.98500  0.04480  0.21070  Biso   1.000  H
  H2       1.0000 0.48500  0.54480  0.21070  Biso   1.000  H
  H3       1.0000 0.98500  0.95520  0.71070  Biso   1.000  H
  H4       1.0000 0.48500  0.45520  0.71070  Biso   1.000  H
  H5       1.0000 0.01500  0.95520  0.78930  Biso   1.000  H
  H6       1.0000 0.51500  0.45520  0.78930  Biso   1.000  H
  H7       1.0000 0.01500  0.04480  0.28930  Biso   1.000  H
  H8       1.0000 0.51500  0.54480  0.28930  Biso   1.000  H
  C13      1.0000 0.08077  0.31540  0.58485  Biso   1.000  C
  C14      1.0000 0.58077  0.81540  0.58485  Biso   1.000  C
  C15      1.0000 0.08077  0.68460  0.08485  Biso   1.000  C
  C16      1.0000 0.58077  0.18460  0.08485  Biso   1.000  C
  C17      1.0000 0.91923  0.68460  0.41515  Biso   1.000  C
  C18      1.0000 0.41923  0.18460  0.41515  Biso   1.000  C
  C19      1.0000 0.91923  0.31540  0.91515  Biso   1.000  C
  C20      1.0000 0.41923  0.81540  0.91515  Biso   1.000  C
  H9       1.0000 0.11280  0.24630  0.57350  Biso   1.000  H
  H10      1.0000 0.61280  0.74630  0.57350  Biso   1.000  H
  H11      1.0000 0.11280  0.75370  0.07350  Biso   1.000  H
  H12      1.0000 0.61280  0.25370  0.07350  Biso   1.000  H
  H13      1.0000 0.88720  0.75370  0.42650  Biso   1.000  H
  H14      1.0000 0.38720  0.25370  0.42650  Biso   1.000  H
  H15      1.0000 0.88720  0.24630  0.92650  Biso   1.000  H
  H16      1.0000 0.38720  0.74630  0.92650  Biso   1.000  H
  N17      1.0000 0.90746  0.09530  0.37467  Biso   1.000  N
  N18      1.0000 0.40746  0.59530  0.37467  Biso   1.000  N
  N19      1.0000 0.90746  0.90470  0.87467  Biso   1.000  N
  N20      1.0000 0.40746  0.40470  0.87467  Biso   1.000  N
  N21      1.0000 0.09254  0.90470  0.62533  Biso   1.000  N
  N22      1.0000 0.59254  0.40470  0.62533  Biso   1.000  N
  N23      1.0000 0.09254  0.09530  0.12533  Biso   1.000  N
  N24      1.0000 0.59254  0.59530  0.12533  Biso   1.000  N
  C21      1.0000 0.80119  0.28710  0.42487  Biso   1.000  C
  C22      1.0000 0.30119  0.78710  0.42487  Biso   1.000  C
  C23      1.0000 0.80119  0.71290  0.92487  Biso   1.000  C
  C24      1.0000 0.30119  0.21290  0.92487  Biso   1.000  C
  C25      1.0000 0.19881  0.71290  0.57513  Biso   1.000  C
  C26      1.0000 0.69881  0.21290  0.57513  Biso   1.000  C
  C27      1.0000 0.19881  0.28710  0.07513  Biso   1.000  C
  C28      1.0000 0.69881  0.78710  0.07513  Biso   1.000  C
  H17      1.0000 0.79130  0.20920  0.39150  Biso   1.000  H
  H18      1.0000 0.29130  0.70920  0.39150  Biso   1.000  H
  H19      1.0000 0.79130  0.79080  0.89150  Biso   1.000  H
  H20      1.0000 0.29130  0.29080  0.89150  Biso   1.000  H
  H21      1.0000 0.20870  0.79080  0.60850  Biso   1.000  H
  H22      1.0000 0.70870  0.29080  0.60850  Biso   1.000  H
  H23      1.0000 0.20870  0.20920  0.10850  Biso   1.000  H
  H24      1.0000 0.70870  0.70920  0.10850  Biso   1.000  H
  C29      1.0000 0.98705  0.51750  0.61878  Biso   1.000  C
  C30      1.0000 0.48705  0.01750  0.61878  Biso   1.000  C
  C31      1.0000 0.98705  0.48250  0.11878  Biso   1.000  C
  C32      1.0000 0.48705  0.98250  0.11878  Biso   1.000  C
  C33      1.0000 0.01295  0.48250  0.38122  Biso   1.000  C
  C34      1.0000 0.51295  0.98250  0.38122  Biso   1.000  C
  C35      1.0000 0.01295  0.51750  0.88122  Biso   1.000  C
  C36      1.0000 0.51295  0.01750  0.88122  Biso   1.000  C
  H25      1.0000 0.95440  0.58560  0.62980  Biso   1.000  H
  H26      1.0000 0.45440  0.08560  0.62980  Biso   1.000  H
  H27      1.0000 0.95440  0.41440  0.12980  Biso   1.000  H
  H28      1.0000 0.45440  0.91440  0.12980  Biso   1.000  H
  H29      1.0000 0.04560  0.41440  0.37020  Biso   1.000  H
  H30      1.0000 0.54560  0.91440  0.37020  Biso   1.000  H
  H31      1.0000 0.04560  0.58560  0.87020  Biso   1.000  H
  H32      1.0000 0.54560  0.08560  0.87020  Biso   1.000  H
  C37      1.0000 0.06088  0.51320  0.65782  Biso   1.000  C
  C38      1.0000 0.56088  0.01320  0.65782  Biso   1.000  C
  C39      1.0000 0.06088  0.48680  0.15782  Biso   1.000  C
  C40      1.0000 0.56088  0.98680  0.15782  Biso   1.000  C
  C41      1.0000 0.93912  0.48680  0.34218  Biso   1.000  C
  C42      1.0000 0.43912  0.98680  0.34218  Biso   1.000  C
  C43      1.0000 0.93912  0.51320  0.84218  Biso   1.000  C
  C44      1.0000 0.43912  0.01320  0.84218  Biso   1.000  C
  H33      1.0000 0.07850  0.57830  0.69560  Biso   1.000  H
  H34      1.0000 0.57850  0.07830  0.69560  Biso   1.000  H
  H35      1.0000 0.07850  0.42170  0.19560  Biso   1.000  H
  H36      1.0000 0.57850  0.92170  0.19560  Biso   1.000  H
  H37      1.0000 0.92150  0.42170  0.30440  Biso   1.000  H
  H38      1.0000 0.42150  0.92170  0.30440  Biso   1.000  H
  H39      1.0000 0.92150  0.57830  0.80440  Biso   1.000  H
  H40      1.0000 0.42150  0.07830  0.80440  Biso   1.000  H
  C45      1.0000 0.82920  0.51530  0.52266  Biso   1.000  C
  C46      1.0000 0.32920  0.01530  0.52266  Biso   1.000  C
  C47      1.0000 0.82920  0.48470  0.02266  Biso   1.000  C
  C48      1.0000 0.32920  0.98470  0.02266  Biso   1.000  C
  C49      1.0000 0.17080  0.48470  0.47734  Biso   1.000  C
  C50      1.0000 0.67080  0.98470  0.47734  Biso   1.000  C
  C51      1.0000 0.17080  0.51530  0.97734  Biso   1.000  C
  C52      1.0000 0.67080  0.01530  0.97734  Biso   1.000  C
  H41      1.0000 0.83990  0.59310  0.55610  Biso   1.000  H
  H42      1.0000 0.33990  0.09310  0.55610  Biso   1.000  H
  H43      1.0000 0.83990  0.40690  0.05610  Biso   1.000  H
  H44      1.0000 0.33990  0.90690  0.05610  Biso   1.000  H
  H45      1.0000 0.16010  0.40690  0.44390  Biso   1.000  H
  H46      1.0000 0.66010  0.90690  0.44390  Biso   1.000  H
  H47      1.0000 0.16010  0.59310  0.94390  Biso   1.000  H
  H48      1.0000 0.66010  0.09310  0.94390  Biso   1.000  H
  C53      1.0000 0.93544  0.87340  0.25037  Biso   1.000  C
  C54      1.0000 0.43544  0.37340  0.25037  Biso   1.000  C
  C55      1.0000 0.93544  0.12660  0.75037  Biso   1.000  C
  C56      1.0000 0.43544  0.62660  0.75037  Biso   1.000  C
  C57      1.0000 0.06456  0.12660  0.74963  Biso   1.000  C
  C58      1.0000 0.56456  0.62660  0.74963  Biso   1.000  C
  C59      1.0000 0.06456  0.87340  0.24963  Biso   1.000  C
  C60      1.0000 0.56456  0.37340  0.24963  Biso   1.000  C
  H49      1.0000 0.95260  0.79750  0.28710  Biso   1.000  H
  H50      1.0000 0.45260  0.29750  0.28710  Biso   1.000  H
  H51      1.0000 0.95260  0.20250  0.78710  Biso   1.000  H
  H52      1.0000 0.45260  0.70250  0.78710  Biso   1.000  H
  H53      1.0000 0.04740  0.20250  0.71290  Biso   1.000  H
  H54      1.0000 0.54740  0.70250  0.71290  Biso   1.000  H
  H55      1.0000 0.04740  0.79750  0.21290  Biso   1.000  H
  H56      1.0000 0.54740  0.29750  0.21290  Biso   1.000  H
  H57      1.0000 0.91880  0.81150  0.20920  Biso   1.000  H
  H58      1.0000 0.41880  0.31150  0.20920  Biso   1.000  H
  H59      1.0000 0.91880  0.18850  0.70920  Biso   1.000  H
  H60      1.0000 0.41880  0.68850  0.70920  Biso   1.000  H
  H61      1.0000 0.08120  0.18850  0.79080  Biso   1.000  H
  H62      1.0000 0.58120  0.68850  0.79080  Biso   1.000  H
  H63      1.0000 0.08120  0.81150  0.29080  Biso   1.000  H
  H64      1.0000 0.58120  0.31150  0.29080  Biso   1.000  H
  C61      1.0000 0.10846  0.41190  0.64060  Biso   1.000  C
  C62      1.0000 0.60846  0.91190  0.64060  Biso   1.000  C
  C63      1.0000 0.10846  0.58810  0.14060  Biso   1.000  C
  C64      1.0000 0.60846  0.08810  0.14060  Biso   1.000  C
  C65      1.0000 0.89154  0.58810  0.35940  Biso   1.000  C
  C66      1.0000 0.39154  0.08810  0.35940  Biso   1.000  C
  C67      1.0000 0.89154  0.41190  0.85940  Biso   1.000  C
  C68      1.0000 0.39154  0.91190  0.85940  Biso   1.000  C
  H65      1.0000 0.15850  0.40870  0.66620  Biso   1.000  H
  H66      1.0000 0.65850  0.90870  0.66620  Biso   1.000  H
  H67      1.0000 0.15850  0.59130  0.16620  Biso   1.000  H
  H68      1.0000 0.65850  0.09130  0.16620  Biso   1.000  H
  H69      1.0000 0.84150  0.59130  0.33380  Biso   1.000  H
  H70      1.0000 0.34150  0.09130  0.33380  Biso   1.000  H
  H71      1.0000 0.84150  0.40870  0.83380  Biso   1.000  H
  H72      1.0000 0.34150  0.90870  0.83380  Biso   1.000  H
  C69      1.0000 0.75841  0.49970  0.47774  Biso   1.000  C
  C70      1.0000 0.25841  0.99970  0.47774  Biso   1.000  C
  C71      1.0000 0.75841  0.50030  0.97774  Biso   1.000  C
  C72      1.0000 0.25841  0.00030  0.97774  Biso   1.000  C
  C73      1.0000 0.24159  0.50030  0.52226  Biso   1.000  C
  C74      1.0000 0.74159  0.00030  0.52226  Biso   1.000  C
  C75      1.0000 0.24159  0.49970  0.02226  Biso   1.000  C
  C76      1.0000 0.74159  0.99970  0.02226  Biso   1.000  C
  H73      1.0000 0.72060  0.56640  0.48060  Biso   1.000  H
  H74      1.0000 0.22060  0.06640  0.48060  Biso   1.000  H
  H75      1.0000 0.72060  0.43360  0.98060  Biso   1.000  H
  H76      1.0000 0.22060  0.93360  0.98060  Biso   1.000  H
  H77      1.0000 0.27940  0.43360  0.51940  Biso   1.000  H
  H78      1.0000 0.77940  0.93360  0.51940  Biso   1.000  H
  H79      1.0000 0.27940  0.56640  0.01940  Biso   1.000  H
  H80      1.0000 0.77940  0.06640  0.01940  Biso   1.000  H
  C77      1.0000 0.88450  0.41380  0.51746  Biso   1.000  C
  C78      1.0000 0.38450  0.91380  0.51746  Biso   1.000  C
  C79      1.0000 0.88450  0.58620  0.01746  Biso   1.000  C
  C80      1.0000 0.38450  0.08620  0.01746  Biso   1.000  C
  C81      1.0000 0.11550  0.58620  0.48254  Biso   1.000  C
  C82      1.0000 0.61550  0.08620  0.48254  Biso   1.000  C
  C83      1.0000 0.11550  0.41380  0.98254  Biso   1.000  C
  C84      1.0000 0.61550  0.91380  0.98254  Biso   1.000  C
  C85      1.0000 0.74426  0.38430  0.42867  Biso   1.000  C
  C86      1.0000 0.24426  0.88430  0.42867  Biso   1.000  C
  C87      1.0000 0.74426  0.61570  0.92867  Biso   1.000  C
  C88      1.0000 0.24426  0.11570  0.92867  Biso   1.000  C
  C89      1.0000 0.25574  0.61570  0.57133  Biso   1.000  C
  C90      1.0000 0.75574  0.11570  0.57133  Biso   1.000  C
  C91      1.0000 0.25574  0.38430  0.07133  Biso   1.000  C
  C92      1.0000 0.75574  0.88430  0.07133  Biso   1.000  C
  H81      1.0000 0.69660  0.37170  0.39820  Biso   1.000  H
  H82      1.0000 0.19660  0.87170  0.39820  Biso   1.000  H
  H83      1.0000 0.69660  0.62830  0.89820  Biso   1.000  H
  H84      1.0000 0.19660  0.12830  0.89820  Biso   1.000  H
  H85      1.0000 0.30340  0.62830  0.60180  Biso   1.000  H
  H86      1.0000 0.80340  0.12830  0.60180  Biso   1.000  H
  H87      1.0000 0.30340  0.37170  0.10180  Biso   1.000  H
  H88      1.0000 0.80340  0.87170  0.10180  Biso   1.000  H
  C93      1.0000 0.88899  0.04090  0.32279  Biso   1.000  C
  C94      1.0000 0.38899  0.54090  0.32279  Biso   1.000  C
  C95      1.0000 0.88899  0.95910  0.82279  Biso   1.000  C
  C96      1.0000 0.38899  0.45910  0.82279  Biso   1.000  C
  C97      1.0000 0.11101  0.95910  0.67721  Biso   1.000  C
  C98      1.0000 0.61101  0.45910  0.67721  Biso   1.000  C
  C99      1.0000 0.11101  0.04090  0.17721  Biso   1.000  C
  C100     1.0000 0.61101  0.54090  0.17721  Biso   1.000  C
  C101     1.0000 0.86918  0.96510  0.25699  Biso   1.000  C
  C102     1.0000 0.36918  0.46510  0.25699  Biso   1.000  C
  C103     1.0000 0.86918  0.03490  0.75699  Biso   1.000  C
  C104     1.0000 0.36918  0.53490  0.75699  Biso   1.000  C
  C105     1.0000 0.13082  0.03490  0.74301  Biso   1.000  C
  C106     1.0000 0.63082  0.53490  0.74301  Biso   1.000  C
  C107     1.0000 0.13082  0.96510  0.24301  Biso   1.000  C
  C108     1.0000 0.63082  0.46510  0.24301  Biso   1.000  C
  H89      1.0000 0.85340  0.04700  0.22250  Biso   1.000  H
  H90      1.0000 0.35340  0.54700  0.22250  Biso   1.000  H
  H91      1.0000 0.85340  0.95300  0.72250  Biso   1.000  H
  H92      1.0000 0.35340  0.45300  0.72250  Biso   1.000  H
  H93      1.0000 0.14660  0.95300  0.77750  Biso   1.000  H
  H94      1.0000 0.64660  0.45300  0.77750  Biso   1.000  H
  H95      1.0000 0.14660  0.04700  0.27750  Biso   1.000  H
  H96      1.0000 0.64660  0.54700  0.27750  Biso   1.000  H
  H97      1.0000 0.82820  0.89130  0.25090  Biso   1.000  H
  H98      1.0000 0.32820  0.39130  0.25090  Biso   1.000  H
  H99      1.0000 0.82820  0.10870  0.75090  Biso   1.000  H
  H100     1.0000 0.32820  0.60870  0.75090  Biso   1.000  H
  H101     1.0000 0.17180  0.10870  0.74910  Biso   1.000  H
  H102     1.0000 0.67180  0.60870  0.74910  Biso   1.000  H
  H103     1.0000 0.17180  0.89130  0.24910  Biso   1.000  H
  H104     1.0000 0.67180  0.39130  0.24910  Biso   1.000  H
  B1       1.0000 0.20113  0.61680  0.82141  Biso   1.000  B
  B2       1.0000 0.70113  0.11680  0.82141  Biso   1.000  B
  B3       1.0000 0.20113  0.38320  0.32141  Biso   1.000  B
  B4       1.0000 0.70113  0.88320  0.32141  Biso   1.000  B
  B5       1.0000 0.79887  0.38320  0.17859  Biso   1.000  B
  B6       1.0000 0.29887  0.88320  0.17859  Biso   1.000  B
  B7       1.0000 0.79887  0.61680  0.67859  Biso   1.000  B
  B8       1.0000 0.29887  0.11680  0.67859  Biso   1.000  B
  F1       1.0000 0.21406  0.67660  0.76604  Biso   1.000  F
  F2       1.0000 0.71406  0.17660  0.76604  Biso   1.000  F
  F3       1.0000 0.21406  0.32340  0.26604  Biso   1.000  F
  F4       1.0000 0.71406  0.82340  0.26604  Biso   1.000  F
  F5       1.0000 0.78594  0.32340  0.23396  Biso   1.000  F
  F6       1.0000 0.28594  0.82340  0.23396  Biso   1.000  F
  F7       1.0000 0.78594  0.67660  0.73396  Biso   1.000  F
  F8       1.0000 0.28594  0.17660  0.73396  Biso   1.000  F
  F9       1.0000 0.13916  0.68850  0.82495  Biso   1.000  F
  F10      1.0000 0.63916  0.18850  0.82495  Biso   1.000  F
  F11      1.0000 0.13916  0.31150  0.32495  Biso   1.000  F
  F12      1.0000 0.63916  0.81150  0.32495  Biso   1.000  F
  F13      1.0000 0.86084  0.31150  0.17505  Biso   1.000  F
  F14      1.0000 0.36084  0.81150  0.17505  Biso   1.000  F
  F15      1.0000 0.86084  0.68850  0.67505  Biso   1.000  F
  F16      1.0000 0.36084  0.18850  0.67505  Biso   1.000  F
  F17      1.0000 0.18865  0.45580  0.81566  Biso   1.000  F
  F18      1.0000 0.68865  0.95580  0.81566  Biso   1.000  F
  F19      1.0000 0.18865  0.54420  0.31566  Biso   1.000  F
  F20      1.0000 0.68865  0.04420  0.31566  Biso   1.000  F
  F21      1.0000 0.81135  0.54420  0.18434  Biso   1.000  F
  F22      1.0000 0.31135  0.04420  0.18434  Biso   1.000  F
  F23      1.0000 0.81135  0.45580  0.68434  Biso   1.000  F
  F24      1.0000 0.31135  0.95580  0.68434  Biso   1.000  F
  F25      1.0000 0.25974  0.64250  0.87797  Biso   1.000  F
  F26      1.0000 0.75974  0.14250  0.87797  Biso   1.000  F
  F27      1.0000 0.25974  0.35750  0.37797  Biso   1.000  F
  F28      1.0000 0.75974  0.85750  0.37797  Biso   1.000  F
  F29      1.0000 0.74026  0.35750  0.12203  Biso   1.000  F
  F30      1.0000 0.24026  0.85750  0.12203  Biso   1.000  F
  F31      1.0000 0.74026  0.64250  0.62203  Biso   1.000  F
  F32      1.0000 0.24026  0.14250  0.62203  Biso   1.000  F
