data_image0
_cell_length_a       12.129
_cell_length_b       11.5414
_cell_length_c       14.5056
_cell_angle_alpha    90
_cell_angle_beta     109.808
_cell_angle_gamma    90

_symmetry_space_group_name_H-M    "P 1"
_symmetry_int_tables_number       1

loop_
  _symmetry_equiv_pos_as_xyz
  'x, y, z'

loop_
  _atom_site_label
  _atom_site_occupancy
  _atom_site_fract_x
  _atom_site_fract_y
  _atom_site_fract_z
  _atom_site_thermal_displace_type
  _atom_site_B_iso_or_equiv
  _atom_site_type_symbol
  Cu1      1.0000 0.29299  0.45362  0.52531  Biso   1.000  Cu
  Cu2      1.0000 0.70701  0.95362  0.97469  Biso   1.000  Cu
  Cu3      1.0000 0.70701  0.54638  0.47469  Biso   1.000  Cu
  Cu4      1.0000 0.29299  0.04638  0.02531  Biso   1.000  Cu
  O1       1.0000 0.40527  0.56384  0.61366  Biso   1.000  O
  O2       1.0000 0.59473  0.06384  0.88634  Biso   1.000  O
  O3       1.0000 0.59473  0.43616  0.38634  Biso   1.000  O
  O4       1.0000 0.40527  0.93616  0.11366  Biso   1.000  O
  O5       1.0000 0.30105  0.53988  0.71228  Biso   1.000  O
  O6       1.0000 0.69895  0.03988  0.78772  Biso   1.000  O
  O7       1.0000 0.69895  0.46012  0.28772  Biso   1.000  O
  O8       1.0000 0.30105  0.96012  0.21228  Biso   1.000  O
  O9       1.0000 0.37600  0.47221  0.41376  Biso   1.000  O
  O10      1.0000 0.62400  0.97221  0.08624  Biso   1.000  O
  O11      1.0000 0.62400  0.52779  0.58624  Biso   1.000  O
  O12      1.0000 0.37600  0.02779  0.91376  Biso   1.000  O
  N1       1.0000 0.17501  0.57791  0.46578  Biso   1.000  N
  N2       1.0000 0.82499  0.07791  0.03422  Biso   1.000  N
  N3       1.0000 0.82499  0.42209  0.53422  Biso   1.000  N
  N4       1.0000 0.17501  0.92209  0.96578  Biso   1.000  N
  N5       1.0000 0.15786  0.35376  0.44842  Biso   1.000  N
  N6       1.0000 0.84214  0.85376  0.05158  Biso   1.000  N
  N7       1.0000 0.84214  0.64624  0.55158  Biso   1.000  N
  N8       1.0000 0.15786  0.14624  0.94842  Biso   1.000  N
  N9       1.0000 0.61073  0.82308  0.89593  Biso   1.000  N
  N10      1.0000 0.38927  0.32308  0.60407  Biso   1.000  N
  N11      1.0000 0.38927  0.17692  0.10407  Biso   1.000  N
  N12      1.0000 0.61073  0.67692  0.39593  Biso   1.000  N
  C1       1.0000 0.38328  0.58409  0.69270  Biso   1.000  C
  C2       1.0000 0.61672  0.08409  0.80730  Biso   1.000  C
  C3       1.0000 0.61672  0.41591  0.30730  Biso   1.000  C
  C4       1.0000 0.38328  0.91591  0.19270  Biso   1.000  C
  C5       1.0000 0.46406  0.66777  0.76394  Biso   1.000  C
  C6       1.0000 0.53594  0.16777  0.73606  Biso   1.000  C
  C7       1.0000 0.53594  0.33223  0.23606  Biso   1.000  C
  C8       1.0000 0.46406  0.83223  0.26394  Biso   1.000  C
  C9       1.0000 0.44137  0.70262  0.84685  Biso   1.000  C
  C10      1.0000 0.55863  0.20262  0.65315  Biso   1.000  C
  C11      1.0000 0.55863  0.29738  0.15315  Biso   1.000  C
  C12      1.0000 0.44137  0.79738  0.34685  Biso   1.000  C
  H1       1.0000 0.37630  0.67410  0.85960  Biso   1.000  H
  H2       1.0000 0.62370  0.17410  0.64040  Biso   1.000  H
  H3       1.0000 0.62370  0.32590  0.14040  Biso   1.000  H
  H4       1.0000 0.37630  0.82590  0.35960  Biso   1.000  H
  C13      1.0000 0.51564  0.77969  0.91043  Biso   1.000  C
  C14      1.0000 0.48436  0.27969  0.58957  Biso   1.000  C
  C15      1.0000 0.48436  0.22031  0.08957  Biso   1.000  C
  C16      1.0000 0.51564  0.72031  0.41043  Biso   1.000  C
  H5       1.0000 0.49910  0.80260  0.96580  Biso   1.000  H
  H6       1.0000 0.50090  0.30260  0.53420  Biso   1.000  H
  H7       1.0000 0.50090  0.19740  0.03420  Biso   1.000  H
  H8       1.0000 0.49910  0.69740  0.46580  Biso   1.000  H
  C17      1.0000 0.63354  0.78757  0.81619  Biso   1.000  C
  C18      1.0000 0.36646  0.28757  0.68381  Biso   1.000  C
  C19      1.0000 0.36646  0.21243  0.18381  Biso   1.000  C
  C20      1.0000 0.63354  0.71243  0.31619  Biso   1.000  C
  H9       1.0000 0.70050  0.81540  0.80610  Biso   1.000  H
  H10      1.0000 0.29950  0.31540  0.69390  Biso   1.000  H
  H11      1.0000 0.29950  0.18460  0.19390  Biso   1.000  H
  H12      1.0000 0.70050  0.68460  0.30610  Biso   1.000  H
  C21      1.0000 0.56277  0.71213  0.74883  Biso   1.000  C
  C22      1.0000 0.43723  0.21213  0.75117  Biso   1.000  C
  C23      1.0000 0.43723  0.28787  0.25117  Biso   1.000  C
  C24      1.0000 0.56277  0.78787  0.24883  Biso   1.000  C
  H13      1.0000 0.58080  0.69100  0.69370  Biso   1.000  H
  H14      1.0000 0.41920  0.19100  0.80630  Biso   1.000  H
  H15      1.0000 0.41920  0.30900  0.30630  Biso   1.000  H
  H16      1.0000 0.58080  0.80900  0.19370  Biso   1.000  H
  C25      1.0000 0.15789  0.23791  0.44152  Biso   1.000  C
  C26      1.0000 0.84211  0.73791  0.05848  Biso   1.000  C
  C27      1.0000 0.84211  0.76209  0.55848  Biso   1.000  C
  C28      1.0000 0.15789  0.26209  0.94152  Biso   1.000  C
  H17      1.0000 0.22620  0.19740  0.47450  Biso   1.000  H
  H18      1.0000 0.77380  0.69740  0.02550  Biso   1.000  H
  H19      1.0000 0.77380  0.80260  0.52550  Biso   1.000  H
  H20      1.0000 0.22620  0.30260  0.97450  Biso   1.000  H
  C29      1.0000 0.05940  0.17690  0.38675  Biso   1.000  C
  C30      1.0000 0.94060  0.67690  0.11325  Biso   1.000  C
  C31      1.0000 0.94060  0.82310  0.61325  Biso   1.000  C
  C32      1.0000 0.05940  0.32310  0.88675  Biso   1.000  C
  H21      1.0000 0.06140  0.09650  0.38350  Biso   1.000  H
  H22      1.0000 0.93860  0.59650  0.11650  Biso   1.000  H
  H23      1.0000 0.93860  0.90350  0.61650  Biso   1.000  H
  H24      1.0000 0.06140  0.40350  0.88350  Biso   1.000  H
  C33      1.0000 0.95980  0.23560  0.33772  Biso   1.000  C
  C34      1.0000 0.04020  0.73560  0.16228  Biso   1.000  C
  C35      1.0000 0.04020  0.76440  0.66228  Biso   1.000  C
  C36      1.0000 0.95980  0.26440  0.83772  Biso   1.000  C
  H25      1.0000 0.89300  0.19570  0.30040  Biso   1.000  H
  H26      1.0000 0.10700  0.69570  0.19960  Biso   1.000  H
  H27      1.0000 0.10700  0.80430  0.69960  Biso   1.000  H
  H28      1.0000 0.89300  0.30430  0.80040  Biso   1.000  H
  C37      1.0000 0.95852  0.35500  0.34363  Biso   1.000  C
  C38      1.0000 0.04148  0.85500  0.15637  Biso   1.000  C
  C39      1.0000 0.04148  0.64500  0.65637  Biso   1.000  C
  C40      1.0000 0.95852  0.14500  0.84363  Biso   1.000  C
  H29      1.0000 0.89100  0.39640  0.31040  Biso   1.000  H
  H30      1.0000 0.10900  0.89640  0.18960  Biso   1.000  H
  H31      1.0000 0.10900  0.60360  0.68960  Biso   1.000  H
  H32      1.0000 0.89100  0.10360  0.81040  Biso   1.000  H
  C41      1.0000 0.05932  0.41198  0.39973  Biso   1.000  C
  C42      1.0000 0.94068  0.91198  0.10027  Biso   1.000  C
  C43      1.0000 0.94068  0.58802  0.60027  Biso   1.000  C
  C44      1.0000 0.05932  0.08802  0.89973  Biso   1.000  C
  C45      1.0000 0.06848  0.53917  0.41090  Biso   1.000  C
  C46      1.0000 0.93152  0.03917  0.08910  Biso   1.000  C
  C47      1.0000 0.93152  0.46083  0.58910  Biso   1.000  C
  C48      1.0000 0.06848  0.96083  0.91090  Biso   1.000  C
  C49      1.0000 0.97675  0.61500  0.36940  Biso   1.000  C
  C50      1.0000 0.02325  0.11500  0.13060  Biso   1.000  C
  C51      1.0000 0.02325  0.38500  0.63060  Biso   1.000  C
  C52      1.0000 0.97675  0.88500  0.86940  Biso   1.000  C
  H33      1.0000 0.90320  0.58690  0.33220  Biso   1.000  H
  H34      1.0000 0.09680  0.08690  0.16780  Biso   1.000  H
  H35      1.0000 0.09680  0.41310  0.66780  Biso   1.000  H
  H36      1.0000 0.90320  0.91310  0.83220  Biso   1.000  H
  C53      1.0000 0.99510  0.73230  0.38359  Biso   1.000  C
  C54      1.0000 0.00490  0.23230  0.11641  Biso   1.000  C
  C55      1.0000 0.00490  0.26770  0.61641  Biso   1.000  C
  C56      1.0000 0.99510  0.76770  0.88359  Biso   1.000  C
  H37      1.0000 0.93420  0.78440  0.35640  Biso   1.000  H
  H38      1.0000 0.06580  0.28440  0.14360  Biso   1.000  H
  H39      1.0000 0.06580  0.21560  0.64360  Biso   1.000  H
  H40      1.0000 0.93420  0.71560  0.85640  Biso   1.000  H
  C57      1.0000 0.10470  0.77130  0.43859  Biso   1.000  C
  C58      1.0000 0.89530  0.27130  0.06141  Biso   1.000  C
  C59      1.0000 0.89530  0.22870  0.56141  Biso   1.000  C
  C60      1.0000 0.10470  0.72870  0.93859  Biso   1.000  C
  H41      1.0000 0.11930  0.85020  0.44870  Biso   1.000  H
  H42      1.0000 0.88070  0.35020  0.05130  Biso   1.000  H
  H43      1.0000 0.88070  0.14980  0.55130  Biso   1.000  H
  H44      1.0000 0.11930  0.64980  0.94870  Biso   1.000  H
  C61      1.0000 0.19290  0.69175  0.47851  Biso   1.000  C
  C62      1.0000 0.80710  0.19175  0.02149  Biso   1.000  C
  C63      1.0000 0.80710  0.30825  0.52149  Biso   1.000  C
  C64      1.0000 0.19290  0.80825  0.97851  Biso   1.000  C
  H45      1.0000 0.26720  0.71830  0.51550  Biso   1.000  H
  H46      1.0000 0.73280  0.21830  0.98450  Biso   1.000  H
  H47      1.0000 0.73280  0.28170  0.48450  Biso   1.000  H
  H48      1.0000 0.26720  0.78170  0.01550  Biso   1.000  H
  O13      1.0000 0.17850  0.46110  0.23608  Biso   1.000  O
  O14      1.0000 0.82150  0.96110  0.26392  Biso   1.000  O
  O15      1.0000 0.82150  0.53890  0.76392  Biso   1.000  O
  O16      1.0000 0.17850  0.03890  0.73608  Biso   1.000  O
  O17      1.0000 0.17530  0.47280  0.08861  Biso   1.000  O
  O18      1.0000 0.82470  0.97280  0.41139  Biso   1.000  O
  O19      1.0000 0.82470  0.52720  0.91139  Biso   1.000  O
  O20      1.0000 0.17530  0.02720  0.58861  Biso   1.000  O
  O21      1.0000 0.30720  0.55940  0.20337  Biso   1.000  O
  O22      1.0000 0.69280  0.05940  0.29663  Biso   1.000  O
  O23      1.0000 0.69280  0.44060  0.79663  Biso   1.000  O
  O24      1.0000 0.30720  0.94060  0.70337  Biso   1.000  O
  N13      1.0000 0.21926  0.49654  0.17516  Biso   1.000  N
  N14      1.0000 0.78074  0.99654  0.32484  Biso   1.000  N
  N15      1.0000 0.78074  0.50346  0.82484  Biso   1.000  N
  N16      1.0000 0.21926  0.00346  0.67516  Biso   1.000  N
  O25      1.0000 0.35690  0.42450  0.90053  Biso   1.000  O
  O26      1.0000 0.64310  0.92450  0.59947  Biso   1.000  O
  O27      1.0000 0.64310  0.57550  0.09947  Biso   1.000  O
  O28      1.0000 0.35690  0.07550  0.40053  Biso   1.000  O
  O29      1.0000 0.39820  0.59710  0.04685  Biso   1.000  O
  O30      1.0000 0.60180  0.09710  0.45315  Biso   1.000  O
  O31      1.0000 0.60180  0.40290  0.95315  Biso   1.000  O
  O32      1.0000 0.39820  0.90290  0.54685  Biso   1.000  O
  H49      1.0000 0.33530  0.46140  0.84320  Biso   1.000  H
  H50      1.0000 0.66470  0.96140  0.65680  Biso   1.000  H
  H51      1.0000 0.66470  0.53860  0.15680  Biso   1.000  H
  H52      1.0000 0.33530  0.03860  0.34320  Biso   1.000  H
  H53      1.0000 0.42960  0.41670  0.91420  Biso   1.000  H
  H54      1.0000 0.57040  0.91670  0.58580  Biso   1.000  H
  H55      1.0000 0.57040  0.58330  0.08580  Biso   1.000  H
  H56      1.0000 0.42960  0.08330  0.41420  Biso   1.000  H
  H57      1.0000 0.38400  0.59330  0.09830  Biso   1.000  H
  H58      1.0000 0.61600  0.09330  0.40170  Biso   1.000  H
  H59      1.0000 0.61600  0.40670  0.90170  Biso   1.000  H
  H60      1.0000 0.38400  0.90670  0.59830  Biso   1.000  H
  H61      1.0000 0.35280  0.54570  0.00670  Biso   1.000  H
  H62      1.0000 0.64720  0.04570  0.49330  Biso   1.000  H
  H63      1.0000 0.64720  0.45430  0.99330  Biso   1.000  H
  H64      1.0000 0.35280  0.95430  0.50670  Biso   1.000  H
  H65      1.0000 0.44280  0.47410  0.41070  Biso   1.000  H
  H66      1.0000 0.55720  0.97410  0.08930  Biso   1.000  H
  H67      1.0000 0.55720  0.52590  0.58930  Biso   1.000  H
  H68      1.0000 0.44280  0.02590  0.91070  Biso   1.000  H
  H69      1.0000 0.33220  0.49090  0.35710  Biso   1.000  H
  H70      1.0000 0.66780  0.99090  0.14290  Biso   1.000  H
  H71      1.0000 0.66780  0.50910  0.64290  Biso   1.000  H
  H72      1.0000 0.33220  0.00910  0.85710  Biso   1.000  H
