data_image0
_cell_length_a       8.823
_cell_length_b       11.962
_cell_length_c       14.22
_cell_angle_alpha    90
_cell_angle_beta     95.73
_cell_angle_gamma    90

_symmetry_space_group_name_H-M    "P 1"
_symmetry_int_tables_number       1

loop_
  _symmetry_equiv_pos_as_xyz
  'x, y, z'

loop_
  _atom_site_label
  _atom_site_occupancy
  _atom_site_fract_x
  _atom_site_fract_y
  _atom_site_fract_z
  _atom_site_thermal_displace_type
  _atom_site_B_iso_or_equiv
  _atom_site_type_symbol
  Cu1      1.0000 0.13384  0.25000  0.26962  Biso   1.000  Cu
  Cu2      1.0000 0.86616  0.75000  0.73038  Biso   1.000  Cu
  O1       1.0000 0.95480  0.25000  0.13860  Biso   1.000  O
  O2       1.0000 0.04520  0.75000  0.86140  Biso   1.000  O
  C1       1.0000 0.82390  0.31700  0.11900  Biso   1.000  C
  C2       1.0000 0.82390  0.18300  0.11900  Biso   1.000  C
  C3       1.0000 0.17610  0.68300  0.88100  Biso   1.000  C
  C4       1.0000 0.17610  0.81700  0.88100  Biso   1.000  C
  C5       1.0000 0.68400  0.25000  0.13840  Biso   1.000  C
  C6       1.0000 0.31600  0.75000  0.86160  Biso   1.000  C
  N1       1.0000 0.00540  0.14140  0.33330  Biso   1.000  N
  N2       1.0000 0.00540  0.35860  0.33330  Biso   1.000  N
  N3       1.0000 0.99460  0.85860  0.66670  Biso   1.000  N
  N4       1.0000 0.99460  0.64140  0.66670  Biso   1.000  N
  N5       1.0000 0.27090  0.13090  0.22530  Biso   1.000  N
  N6       1.0000 0.27090  0.36910  0.22530  Biso   1.000  N
  N7       1.0000 0.72910  0.86910  0.77470  Biso   1.000  N
  N8       1.0000 0.72910  0.63090  0.77470  Biso   1.000  N
  C7       1.0000 0.53930  0.85650  0.14460  Biso   1.000  C
  C8       1.0000 0.53930  0.64350  0.14460  Biso   1.000  C
  C9       1.0000 0.46070  0.14350  0.85540  Biso   1.000  C
  C10      1.0000 0.46070  0.35650  0.85540  Biso   1.000  C
  H1       1.0000 0.63980  0.85700  0.17910  Biso   1.000  H
  H2       1.0000 0.63980  0.64300  0.17910  Biso   1.000  H
  H3       1.0000 0.36020  0.14300  0.82090  Biso   1.000  H
  H4       1.0000 0.36020  0.35700  0.82090  Biso   1.000  H
  H5       1.0000 0.55160  0.85890  0.07760  Biso   1.000  H
  H6       1.0000 0.55160  0.64110  0.07760  Biso   1.000  H
  H7       1.0000 0.44840  0.14110  0.92240  Biso   1.000  H
  H8       1.0000 0.44840  0.35890  0.92240  Biso   1.000  H
  C11      1.0000 0.45670  0.75000  0.16690  Biso   1.000  C
  C12      1.0000 0.54330  0.25000  0.83310  Biso   1.000  C
  H9       1.0000 0.44150  0.75000  0.23360  Biso   1.000  H
  H10      1.0000 0.55850  0.25000  0.76640  Biso   1.000  H
  H11      1.0000 0.35700  0.75000  0.13140  Biso   1.000  H
  H12      1.0000 0.64300  0.25000  0.86860  Biso   1.000  H
  C13      1.0000 0.00330  0.02820  0.32220  Biso   1.000  C
  C14      1.0000 0.00330  0.47180  0.32220  Biso   1.000  C
  C15      1.0000 0.99670  0.97180  0.67780  Biso   1.000  C
  C16      1.0000 0.99670  0.52820  0.67780  Biso   1.000  C
  H13      1.0000 0.06790  0.99490  0.28260  Biso   1.000  H
  H14      1.0000 0.06790  0.50510  0.28260  Biso   1.000  H
  H15      1.0000 0.93210  0.00510  0.71740  Biso   1.000  H
  H16      1.0000 0.93210  0.49490  0.71740  Biso   1.000  H
  C17      1.0000 0.90650  0.96270  0.36890  Biso   1.000  C
  C18      1.0000 0.90650  0.53730  0.36890  Biso   1.000  C
  C19      1.0000 0.09350  0.03730  0.63110  Biso   1.000  C
  C20      1.0000 0.09350  0.46270  0.63110  Biso   1.000  C
  H17      1.0000 0.90450  0.88580  0.35930  Biso   1.000  H
  H18      1.0000 0.90450  0.61420  0.35930  Biso   1.000  H
  H19      1.0000 0.09550  0.11420  0.64070  Biso   1.000  H
  H20      1.0000 0.09550  0.38580  0.64070  Biso   1.000  H
  C21      1.0000 0.81440  0.00920  0.42880  Biso   1.000  C
  C22      1.0000 0.81440  0.49080  0.42880  Biso   1.000  C
  C23      1.0000 0.18560  0.99080  0.57120  Biso   1.000  C
  C24      1.0000 0.18560  0.50920  0.57120  Biso   1.000  C
  H21      1.0000 0.75230  0.96470  0.46250  Biso   1.000  H
  H22      1.0000 0.75230  0.53530  0.46250  Biso   1.000  H
  H23      1.0000 0.24770  0.03530  0.53750  Biso   1.000  H
  H24      1.0000 0.24770  0.46470  0.53750  Biso   1.000  H
  C25      1.0000 0.81440  0.12800  0.43920  Biso   1.000  C
  C26      1.0000 0.81440  0.37200  0.43920  Biso   1.000  C
  C27      1.0000 0.18560  0.87200  0.56080  Biso   1.000  C
  C28      1.0000 0.18560  0.62800  0.56080  Biso   1.000  C
  H25      1.0000 0.74970  0.16280  0.47800  Biso   1.000  H
  H26      1.0000 0.74970  0.33720  0.47800  Biso   1.000  H
  H27      1.0000 0.25030  0.83720  0.52200  Biso   1.000  H
  H28      1.0000 0.25030  0.66280  0.52200  Biso   1.000  H
  C29      1.0000 0.91140  0.18880  0.39100  Biso   1.000  C
  C30      1.0000 0.91140  0.31120  0.39100  Biso   1.000  C
  C31      1.0000 0.08860  0.81120  0.60900  Biso   1.000  C
  C32      1.0000 0.08860  0.68880  0.60900  Biso   1.000  C
  C33      1.0000 0.36880  0.07890  0.28680  Biso   1.000  C
  C34      1.0000 0.36880  0.42110  0.28680  Biso   1.000  C
  C35      1.0000 0.63120  0.92110  0.71320  Biso   1.000  C
  C36      1.0000 0.63120  0.57890  0.71320  Biso   1.000  C
  H29      1.0000 0.37720  0.10310  0.34930  Biso   1.000  H
  H30      1.0000 0.37720  0.39690  0.34930  Biso   1.000  H
  H31      1.0000 0.62280  0.89690  0.65070  Biso   1.000  H
  H32      1.0000 0.62280  0.60310  0.65070  Biso   1.000  H
  C37      1.0000 0.45890  0.99120  0.26400  Biso   1.000  C
  C38      1.0000 0.45890  0.50880  0.26400  Biso   1.000  C
  C39      1.0000 0.54110  0.00880  0.73600  Biso   1.000  C
  C40      1.0000 0.54110  0.49120  0.73600  Biso   1.000  C
  H33      1.0000 0.52340  0.95550  0.31030  Biso   1.000  H
  H34      1.0000 0.52340  0.54450  0.31030  Biso   1.000  H
  H35      1.0000 0.47660  0.04450  0.68970  Biso   1.000  H
  H36      1.0000 0.47660  0.45550  0.68970  Biso   1.000  H
  C41      1.0000 0.45160  0.95750  0.17130  Biso   1.000  C
  C42      1.0000 0.45160  0.54250  0.17130  Biso   1.000  C
  C43      1.0000 0.54840  0.04250  0.82870  Biso   1.000  C
  C44      1.0000 0.54840  0.45750  0.82870  Biso   1.000  C
  C45      1.0000 0.35190  0.01520  0.10650  Biso   1.000  C
  C46      1.0000 0.35190  0.48480  0.10650  Biso   1.000  C
  C47      1.0000 0.64810  0.98480  0.89350  Biso   1.000  C
  C48      1.0000 0.64810  0.51520  0.89350  Biso   1.000  C
  H37      1.0000 0.34330  0.99550  0.04290  Biso   1.000  H
  H38      1.0000 0.34330  0.50450  0.04290  Biso   1.000  H
  H39      1.0000 0.65670  0.00450  0.95710  Biso   1.000  H
  H40      1.0000 0.65670  0.49550  0.95710  Biso   1.000  H
  C49      1.0000 0.26920  0.09850  0.13610  Biso   1.000  C
  C50      1.0000 0.26920  0.40150  0.13610  Biso   1.000  C
  C51      1.0000 0.73080  0.90150  0.86390  Biso   1.000  C
  C52      1.0000 0.73080  0.59850  0.86390  Biso   1.000  C
  H41      1.0000 0.20560  0.13690  0.09100  Biso   1.000  H
  H42      1.0000 0.20560  0.36310  0.09100  Biso   1.000  H
  H43      1.0000 0.79440  0.86310  0.90900  Biso   1.000  H
  H44      1.0000 0.79440  0.63690  0.90900  Biso   1.000  H
  B1       1.0000 0.40130  0.25000  0.52900  Biso   1.000  B
  B2       1.0000 0.59870  0.75000  0.47100  Biso   1.000  B
  F1       1.0000 0.48550  0.15540  0.52200  Biso   1.000  F
  F2       1.0000 0.48550  0.34460  0.52200  Biso   1.000  F
  F3       1.0000 0.51450  0.84460  0.47800  Biso   1.000  F
  F4       1.0000 0.51450  0.65540  0.47800  Biso   1.000  F
  F5       1.0000 0.28460  0.25000  0.45780  Biso   1.000  F
  F6       1.0000 0.71540  0.75000  0.54220  Biso   1.000  F
  F7       1.0000 0.33940  0.25000  0.61320  Biso   1.000  F
  F8       1.0000 0.66060  0.75000  0.38680  Biso   1.000  F
  B3       1.0000 0.97640  0.75000  0.12880  Biso   1.000  B
  B4       1.0000 0.02360  0.25000  0.87120  Biso   1.000  B
  F9       1.0000 0.85700  0.75000  0.05980  Biso   1.000  F
  F10      1.0000 0.14300  0.25000  0.94020  Biso   1.000  F
  F11      1.0000 0.02900  0.64330  0.13950  Biso   1.000  F
  F12      1.0000 0.02900  0.85670  0.13950  Biso   1.000  F
  F13      1.0000 0.97100  0.35670  0.86050  Biso   1.000  F
  F14      1.0000 0.97100  0.14330  0.86050  Biso   1.000  F
  F15      1.0000 0.92700  0.78480  0.21110  Biso   1.000  F
  F16      1.0000 0.92700  0.71520  0.21110  Biso   1.000  F
  F17      1.0000 0.07300  0.21520  0.78890  Biso   1.000  F
  F18      1.0000 0.07300  0.28480  0.78890  Biso   1.000  F
  F19      1.0000 0.08710  0.81750  0.10220  Biso   1.000  F
  F20      1.0000 0.08710  0.68250  0.10220  Biso   1.000  F
  F21      1.0000 0.91290  0.18250  0.89780  Biso   1.000  F
  F22      1.0000 0.91290  0.31750  0.89780  Biso   1.000  F
