data_image0
_cell_length_a       8.436
_cell_length_b       17.1
_cell_length_c       32.766
_cell_angle_alpha    90
_cell_angle_beta     90
_cell_angle_gamma    90

_symmetry_space_group_name_H-M    "P 1"
_symmetry_int_tables_number       1

loop_
  _symmetry_equiv_pos_as_xyz
  'x, y, z'

loop_
  _atom_site_label
  _atom_site_occupancy
  _atom_site_fract_x
  _atom_site_fract_y
  _atom_site_fract_z
  _atom_site_thermal_displace_type
  _atom_site_B_iso_or_equiv
  _atom_site_type_symbol
  Cu1      1.0000 0.55740  0.04454  0.38533  Biso   1.000  Cu
  Cu2      1.0000 0.05740  0.54454  0.11467  Biso   1.000  Cu
  Cu3      1.0000 0.44260  0.04454  0.88533  Biso   1.000  Cu
  Cu4      1.0000 0.05740  0.45546  0.38533  Biso   1.000  Cu
  Cu5      1.0000 0.44260  0.95546  0.61467  Biso   1.000  Cu
  Cu6      1.0000 0.94260  0.45546  0.88533  Biso   1.000  Cu
  Cu7      1.0000 0.55740  0.95546  0.11467  Biso   1.000  Cu
  Cu8      1.0000 0.94260  0.54454  0.61467  Biso   1.000  Cu
  N1       1.0000 0.67960  0.99210  0.42920  Biso   1.000  N
  N2       1.0000 0.17960  0.49210  0.07080  Biso   1.000  N
  N3       1.0000 0.32040  0.99210  0.92920  Biso   1.000  N
  N4       1.0000 0.17960  0.50790  0.42920  Biso   1.000  N
  N5       1.0000 0.32040  0.00790  0.57080  Biso   1.000  N
  N6       1.0000 0.82040  0.50790  0.92920  Biso   1.000  N
  N7       1.0000 0.67960  0.00790  0.07080  Biso   1.000  N
  N8       1.0000 0.82040  0.49210  0.57080  Biso   1.000  N
  C1       1.0000 0.77200  0.92820  0.42570  Biso   1.000  C
  C2       1.0000 0.27200  0.42820  0.07430  Biso   1.000  C
  C3       1.0000 0.22800  0.92820  0.92570  Biso   1.000  C
  C4       1.0000 0.27200  0.57180  0.42570  Biso   1.000  C
  C5       1.0000 0.22800  0.07180  0.57430  Biso   1.000  C
  C6       1.0000 0.72800  0.57180  0.92570  Biso   1.000  C
  C7       1.0000 0.77200  0.07180  0.07430  Biso   1.000  C
  C8       1.0000 0.72800  0.42820  0.57430  Biso   1.000  C
  H1       1.0000 0.77900  0.90170  0.40100  Biso   1.000  H
  H2       1.0000 0.27900  0.40170  0.09900  Biso   1.000  H
  H3       1.0000 0.22100  0.90170  0.90100  Biso   1.000  H
  H4       1.0000 0.27900  0.59830  0.40100  Biso   1.000  H
  H5       1.0000 0.22100  0.09830  0.59900  Biso   1.000  H
  H6       1.0000 0.72100  0.59830  0.90100  Biso   1.000  H
  H7       1.0000 0.77900  0.09830  0.09900  Biso   1.000  H
  H8       1.0000 0.72100  0.40170  0.59900  Biso   1.000  H
  C9       1.0000 0.85800  0.90210  0.45960  Biso   1.000  C
  C10      1.0000 0.35800  0.40210  0.04040  Biso   1.000  C
  C11      1.0000 0.14200  0.90210  0.95960  Biso   1.000  C
  C12      1.0000 0.35800  0.59790  0.45960  Biso   1.000  C
  C13      1.0000 0.14200  0.09790  0.54040  Biso   1.000  C
  C14      1.0000 0.64200  0.59790  0.95960  Biso   1.000  C
  C15      1.0000 0.85800  0.09790  0.04040  Biso   1.000  C
  C16      1.0000 0.64200  0.40210  0.54040  Biso   1.000  C
  H9       1.0000 0.92310  0.85910  0.45540  Biso   1.000  H
  H10      1.0000 0.42310  0.35910  0.04460  Biso   1.000  H
  H11      1.0000 0.07690  0.85910  0.95540  Biso   1.000  H
  H12      1.0000 0.42310  0.64090  0.45540  Biso   1.000  H
  H13      1.0000 0.07690  0.14090  0.54460  Biso   1.000  H
  H14      1.0000 0.57690  0.64090  0.95540  Biso   1.000  H
  H15      1.0000 0.92310  0.14090  0.04460  Biso   1.000  H
  H16      1.0000 0.57690  0.35910  0.54460  Biso   1.000  H
  C17      1.0000 0.85700  0.92960  0.49430  Biso   1.000  C
  C18      1.0000 0.35700  0.42960  0.00570  Biso   1.000  C
  C19      1.0000 0.14300  0.92960  0.99430  Biso   1.000  C
  C20      1.0000 0.35700  0.57040  0.49430  Biso   1.000  C
  C21      1.0000 0.14300  0.07040  0.50570  Biso   1.000  C
  C22      1.0000 0.64300  0.57040  0.99430  Biso   1.000  C
  C23      1.0000 0.85700  0.07040  0.00570  Biso   1.000  C
  C24      1.0000 0.64300  0.42960  0.50570  Biso   1.000  C
  H17      1.0000 0.91270  0.90820  0.51600  Biso   1.000  H
  H18      1.0000 0.41270  0.40820  0.98400  Biso   1.000  H
  H19      1.0000 0.08730  0.90820  0.01600  Biso   1.000  H
  H20      1.0000 0.41270  0.59180  0.51600  Biso   1.000  H
  H21      1.0000 0.08730  0.09180  0.48400  Biso   1.000  H
  H22      1.0000 0.58730  0.59180  0.01600  Biso   1.000  H
  H23      1.0000 0.91270  0.09180  0.98400  Biso   1.000  H
  H24      1.0000 0.58730  0.40820  0.48400  Biso   1.000  H
  C25      1.0000 0.76300  0.99580  0.49740  Biso   1.000  C
  C26      1.0000 0.26300  0.49580  0.00260  Biso   1.000  C
  C27      1.0000 0.23700  0.99580  0.99740  Biso   1.000  C
  C28      1.0000 0.26300  0.50420  0.49740  Biso   1.000  C
  C29      1.0000 0.23700  0.00420  0.50260  Biso   1.000  C
  C30      1.0000 0.73700  0.50420  0.99740  Biso   1.000  C
  C31      1.0000 0.76300  0.00420  0.00260  Biso   1.000  C
  C32      1.0000 0.73700  0.49580  0.50260  Biso   1.000  C
  H25      1.0000 0.75870  0.02070  0.52260  Biso   1.000  H
  H26      1.0000 0.25870  0.52070  0.97740  Biso   1.000  H
  H27      1.0000 0.24130  0.02070  0.02260  Biso   1.000  H
  H28      1.0000 0.25870  0.47930  0.52260  Biso   1.000  H
  H29      1.0000 0.24130  0.97930  0.47740  Biso   1.000  H
  H30      1.0000 0.74130  0.47930  0.02260  Biso   1.000  H
  H31      1.0000 0.75870  0.97930  0.97740  Biso   1.000  H
  H32      1.0000 0.74130  0.52070  0.47740  Biso   1.000  H
  C33      1.0000 0.67810  0.02650  0.46660  Biso   1.000  C
  C34      1.0000 0.17810  0.52650  0.03340  Biso   1.000  C
  C35      1.0000 0.32190  0.02650  0.96660  Biso   1.000  C
  C36      1.0000 0.17810  0.47350  0.46660  Biso   1.000  C
  C37      1.0000 0.32190  0.97350  0.53340  Biso   1.000  C
  C38      1.0000 0.82190  0.47350  0.96660  Biso   1.000  C
  C39      1.0000 0.67810  0.97350  0.03340  Biso   1.000  C
  C40      1.0000 0.82190  0.52650  0.53340  Biso   1.000  C
  C41      1.0000 0.57570  0.09620  0.46710  Biso   1.000  C
  C42      1.0000 0.07570  0.59620  0.03290  Biso   1.000  C
  C43      1.0000 0.42430  0.09620  0.96710  Biso   1.000  C
  C44      1.0000 0.07570  0.40380  0.46710  Biso   1.000  C
  C45      1.0000 0.42430  0.90380  0.53290  Biso   1.000  C
  C46      1.0000 0.92430  0.40380  0.96710  Biso   1.000  C
  C47      1.0000 0.57570  0.90380  0.03290  Biso   1.000  C
  C48      1.0000 0.92430  0.59620  0.53290  Biso   1.000  C
  C49      1.0000 0.55400  0.14130  0.50200  Biso   1.000  C
  C50      1.0000 0.05400  0.64130  0.99800  Biso   1.000  C
  C51      1.0000 0.44600  0.14130  0.00200  Biso   1.000  C
  C52      1.0000 0.05400  0.35870  0.50200  Biso   1.000  C
  C53      1.0000 0.44600  0.85870  0.49800  Biso   1.000  C
  C54      1.0000 0.94600  0.35870  0.00200  Biso   1.000  C
  C55      1.0000 0.55400  0.85870  0.99800  Biso   1.000  C
  C56      1.0000 0.94600  0.64130  0.49800  Biso   1.000  C
  H33      1.0000 0.60870  0.12960  0.52590  Biso   1.000  H
  H34      1.0000 0.10870  0.62960  0.97410  Biso   1.000  H
  H35      1.0000 0.39130  0.12960  0.02590  Biso   1.000  H
  H36      1.0000 0.10870  0.37040  0.52590  Biso   1.000  H
  H37      1.0000 0.39130  0.87040  0.47410  Biso   1.000  H
  H38      1.0000 0.89130  0.37040  0.02590  Biso   1.000  H
  H39      1.0000 0.60870  0.87040  0.97410  Biso   1.000  H
  H40      1.0000 0.89130  0.62960  0.47410  Biso   1.000  H
  C57      1.0000 0.44400  0.20710  0.50050  Biso   1.000  C
  C58      1.0000 0.94400  0.70710  0.99950  Biso   1.000  C
  C59      1.0000 0.55600  0.20710  0.00050  Biso   1.000  C
  C60      1.0000 0.94400  0.29290  0.50050  Biso   1.000  C
  C61      1.0000 0.55600  0.79290  0.49950  Biso   1.000  C
  C62      1.0000 0.05600  0.29290  0.00050  Biso   1.000  C
  C63      1.0000 0.44400  0.79290  0.99950  Biso   1.000  C
  C64      1.0000 0.05600  0.70710  0.49950  Biso   1.000  C
  H41      1.0000 0.41980  0.23620  0.52370  Biso   1.000  H
  H42      1.0000 0.91980  0.73620  0.97630  Biso   1.000  H
  H43      1.0000 0.58020  0.23620  0.02370  Biso   1.000  H
  H44      1.0000 0.91980  0.26380  0.52370  Biso   1.000  H
  H45      1.0000 0.58020  0.76380  0.47630  Biso   1.000  H
  H46      1.0000 0.08020  0.26380  0.02370  Biso   1.000  H
  H47      1.0000 0.41980  0.76380  0.97630  Biso   1.000  H
  H48      1.0000 0.08020  0.73620  0.47630  Biso   1.000  H
  C65      1.0000 0.38200  0.22320  0.46510  Biso   1.000  C
  C66      1.0000 0.88200  0.72320  0.03490  Biso   1.000  C
  C67      1.0000 0.61800  0.22320  0.96510  Biso   1.000  C
  C68      1.0000 0.88200  0.27680  0.46510  Biso   1.000  C
  C69      1.0000 0.61800  0.77680  0.53490  Biso   1.000  C
  C70      1.0000 0.11800  0.27680  0.96510  Biso   1.000  C
  C71      1.0000 0.38200  0.77680  0.03490  Biso   1.000  C
  C72      1.0000 0.11800  0.72320  0.53490  Biso   1.000  C
  H49      1.0000 0.31760  0.26710  0.46300  Biso   1.000  H
  H50      1.0000 0.81760  0.76710  0.03700  Biso   1.000  H
  H51      1.0000 0.68240  0.26710  0.96300  Biso   1.000  H
  H52      1.0000 0.81760  0.23290  0.46300  Biso   1.000  H
  H53      1.0000 0.68240  0.73290  0.53700  Biso   1.000  H
  H54      1.0000 0.18240  0.23290  0.96300  Biso   1.000  H
  H55      1.0000 0.31760  0.73290  0.03700  Biso   1.000  H
  H56      1.0000 0.18240  0.76710  0.53700  Biso   1.000  H
  C73      1.0000 0.40560  0.18040  0.43200  Biso   1.000  C
  C74      1.0000 0.90560  0.68040  0.06800  Biso   1.000  C
  C75      1.0000 0.59440  0.18040  0.93200  Biso   1.000  C
  C76      1.0000 0.90560  0.31960  0.43200  Biso   1.000  C
  C77      1.0000 0.59440  0.81960  0.56800  Biso   1.000  C
  C78      1.0000 0.09440  0.31960  0.93200  Biso   1.000  C
  C79      1.0000 0.40560  0.81960  0.06800  Biso   1.000  C
  C80      1.0000 0.09440  0.68040  0.56800  Biso   1.000  C
  H57      1.0000 0.35380  0.19380  0.40790  Biso   1.000  H
  H58      1.0000 0.85380  0.69380  0.09210  Biso   1.000  H
  H59      1.0000 0.64620  0.19380  0.90790  Biso   1.000  H
  H60      1.0000 0.85380  0.30620  0.40790  Biso   1.000  H
  H61      1.0000 0.64620  0.80620  0.59210  Biso   1.000  H
  H62      1.0000 0.14620  0.30620  0.90790  Biso   1.000  H
  H63      1.0000 0.35380  0.80620  0.09210  Biso   1.000  H
  H64      1.0000 0.14620  0.69380  0.59210  Biso   1.000  H
  C81      1.0000 0.35690  0.20880  0.27860  Biso   1.000  C
  C82      1.0000 0.85690  0.70880  0.22140  Biso   1.000  C
  C83      1.0000 0.64310  0.20880  0.77860  Biso   1.000  C
  C84      1.0000 0.85690  0.29120  0.27860  Biso   1.000  C
  C85      1.0000 0.64310  0.79120  0.72140  Biso   1.000  C
  C86      1.0000 0.14310  0.29120  0.77860  Biso   1.000  C
  C87      1.0000 0.35690  0.79120  0.22140  Biso   1.000  C
  C88      1.0000 0.14310  0.70880  0.72140  Biso   1.000  C
  C89      1.0000 0.46700  0.23680  0.30520  Biso   1.000  C
  C90      1.0000 0.96700  0.73680  0.19480  Biso   1.000  C
  C91      1.0000 0.53300  0.23680  0.80520  Biso   1.000  C
  C92      1.0000 0.96700  0.26320  0.30520  Biso   1.000  C
  C93      1.0000 0.53300  0.76320  0.69480  Biso   1.000  C
  C94      1.0000 0.03300  0.26320  0.80520  Biso   1.000  C
  C95      1.0000 0.46700  0.76320  0.19480  Biso   1.000  C
  C96      1.0000 0.03300  0.73680  0.69480  Biso   1.000  C
  H65      1.0000 0.50400  0.28790  0.30260  Biso   1.000  H
  H66      1.0000 0.00400  0.78790  0.19740  Biso   1.000  H
  H67      1.0000 0.49600  0.28790  0.80260  Biso   1.000  H
  H68      1.0000 0.00400  0.21210  0.30260  Biso   1.000  H
  H69      1.0000 0.49600  0.71210  0.69740  Biso   1.000  H
  H70      1.0000 0.99600  0.21210  0.80260  Biso   1.000  H
  H71      1.0000 0.50400  0.71210  0.19740  Biso   1.000  H
  H72      1.0000 0.99600  0.78790  0.69740  Biso   1.000  H
  C97      1.0000 0.52400  0.19020  0.33560  Biso   1.000  C
  C98      1.0000 0.02400  0.69020  0.16440  Biso   1.000  C
  C99      1.0000 0.47600  0.19020  0.83560  Biso   1.000  C
  C100     1.0000 0.02400  0.30980  0.33560  Biso   1.000  C
  C101     1.0000 0.47600  0.80980  0.66440  Biso   1.000  C
  C102     1.0000 0.97600  0.30980  0.83560  Biso   1.000  C
  C103     1.0000 0.52400  0.80980  0.16440  Biso   1.000  C
  C104     1.0000 0.97600  0.69020  0.66440  Biso   1.000  C
  H73      1.0000 0.59910  0.20940  0.35370  Biso   1.000  H
  H74      1.0000 0.09910  0.70940  0.14630  Biso   1.000  H
  H75      1.0000 0.40090  0.20940  0.85370  Biso   1.000  H
  H76      1.0000 0.09910  0.29060  0.35370  Biso   1.000  H
  H77      1.0000 0.40090  0.79060  0.64630  Biso   1.000  H
  H78      1.0000 0.90090  0.29060  0.85370  Biso   1.000  H
  H79      1.0000 0.59910  0.79060  0.14630  Biso   1.000  H
  H80      1.0000 0.90090  0.70940  0.64630  Biso   1.000  H
  N9       1.0000 0.47000  0.11550  0.33940  Biso   1.000  N
  N10      1.0000 0.97000  0.61550  0.16060  Biso   1.000  N
  N11      1.0000 0.53000  0.11550  0.83940  Biso   1.000  N
  N12      1.0000 0.97000  0.38450  0.33940  Biso   1.000  N
  N13      1.0000 0.53000  0.88450  0.66060  Biso   1.000  N
  N14      1.0000 0.03000  0.38450  0.83940  Biso   1.000  N
  N15      1.0000 0.47000  0.88450  0.16060  Biso   1.000  N
  N16      1.0000 0.03000  0.61550  0.66060  Biso   1.000  N
  C105     1.0000 0.36000  0.08750  0.31280  Biso   1.000  C
  C106     1.0000 0.86000  0.58750  0.18720  Biso   1.000  C
  C107     1.0000 0.64000  0.08750  0.81280  Biso   1.000  C
  C108     1.0000 0.86000  0.41250  0.31280  Biso   1.000  C
  C109     1.0000 0.64000  0.91250  0.68720  Biso   1.000  C
  C110     1.0000 0.14000  0.41250  0.81280  Biso   1.000  C
  C111     1.0000 0.36000  0.91250  0.18720  Biso   1.000  C
  C112     1.0000 0.14000  0.58750  0.68720  Biso   1.000  C
  H81      1.0000 0.32280  0.03640  0.31550  Biso   1.000  H
  H82      1.0000 0.82280  0.53640  0.18450  Biso   1.000  H
  H83      1.0000 0.67720  0.03640  0.81550  Biso   1.000  H
  H84      1.0000 0.82280  0.46360  0.31550  Biso   1.000  H
  H85      1.0000 0.67720  0.96360  0.68450  Biso   1.000  H
  H86      1.0000 0.17720  0.46360  0.81550  Biso   1.000  H
  H87      1.0000 0.32280  0.96360  0.18450  Biso   1.000  H
  H88      1.0000 0.17720  0.53640  0.68450  Biso   1.000  H
  C113     1.0000 0.30300  0.13410  0.28250  Biso   1.000  C
  C114     1.0000 0.80300  0.63410  0.21750  Biso   1.000  C
  C115     1.0000 0.69700  0.13410  0.78250  Biso   1.000  C
  C116     1.0000 0.80300  0.36590  0.28250  Biso   1.000  C
  C117     1.0000 0.69700  0.86590  0.71750  Biso   1.000  C
  C118     1.0000 0.19700  0.36590  0.78250  Biso   1.000  C
  C119     1.0000 0.30300  0.86590  0.21750  Biso   1.000  C
  C120     1.0000 0.19700  0.63410  0.71750  Biso   1.000  C
  H89      1.0000 0.22780  0.11490  0.26430  Biso   1.000  H
  H90      1.0000 0.72780  0.61490  0.23570  Biso   1.000  H
  H91      1.0000 0.77220  0.11490  0.76430  Biso   1.000  H
  H92      1.0000 0.72780  0.38510  0.26430  Biso   1.000  H
  H93      1.0000 0.77220  0.88510  0.73570  Biso   1.000  H
  H94      1.0000 0.27220  0.38510  0.76430  Biso   1.000  H
  H95      1.0000 0.22780  0.88510  0.23570  Biso   1.000  H
  H96      1.0000 0.27220  0.61490  0.73570  Biso   1.000  H
  N17      1.0000 0.29200  0.25860  0.24690  Biso   1.000  N
  N18      1.0000 0.79200  0.75860  0.25310  Biso   1.000  N
  N19      1.0000 0.70800  0.25860  0.74690  Biso   1.000  N
  N20      1.0000 0.79200  0.24140  0.24690  Biso   1.000  N
  N21      1.0000 0.70800  0.74140  0.75310  Biso   1.000  N
  N22      1.0000 0.20800  0.24140  0.74690  Biso   1.000  N
  N23      1.0000 0.29200  0.74140  0.25310  Biso   1.000  N
  N24      1.0000 0.20800  0.75860  0.75310  Biso   1.000  N
  N25      1.0000 0.49800  0.12400  0.34130  Biso   1.000  N
  N26      1.0000 0.99800  0.62400  0.15870  Biso   1.000  N
  N27      1.0000 0.50200  0.12400  0.84130  Biso   1.000  N
  N28      1.0000 0.99800  0.37600  0.34130  Biso   1.000  N
  N29      1.0000 0.50200  0.87600  0.65870  Biso   1.000  N
  N30      1.0000 0.00200  0.37600  0.84130  Biso   1.000  N
  N31      1.0000 0.49800  0.87600  0.15870  Biso   1.000  N
  N32      1.0000 0.00200  0.62400  0.65870  Biso   1.000  N
  C121     1.0000 0.39800  0.10400  0.31130  Biso   1.000  C
  C122     1.0000 0.89800  0.60400  0.18870  Biso   1.000  C
  C123     1.0000 0.60200  0.10400  0.81130  Biso   1.000  C
  C124     1.0000 0.89800  0.39600  0.31130  Biso   1.000  C
  C125     1.0000 0.60200  0.89600  0.68870  Biso   1.000  C
  C126     1.0000 0.10200  0.39600  0.81130  Biso   1.000  C
  C127     1.0000 0.39800  0.89600  0.18870  Biso   1.000  C
  C128     1.0000 0.10200  0.60400  0.68870  Biso   1.000  C
  H97      1.0000 0.36440  0.05250  0.30880  Biso   1.000  H
  H98      1.0000 0.86440  0.55250  0.19120  Biso   1.000  H
  H99      1.0000 0.63560  0.05250  0.80880  Biso   1.000  H
  H100     1.0000 0.86440  0.44750  0.30880  Biso   1.000  H
  H101     1.0000 0.63560  0.94750  0.69120  Biso   1.000  H
  H102     1.0000 0.13560  0.44750  0.80880  Biso   1.000  H
  H103     1.0000 0.36440  0.94750  0.19120  Biso   1.000  H
  H104     1.0000 0.13560  0.55250  0.69120  Biso   1.000  H
  C129     1.0000 0.34700  0.15830  0.28500  Biso   1.000  C
  C130     1.0000 0.84700  0.65830  0.21500  Biso   1.000  C
  C131     1.0000 0.65300  0.15830  0.78500  Biso   1.000  C
  C132     1.0000 0.84700  0.34170  0.28500  Biso   1.000  C
  C133     1.0000 0.65300  0.84170  0.71500  Biso   1.000  C
  C134     1.0000 0.15300  0.34170  0.78500  Biso   1.000  C
  C135     1.0000 0.34700  0.84170  0.21500  Biso   1.000  C
  C136     1.0000 0.15300  0.65830  0.71500  Biso   1.000  C
  H105     1.0000 0.27740  0.14440  0.26420  Biso   1.000  H
  H106     1.0000 0.77740  0.64440  0.23580  Biso   1.000  H
  H107     1.0000 0.72260  0.14440  0.76420  Biso   1.000  H
  H108     1.0000 0.77740  0.35560  0.26420  Biso   1.000  H
  H109     1.0000 0.72260  0.85560  0.73580  Biso   1.000  H
  H110     1.0000 0.22260  0.35560  0.76420  Biso   1.000  H
  H111     1.0000 0.27740  0.85560  0.23580  Biso   1.000  H
  H112     1.0000 0.22260  0.64440  0.73580  Biso   1.000  H
  C137     1.0000 0.39500  0.23250  0.28870  Biso   1.000  C
  C138     1.0000 0.89500  0.73250  0.21130  Biso   1.000  C
  C139     1.0000 0.60500  0.23250  0.78870  Biso   1.000  C
  C140     1.0000 0.89500  0.26750  0.28870  Biso   1.000  C
  C141     1.0000 0.60500  0.76750  0.71130  Biso   1.000  C
  C142     1.0000 0.10500  0.26750  0.78870  Biso   1.000  C
  C143     1.0000 0.39500  0.76750  0.21130  Biso   1.000  C
  C144     1.0000 0.10500  0.73250  0.71130  Biso   1.000  C
  C145     1.0000 0.49500  0.25240  0.31860  Biso   1.000  C
  C146     1.0000 0.99500  0.75240  0.18140  Biso   1.000  C
  C147     1.0000 0.50500  0.25240  0.81860  Biso   1.000  C
  C148     1.0000 0.99500  0.24760  0.31860  Biso   1.000  C
  C149     1.0000 0.50500  0.74760  0.68140  Biso   1.000  C
  C150     1.0000 0.00500  0.24760  0.81860  Biso   1.000  C
  C151     1.0000 0.49500  0.74760  0.18140  Biso   1.000  C
  C152     1.0000 0.00500  0.75240  0.68140  Biso   1.000  C
  H113     1.0000 0.52910  0.30400  0.32120  Biso   1.000  H
  H114     1.0000 0.02910  0.80400  0.17880  Biso   1.000  H
  H115     1.0000 0.47090  0.30400  0.82120  Biso   1.000  H
  H116     1.0000 0.02910  0.19600  0.32120  Biso   1.000  H
  H117     1.0000 0.47090  0.69600  0.67880  Biso   1.000  H
  H118     1.0000 0.97090  0.19600  0.82120  Biso   1.000  H
  H119     1.0000 0.52910  0.69600  0.17880  Biso   1.000  H
  H120     1.0000 0.97090  0.80400  0.67880  Biso   1.000  H
  C153     1.0000 0.54700  0.19820  0.34500  Biso   1.000  C
  C154     1.0000 0.04700  0.69820  0.15500  Biso   1.000  C
  C155     1.0000 0.45300  0.19820  0.84500  Biso   1.000  C
  C156     1.0000 0.04700  0.30180  0.34500  Biso   1.000  C
  C157     1.0000 0.45300  0.80180  0.65500  Biso   1.000  C
  C158     1.0000 0.95300  0.30180  0.84500  Biso   1.000  C
  C159     1.0000 0.54700  0.80180  0.15500  Biso   1.000  C
  C160     1.0000 0.95300  0.69820  0.65500  Biso   1.000  C
  H121     1.0000 0.61610  0.21200  0.36580  Biso   1.000  H
  H122     1.0000 0.11610  0.71200  0.13420  Biso   1.000  H
  H123     1.0000 0.38390  0.21200  0.86580  Biso   1.000  H
  H124     1.0000 0.11610  0.28800  0.36580  Biso   1.000  H
  H125     1.0000 0.38390  0.78800  0.63420  Biso   1.000  H
  H126     1.0000 0.88390  0.28800  0.86580  Biso   1.000  H
  H127     1.0000 0.61610  0.78800  0.13420  Biso   1.000  H
  H128     1.0000 0.88390  0.71200  0.63420  Biso   1.000  H
  N33      1.0000 0.34500  0.29320  0.25950  Biso   1.000  N
  N34      1.0000 0.84500  0.79320  0.24050  Biso   1.000  N
  N35      1.0000 0.65500  0.29320  0.75950  Biso   1.000  N
  N36      1.0000 0.84500  0.20680  0.25950  Biso   1.000  N
  N37      1.0000 0.65500  0.70680  0.74050  Biso   1.000  N
  N38      1.0000 0.15500  0.20680  0.75950  Biso   1.000  N
  N39      1.0000 0.34500  0.70680  0.24050  Biso   1.000  N
  N40      1.0000 0.15500  0.79320  0.74050  Biso   1.000  N
  N41      1.0000 0.32800  0.32630  0.24820  Biso   1.000  N
  N42      1.0000 0.82800  0.82630  0.25180  Biso   1.000  N
  N43      1.0000 0.67200  0.32630  0.74820  Biso   1.000  N
  N44      1.0000 0.82800  0.17370  0.24820  Biso   1.000  N
  N45      1.0000 0.67200  0.67370  0.75180  Biso   1.000  N
  N46      1.0000 0.17200  0.17370  0.74820  Biso   1.000  N
  N47      1.0000 0.32800  0.67370  0.25180  Biso   1.000  N
  N48      1.0000 0.17200  0.82630  0.75180  Biso   1.000  N
  C161     1.0000 0.13740  0.35230  0.19330  Biso   1.000  C
  C162     1.0000 0.63740  0.85230  0.30670  Biso   1.000  C
  C163     1.0000 0.86260  0.35230  0.69330  Biso   1.000  C
  C164     1.0000 0.63740  0.14770  0.19330  Biso   1.000  C
  C165     1.0000 0.86260  0.64770  0.80670  Biso   1.000  C
  C166     1.0000 0.36260  0.14770  0.69330  Biso   1.000  C
  C167     1.0000 0.13740  0.64770  0.30670  Biso   1.000  C
  C168     1.0000 0.36260  0.85230  0.80670  Biso   1.000  C
  H129     1.0000 0.09210  0.30340  0.19770  Biso   1.000  H
  H130     1.0000 0.59210  0.80340  0.30230  Biso   1.000  H
  H131     1.0000 0.90790  0.30340  0.69770  Biso   1.000  H
  H132     1.0000 0.59210  0.19660  0.19770  Biso   1.000  H
  H133     1.0000 0.90790  0.69660  0.80230  Biso   1.000  H
  H134     1.0000 0.40790  0.19660  0.69770  Biso   1.000  H
  H135     1.0000 0.09210  0.69660  0.30230  Biso   1.000  H
  H136     1.0000 0.40790  0.80340  0.80230  Biso   1.000  H
  C169     1.0000 0.07580  0.40110  0.16460  Biso   1.000  C
  C170     1.0000 0.57580  0.90110  0.33540  Biso   1.000  C
  C171     1.0000 0.92420  0.40110  0.66460  Biso   1.000  C
  C172     1.0000 0.57580  0.09890  0.16460  Biso   1.000  C
  C173     1.0000 0.92420  0.59890  0.83540  Biso   1.000  C
  C174     1.0000 0.42420  0.09890  0.66460  Biso   1.000  C
  C175     1.0000 0.07580  0.59890  0.33540  Biso   1.000  C
  C176     1.0000 0.42420  0.90110  0.83540  Biso   1.000  C
  H137     1.0000 0.98860  0.38550  0.14920  Biso   1.000  H
  H138     1.0000 0.48860  0.88550  0.35080  Biso   1.000  H
  H139     1.0000 0.01140  0.38550  0.64920  Biso   1.000  H
  H140     1.0000 0.48860  0.11450  0.14920  Biso   1.000  H
  H141     1.0000 0.01140  0.61450  0.85080  Biso   1.000  H
  H142     1.0000 0.51140  0.11450  0.64920  Biso   1.000  H
  H143     1.0000 0.98860  0.61450  0.35080  Biso   1.000  H
  H144     1.0000 0.51140  0.88550  0.85080  Biso   1.000  H
  N49      1.0000 0.14210  0.47270  0.15820  Biso   1.000  N
  N50      1.0000 0.64210  0.97270  0.34180  Biso   1.000  N
  N51      1.0000 0.85790  0.47270  0.65820  Biso   1.000  N
  N52      1.0000 0.64210  0.02730  0.15820  Biso   1.000  N
  N53      1.0000 0.85790  0.52730  0.84180  Biso   1.000  N
  N54      1.0000 0.35790  0.02730  0.65820  Biso   1.000  N
  N55      1.0000 0.14210  0.52730  0.34180  Biso   1.000  N
  N56      1.0000 0.35790  0.97270  0.84180  Biso   1.000  N
  C177     1.0000 0.27000  0.49550  0.18060  Biso   1.000  C
  C178     1.0000 0.77000  0.99550  0.31940  Biso   1.000  C
  C179     1.0000 0.73000  0.49550  0.68060  Biso   1.000  C
  C180     1.0000 0.77000  0.00450  0.18060  Biso   1.000  C
  C181     1.0000 0.73000  0.50450  0.81940  Biso   1.000  C
  C182     1.0000 0.23000  0.00450  0.68060  Biso   1.000  C
  C183     1.0000 0.27000  0.50450  0.31940  Biso   1.000  C
  C184     1.0000 0.23000  0.99550  0.81940  Biso   1.000  C
  H145     1.0000 0.31520  0.54440  0.17630  Biso   1.000  H
  H146     1.0000 0.81520  0.04440  0.32370  Biso   1.000  H
  H147     1.0000 0.68480  0.54440  0.67630  Biso   1.000  H
  H148     1.0000 0.81520  0.95560  0.17630  Biso   1.000  H
  H149     1.0000 0.68480  0.45560  0.82370  Biso   1.000  H
  H150     1.0000 0.18480  0.95560  0.67630  Biso   1.000  H
  H151     1.0000 0.31520  0.45560  0.32370  Biso   1.000  H
  H152     1.0000 0.18480  0.04440  0.82370  Biso   1.000  H
  C185     1.0000 0.33150  0.44670  0.20940  Biso   1.000  C
  C186     1.0000 0.83150  0.94670  0.29060  Biso   1.000  C
  C187     1.0000 0.66850  0.44670  0.70940  Biso   1.000  C
  C188     1.0000 0.83150  0.05330  0.20940  Biso   1.000  C
  C189     1.0000 0.66850  0.55330  0.79060  Biso   1.000  C
  C190     1.0000 0.16850  0.05330  0.70940  Biso   1.000  C
  C191     1.0000 0.33150  0.55330  0.29060  Biso   1.000  C
  C192     1.0000 0.16850  0.94670  0.79060  Biso   1.000  C
  H153     1.0000 0.41880  0.46230  0.22470  Biso   1.000  H
  H154     1.0000 0.91880  0.96230  0.27530  Biso   1.000  H
  H155     1.0000 0.58120  0.46230  0.72470  Biso   1.000  H
  H156     1.0000 0.91880  0.03770  0.22470  Biso   1.000  H
  H157     1.0000 0.58120  0.53770  0.77530  Biso   1.000  H
  H158     1.0000 0.08120  0.03770  0.72470  Biso   1.000  H
  H159     1.0000 0.41880  0.53770  0.27530  Biso   1.000  H
  H160     1.0000 0.08120  0.96230  0.77530  Biso   1.000  H
  C193     1.0000 0.26520  0.37510  0.21580  Biso   1.000  C
  C194     1.0000 0.76520  0.87510  0.28420  Biso   1.000  C
  C195     1.0000 0.73480  0.37510  0.71580  Biso   1.000  C
  C196     1.0000 0.76520  0.12490  0.21580  Biso   1.000  C
  C197     1.0000 0.73480  0.62490  0.78420  Biso   1.000  C
  C198     1.0000 0.23480  0.12490  0.71580  Biso   1.000  C
  C199     1.0000 0.26520  0.62490  0.28420  Biso   1.000  C
  C200     1.0000 0.23480  0.87510  0.78420  Biso   1.000  C
  C201     1.0000 0.69190  0.84200  0.29090  Biso   1.000  C
  C202     1.0000 0.19190  0.34200  0.20910  Biso   1.000  C
  C203     1.0000 0.30810  0.84200  0.79090  Biso   1.000  C
  C204     1.0000 0.19190  0.65800  0.29090  Biso   1.000  C
  C205     1.0000 0.30810  0.15800  0.70910  Biso   1.000  C
  C206     1.0000 0.80810  0.65800  0.79090  Biso   1.000  C
  C207     1.0000 0.69190  0.15800  0.20910  Biso   1.000  C
  C208     1.0000 0.80810  0.34200  0.70910  Biso   1.000  C
  C209     1.0000 0.76700  0.91360  0.29030  Biso   1.000  C
  C210     1.0000 0.26700  0.41360  0.20970  Biso   1.000  C
  C211     1.0000 0.23300  0.91360  0.79030  Biso   1.000  C
  C212     1.0000 0.26700  0.58640  0.29030  Biso   1.000  C
  C213     1.0000 0.23300  0.08640  0.70970  Biso   1.000  C
  C214     1.0000 0.73300  0.58640  0.79030  Biso   1.000  C
  C215     1.0000 0.76700  0.08640  0.20970  Biso   1.000  C
  C216     1.0000 0.73300  0.41360  0.70970  Biso   1.000  C
  H161     1.0000 0.85070  0.92230  0.27230  Biso   1.000  H
  H162     1.0000 0.35070  0.42230  0.22770  Biso   1.000  H
  H163     1.0000 0.14930  0.92230  0.77230  Biso   1.000  H
  H164     1.0000 0.35070  0.57770  0.27230  Biso   1.000  H
  H165     1.0000 0.14930  0.07770  0.72770  Biso   1.000  H
  H166     1.0000 0.64930  0.57770  0.77230  Biso   1.000  H
  H167     1.0000 0.85070  0.07770  0.22770  Biso   1.000  H
  H168     1.0000 0.64930  0.42230  0.72770  Biso   1.000  H
  C217     1.0000 0.71810  0.97240  0.31620  Biso   1.000  C
  C218     1.0000 0.21810  0.47240  0.18380  Biso   1.000  C
  C219     1.0000 0.28190  0.97240  0.81620  Biso   1.000  C
  C220     1.0000 0.21810  0.52760  0.31620  Biso   1.000  C
  C221     1.0000 0.28190  0.02760  0.68380  Biso   1.000  C
  C222     1.0000 0.78190  0.52760  0.81620  Biso   1.000  C
  C223     1.0000 0.71810  0.02760  0.18380  Biso   1.000  C
  C224     1.0000 0.78190  0.47240  0.68380  Biso   1.000  C
  H169     1.0000 0.76870  0.02070  0.31570  Biso   1.000  H
  H170     1.0000 0.26870  0.52070  0.18430  Biso   1.000  H
  H171     1.0000 0.23130  0.02070  0.81570  Biso   1.000  H
  H172     1.0000 0.26870  0.47930  0.31570  Biso   1.000  H
  H173     1.0000 0.23130  0.97930  0.68430  Biso   1.000  H
  H174     1.0000 0.73130  0.47930  0.81570  Biso   1.000  H
  H175     1.0000 0.76870  0.97930  0.18430  Biso   1.000  H
  H176     1.0000 0.73130  0.52070  0.68430  Biso   1.000  H
  N57      1.0000 0.59400  0.95960  0.34280  Biso   1.000  N
  N58      1.0000 0.09400  0.45960  0.15720  Biso   1.000  N
  N59      1.0000 0.40600  0.95960  0.84280  Biso   1.000  N
  N60      1.0000 0.09400  0.54040  0.34280  Biso   1.000  N
  N61      1.0000 0.40600  0.04040  0.65720  Biso   1.000  N
  N62      1.0000 0.90600  0.54040  0.84280  Biso   1.000  N
  N63      1.0000 0.59400  0.04040  0.15720  Biso   1.000  N
  N64      1.0000 0.90600  0.45960  0.65720  Biso   1.000  N
  C225     1.0000 0.51880  0.88790  0.34340  Biso   1.000  C
  C226     1.0000 0.01880  0.38790  0.15660  Biso   1.000  C
  C227     1.0000 0.48120  0.88790  0.84340  Biso   1.000  C
  C228     1.0000 0.01880  0.61210  0.34340  Biso   1.000  C
  C229     1.0000 0.48120  0.11210  0.65660  Biso   1.000  C
  C230     1.0000 0.98120  0.61210  0.84340  Biso   1.000  C
  C231     1.0000 0.51880  0.11210  0.15660  Biso   1.000  C
  C232     1.0000 0.98120  0.38790  0.65660  Biso   1.000  C
  H177     1.0000 0.43520  0.87930  0.36140  Biso   1.000  H
  H178     1.0000 0.93520  0.37930  0.13860  Biso   1.000  H
  H179     1.0000 0.56480  0.87930  0.86140  Biso   1.000  H
  H180     1.0000 0.93520  0.62070  0.36140  Biso   1.000  H
  H181     1.0000 0.56480  0.12070  0.63860  Biso   1.000  H
  H182     1.0000 0.06480  0.62070  0.86140  Biso   1.000  H
  H183     1.0000 0.43520  0.12070  0.13860  Biso   1.000  H
  H184     1.0000 0.06480  0.37930  0.63860  Biso   1.000  H
  C233     1.0000 0.56780  0.82910  0.31750  Biso   1.000  C
  C234     1.0000 0.06780  0.32910  0.18250  Biso   1.000  C
  C235     1.0000 0.43220  0.82910  0.81750  Biso   1.000  C
  C236     1.0000 0.06780  0.67090  0.31750  Biso   1.000  C
  C237     1.0000 0.43220  0.17090  0.68250  Biso   1.000  C
  C238     1.0000 0.93220  0.67090  0.81750  Biso   1.000  C
  C239     1.0000 0.56780  0.17090  0.18250  Biso   1.000  C
  C240     1.0000 0.93220  0.32910  0.68250  Biso   1.000  C
  H185     1.0000 0.51710  0.78080  0.31790  Biso   1.000  H
  H186     1.0000 0.01710  0.28080  0.18210  Biso   1.000  H
  H187     1.0000 0.48290  0.78080  0.81790  Biso   1.000  H
  H188     1.0000 0.01710  0.71920  0.31790  Biso   1.000  H
  H189     1.0000 0.48290  0.21920  0.68210  Biso   1.000  H
  H190     1.0000 0.98290  0.71920  0.81790  Biso   1.000  H
  H191     1.0000 0.51710  0.21920  0.18210  Biso   1.000  H
  H192     1.0000 0.98290  0.28080  0.68210  Biso   1.000  H
  N65      1.0000 0.24000  0.27960  0.23580  Biso   1.000  N
  N66      1.0000 0.74000  0.77960  0.26420  Biso   1.000  N
  N67      1.0000 0.76000  0.27960  0.73580  Biso   1.000  N
  N68      1.0000 0.74000  0.22040  0.23580  Biso   1.000  N
  N69      1.0000 0.76000  0.72040  0.76420  Biso   1.000  N
  N70      1.0000 0.26000  0.22040  0.73580  Biso   1.000  N
  N71      1.0000 0.24000  0.72040  0.26420  Biso   1.000  N
  N72      1.0000 0.26000  0.77960  0.76420  Biso   1.000  N
  N73      1.0000 0.50660  0.11530  0.43230  Biso   1.000  N
  N74      1.0000 0.00660  0.61530  0.06770  Biso   1.000  N
  N75      1.0000 0.49340  0.11530  0.93230  Biso   1.000  N
  N76      1.0000 0.00660  0.38470  0.43230  Biso   1.000  N
  N77      1.0000 0.49340  0.88470  0.56770  Biso   1.000  N
  N78      1.0000 0.99340  0.38470  0.93230  Biso   1.000  N
  N79      1.0000 0.50660  0.88470  0.06770  Biso   1.000  N
  N80      1.0000 0.99340  0.61530  0.56770  Biso   1.000  N
  O1       1.0000 0.30620  0.99450  0.39520  Biso   1.000  O
  O2       1.0000 0.80620  0.49450  0.10480  Biso   1.000  O
  O3       1.0000 0.69380  0.99450  0.89520  Biso   1.000  O
  O4       1.0000 0.80620  0.50550  0.39520  Biso   1.000  O
  O5       1.0000 0.69380  0.00550  0.60480  Biso   1.000  O
  O6       1.0000 0.19380  0.50550  0.89520  Biso   1.000  O
  O7       1.0000 0.30620  0.00550  0.10480  Biso   1.000  O
  O8       1.0000 0.19380  0.49450  0.60480  Biso   1.000  O
  O9       1.0000 0.15500  0.93770  0.29860  Biso   1.000  O
  O10      1.0000 0.65500  0.43770  0.20140  Biso   1.000  O
  O11      1.0000 0.84500  0.93770  0.79860  Biso   1.000  O
  O12      1.0000 0.65500  0.56230  0.29860  Biso   1.000  O
  O13      1.0000 0.84500  0.06230  0.70140  Biso   1.000  O
  O14      1.0000 0.34500  0.56230  0.79860  Biso   1.000  O
  O15      1.0000 0.15500  0.06230  0.20140  Biso   1.000  O
  O16      1.0000 0.34500  0.43770  0.70140  Biso   1.000  O
  N81      1.0000 0.13900  0.81200  0.39090  Biso   1.000  N
  N82      1.0000 0.63900  0.31200  0.10910  Biso   1.000  N
  N83      1.0000 0.86100  0.81200  0.89090  Biso   1.000  N
  N84      1.0000 0.63900  0.68800  0.39090  Biso   1.000  N
  N85      1.0000 0.86100  0.18800  0.60910  Biso   1.000  N
  N86      1.0000 0.36100  0.68800  0.89090  Biso   1.000  N
  N87      1.0000 0.13900  0.18800  0.10910  Biso   1.000  N
  N88      1.0000 0.36100  0.31200  0.60910  Biso   1.000  N
  O17      1.0000 0.04700  0.75940  0.39860  Biso   1.000  O
  O18      1.0000 0.54700  0.25940  0.10140  Biso   1.000  O
  O19      1.0000 0.95300  0.75940  0.89860  Biso   1.000  O
  O20      1.0000 0.54700  0.74060  0.39860  Biso   1.000  O
  O21      1.0000 0.95300  0.24060  0.60140  Biso   1.000  O
  O22      1.0000 0.45300  0.74060  0.89860  Biso   1.000  O
  O23      1.0000 0.04700  0.24060  0.10140  Biso   1.000  O
  O24      1.0000 0.45300  0.25940  0.60140  Biso   1.000  O
  O25      1.0000 0.22300  0.83580  0.41790  Biso   1.000  O
  O26      1.0000 0.72300  0.33580  0.08210  Biso   1.000  O
  O27      1.0000 0.77700  0.83580  0.91790  Biso   1.000  O
  O28      1.0000 0.72300  0.66420  0.41790  Biso   1.000  O
  O29      1.0000 0.77700  0.16420  0.58210  Biso   1.000  O
  O30      1.0000 0.27700  0.66420  0.91790  Biso   1.000  O
  O31      1.0000 0.22300  0.16420  0.08210  Biso   1.000  O
  O32      1.0000 0.27700  0.33580  0.58210  Biso   1.000  O
  O33      1.0000 0.12700  0.84980  0.35990  Biso   1.000  O
  O34      1.0000 0.62700  0.34980  0.14010  Biso   1.000  O
  O35      1.0000 0.87300  0.84980  0.85990  Biso   1.000  O
  O36      1.0000 0.62700  0.65020  0.35990  Biso   1.000  O
  O37      1.0000 0.87300  0.15020  0.64010  Biso   1.000  O
  O38      1.0000 0.37300  0.65020  0.85990  Biso   1.000  O
  O39      1.0000 0.12700  0.15020  0.14010  Biso   1.000  O
  O40      1.0000 0.37300  0.34980  0.64010  Biso   1.000  O
  N89      1.0000 0.96730  0.11140  0.38980  Biso   1.000  N
  N90      1.0000 0.46730  0.61140  0.11020  Biso   1.000  N
  N91      1.0000 0.03270  0.11140  0.88980  Biso   1.000  N
  N92      1.0000 0.46730  0.38860  0.38980  Biso   1.000  N
  N93      1.0000 0.03270  0.88860  0.61020  Biso   1.000  N
  N94      1.0000 0.53270  0.38860  0.88980  Biso   1.000  N
  N95      1.0000 0.96730  0.88860  0.11020  Biso   1.000  N
  N96      1.0000 0.53270  0.61140  0.61020  Biso   1.000  N
  O41      1.0000 0.83460  0.13370  0.38300  Biso   1.000  O
  O42      1.0000 0.33460  0.63370  0.11700  Biso   1.000  O
  O43      1.0000 0.16540  0.13370  0.88300  Biso   1.000  O
  O44      1.0000 0.33460  0.36630  0.38300  Biso   1.000  O
  O45      1.0000 0.16540  0.86630  0.61700  Biso   1.000  O
  O46      1.0000 0.66540  0.36630  0.88300  Biso   1.000  O
  O47      1.0000 0.83460  0.86630  0.11700  Biso   1.000  O
  O48      1.0000 0.66540  0.63370  0.61700  Biso   1.000  O
  O49      1.0000 0.02900  0.12740  0.42160  Biso   1.000  O
  O50      1.0000 0.52900  0.62740  0.07840  Biso   1.000  O
  O51      1.0000 0.97100  0.12740  0.92160  Biso   1.000  O
  O52      1.0000 0.52900  0.37260  0.42160  Biso   1.000  O
  O53      1.0000 0.97100  0.87260  0.57840  Biso   1.000  O
  O54      1.0000 0.47100  0.37260  0.92160  Biso   1.000  O
  O55      1.0000 0.02900  0.87260  0.07840  Biso   1.000  O
  O56      1.0000 0.47100  0.62740  0.57840  Biso   1.000  O
  O57      1.0000 0.04400  0.08530  0.36220  Biso   1.000  O
  O58      1.0000 0.54400  0.58530  0.13780  Biso   1.000  O
  O59      1.0000 0.95600  0.08530  0.86220  Biso   1.000  O
  O60      1.0000 0.54400  0.41470  0.36220  Biso   1.000  O
  O61      1.0000 0.95600  0.91470  0.63780  Biso   1.000  O
  O62      1.0000 0.45600  0.41470  0.86220  Biso   1.000  O
  O63      1.0000 0.04400  0.91470  0.13780  Biso   1.000  O
  O64      1.0000 0.45600  0.58530  0.63780  Biso   1.000  O
  O65      1.0000 0.08200  0.14400  0.37570  Biso   1.000  O
  O66      1.0000 0.58200  0.64400  0.12430  Biso   1.000  O
  O67      1.0000 0.91800  0.14400  0.87570  Biso   1.000  O
  O68      1.0000 0.58200  0.35600  0.37570  Biso   1.000  O
  O69      1.0000 0.91800  0.85600  0.62430  Biso   1.000  O
  O70      1.0000 0.41800  0.35600  0.87570  Biso   1.000  O
  O71      1.0000 0.08200  0.85600  0.12430  Biso   1.000  O
  O72      1.0000 0.41800  0.64400  0.62430  Biso   1.000  O
  O73      1.0000 0.99100  0.06600  0.41760  Biso   1.000  O
  O74      1.0000 0.49100  0.56600  0.08240  Biso   1.000  O
  O75      1.0000 0.00900  0.06600  0.91760  Biso   1.000  O
  O76      1.0000 0.49100  0.43400  0.41760  Biso   1.000  O
  O77      1.0000 0.00900  0.93400  0.58240  Biso   1.000  O
  O78      1.0000 0.50900  0.43400  0.91760  Biso   1.000  O
  O79      1.0000 0.99100  0.93400  0.08240  Biso   1.000  O
  O80      1.0000 0.50900  0.56600  0.58240  Biso   1.000  O
