data_image0
_cell_length_a       12.114
_cell_length_b       11.555
_cell_length_c       14.514
_cell_angle_alpha    90
_cell_angle_beta     109.8
_cell_angle_gamma    90

_symmetry_space_group_name_H-M    "P 1"
_symmetry_int_tables_number       1

loop_
  _symmetry_equiv_pos_as_xyz
  'x, y, z'

loop_
  _atom_site_label
  _atom_site_occupancy
  _atom_site_fract_x
  _atom_site_fract_y
  _atom_site_fract_z
  _atom_site_thermal_displace_type
  _atom_site_B_iso_or_equiv
  _atom_site_type_symbol
  Cu1      1.0000 0.70711  0.04643  0.47464  Biso   1.000  Cu
  Cu2      1.0000 0.70711  0.45357  0.97464  Biso   1.000  Cu
  Cu3      1.0000 0.29289  0.95357  0.52536  Biso   1.000  Cu
  Cu4      1.0000 0.29289  0.54643  0.02536  Biso   1.000  Cu
  N1       1.0000 0.84290  0.14690  0.55160  Biso   1.000  N
  N2       1.0000 0.84290  0.35310  0.05160  Biso   1.000  N
  N3       1.0000 0.15710  0.85310  0.44840  Biso   1.000  N
  N4       1.0000 0.15710  0.64690  0.94840  Biso   1.000  N
  N5       1.0000 0.82430  0.92340  0.53410  Biso   1.000  N
  N6       1.0000 0.82430  0.57660  0.03410  Biso   1.000  N
  N7       1.0000 0.17570  0.07660  0.46590  Biso   1.000  N
  N8       1.0000 0.17570  0.42340  0.96590  Biso   1.000  N
  N9       1.0000 0.61030  0.17710  0.39560  Biso   1.000  N
  N10      1.0000 0.61030  0.32290  0.89560  Biso   1.000  N
  N11      1.0000 0.38970  0.82290  0.60440  Biso   1.000  N
  N12      1.0000 0.38970  0.67710  0.10440  Biso   1.000  N
  C1       1.0000 0.84150  0.26210  0.55870  Biso   1.000  C
  C2       1.0000 0.84150  0.23790  0.05870  Biso   1.000  C
  C3       1.0000 0.15850  0.73790  0.44130  Biso   1.000  C
  C4       1.0000 0.15850  0.76210  0.94130  Biso   1.000  C
  H1       1.0000 0.77260  0.30190  0.52590  Biso   1.000  H
  H2       1.0000 0.77260  0.19810  0.02590  Biso   1.000  H
  H3       1.0000 0.22740  0.69810  0.47410  Biso   1.000  H
  H4       1.0000 0.22740  0.80190  0.97410  Biso   1.000  H
  C5       1.0000 0.93910  0.32380  0.61310  Biso   1.000  C
  C6       1.0000 0.93910  0.17620  0.11310  Biso   1.000  C
  C7       1.0000 0.06090  0.67620  0.38690  Biso   1.000  C
  C8       1.0000 0.06090  0.82380  0.88690  Biso   1.000  C
  H5       1.0000 0.93650  0.40410  0.61700  Biso   1.000  H
  H6       1.0000 0.93650  0.09590  0.11700  Biso   1.000  H
  H7       1.0000 0.06350  0.59590  0.38300  Biso   1.000  H
  H8       1.0000 0.06350  0.90410  0.88300  Biso   1.000  H
  C9       1.0000 0.04160  0.26340  0.66190  Biso   1.000  C
  C10      1.0000 0.04160  0.23660  0.16190  Biso   1.000  C
  C11      1.0000 0.95840  0.73660  0.33810  Biso   1.000  C
  C12      1.0000 0.95840  0.76340  0.83810  Biso   1.000  C
  H9       1.0000 0.10960  0.30270  0.69760  Biso   1.000  H
  H10      1.0000 0.10960  0.19730  0.19760  Biso   1.000  H
  H11      1.0000 0.89040  0.69730  0.30240  Biso   1.000  H
  H12      1.0000 0.89040  0.80270  0.80240  Biso   1.000  H
  C13      1.0000 0.04060  0.14540  0.65670  Biso   1.000  C
  C14      1.0000 0.04060  0.35460  0.15670  Biso   1.000  C
  C15      1.0000 0.95940  0.85460  0.34330  Biso   1.000  C
  C16      1.0000 0.95940  0.64540  0.84330  Biso   1.000  C
  H13      1.0000 0.10740  0.10350  0.69100  Biso   1.000  H
  H14      1.0000 0.10740  0.39650  0.19100  Biso   1.000  H
  H15      1.0000 0.89260  0.89650  0.30900  Biso   1.000  H
  H16      1.0000 0.89260  0.60350  0.80900  Biso   1.000  H
  C17      1.0000 0.94120  0.08910  0.60100  Biso   1.000  C
  C18      1.0000 0.94120  0.41090  0.10100  Biso   1.000  C
  C19      1.0000 0.05880  0.91090  0.39900  Biso   1.000  C
  C20      1.0000 0.05880  0.58910  0.89900  Biso   1.000  C
  C21      1.0000 0.93130  0.96110  0.58940  Biso   1.000  C
  C22      1.0000 0.93130  0.53890  0.08940  Biso   1.000  C
  C23      1.0000 0.06870  0.03890  0.41060  Biso   1.000  C
  C24      1.0000 0.06870  0.46110  0.91060  Biso   1.000  C
  C25      1.0000 0.02300  0.88500  0.63080  Biso   1.000  C
  C26      1.0000 0.02300  0.61500  0.13080  Biso   1.000  C
  C27      1.0000 0.97700  0.11500  0.36920  Biso   1.000  C
  C28      1.0000 0.97700  0.38500  0.86920  Biso   1.000  C
  H17      1.0000 0.09650  0.91310  0.66820  Biso   1.000  H
  H18      1.0000 0.09650  0.58690  0.16820  Biso   1.000  H
  H19      1.0000 0.90350  0.08690  0.33180  Biso   1.000  H
  H20      1.0000 0.90350  0.41310  0.83180  Biso   1.000  H
  C29      1.0000 0.00590  0.76970  0.61670  Biso   1.000  C
  C30      1.0000 0.00590  0.73030  0.11670  Biso   1.000  C
  C31      1.0000 0.99410  0.23030  0.38330  Biso   1.000  C
  C32      1.0000 0.99410  0.26970  0.88330  Biso   1.000  C
  H21      1.0000 0.06760  0.71840  0.64370  Biso   1.000  H
  H22      1.0000 0.06760  0.78160  0.14370  Biso   1.000  H
  H23      1.0000 0.93240  0.28160  0.35630  Biso   1.000  H
  H24      1.0000 0.93240  0.21840  0.85630  Biso   1.000  H
  C33      1.0000 0.89440  0.72820  0.56130  Biso   1.000  C
  C34      1.0000 0.89440  0.77180  0.06130  Biso   1.000  C
  C35      1.0000 0.10560  0.27180  0.43870  Biso   1.000  C
  C36      1.0000 0.10560  0.22820  0.93870  Biso   1.000  C
  H25      1.0000 0.88030  0.64920  0.55170  Biso   1.000  H
  H26      1.0000 0.88030  0.85080  0.05170  Biso   1.000  H
  H27      1.0000 0.11970  0.35080  0.44830  Biso   1.000  H
  H28      1.0000 0.11970  0.14920  0.94830  Biso   1.000  H
  C37      1.0000 0.80710  0.80710  0.52180  Biso   1.000  C
  C38      1.0000 0.80710  0.69290  0.02180  Biso   1.000  C
  C39      1.0000 0.19290  0.19290  0.47820  Biso   1.000  C
  C40      1.0000 0.19290  0.30710  0.97820  Biso   1.000  C
  H29      1.0000 0.73290  0.78030  0.48490  Biso   1.000  H
  H30      1.0000 0.73290  0.71970  0.98490  Biso   1.000  H
  H31      1.0000 0.26710  0.21970  0.51510  Biso   1.000  H
  H32      1.0000 0.26710  0.28030  0.01510  Biso   1.000  H
  C41      1.0000 0.51610  0.22030  0.41040  Biso   1.000  C
  C42      1.0000 0.51610  0.27970  0.91040  Biso   1.000  C
  C43      1.0000 0.48390  0.77970  0.58960  Biso   1.000  C
  C44      1.0000 0.48390  0.72030  0.08960  Biso   1.000  C
  H33      1.0000 0.50040  0.19750  0.46610  Biso   1.000  H
  H34      1.0000 0.50040  0.30250  0.96610  Biso   1.000  H
  H35      1.0000 0.49960  0.80250  0.53390  Biso   1.000  H
  H36      1.0000 0.49960  0.69750  0.03390  Biso   1.000  H
  C45      1.0000 0.44060  0.29720  0.34740  Biso   1.000  C
  C46      1.0000 0.44060  0.20280  0.84740  Biso   1.000  C
  C47      1.0000 0.55940  0.70280  0.65260  Biso   1.000  C
  C48      1.0000 0.55940  0.79720  0.15260  Biso   1.000  C
  H37      1.0000 0.37530  0.32520  0.36020  Biso   1.000  H
  H38      1.0000 0.37530  0.17480  0.86020  Biso   1.000  H
  H39      1.0000 0.62470  0.67480  0.63980  Biso   1.000  H
  H40      1.0000 0.62470  0.82520  0.13980  Biso   1.000  H
  C49      1.0000 0.56080  0.28820  0.24840  Biso   1.000  C
  C50      1.0000 0.56080  0.21180  0.74840  Biso   1.000  C
  C51      1.0000 0.43920  0.71180  0.75160  Biso   1.000  C
  C52      1.0000 0.43920  0.78820  0.25160  Biso   1.000  C
  H41      1.0000 0.57790  0.30890  0.19280  Biso   1.000  H
  H42      1.0000 0.57790  0.19110  0.69280  Biso   1.000  H
  H43      1.0000 0.42210  0.69110  0.80720  Biso   1.000  H
  H44      1.0000 0.42210  0.80890  0.30720  Biso   1.000  H
  C53      1.0000 0.46380  0.33200  0.26420  Biso   1.000  C
  C54      1.0000 0.46380  0.16800  0.76420  Biso   1.000  C
  C55      1.0000 0.53620  0.66800  0.73580  Biso   1.000  C
  C56      1.0000 0.53620  0.83200  0.23580  Biso   1.000  C
  C57      1.0000 0.63410  0.21180  0.31720  Biso   1.000  C
  C58      1.0000 0.63410  0.28820  0.81720  Biso   1.000  C
  C59      1.0000 0.36590  0.78820  0.68280  Biso   1.000  C
  C60      1.0000 0.36590  0.71180  0.18280  Biso   1.000  C
  H45      1.0000 0.70150  0.18440  0.30750  Biso   1.000  H
  H46      1.0000 0.70150  0.31560  0.80750  Biso   1.000  H
  H47      1.0000 0.29850  0.81560  0.69250  Biso   1.000  H
  H48      1.0000 0.29850  0.68440  0.19250  Biso   1.000  H
  C61      1.0000 0.38270  0.41520  0.19370  Biso   1.000  C
  C62      1.0000 0.38270  0.08480  0.69370  Biso   1.000  C
  C63      1.0000 0.61730  0.58480  0.80630  Biso   1.000  C
  C64      1.0000 0.61730  0.91520  0.30630  Biso   1.000  C
  O1       1.0000 0.30130  0.46100  0.21240  Biso   1.000  O
  O2       1.0000 0.30130  0.03900  0.71240  Biso   1.000  O
  O3       1.0000 0.69870  0.53900  0.78760  Biso   1.000  O
  O4       1.0000 0.69870  0.96100  0.28760  Biso   1.000  O
  O5       1.0000 0.40550  0.43560  0.11390  Biso   1.000  O
  O6       1.0000 0.40550  0.06440  0.61390  Biso   1.000  O
  O7       1.0000 0.59450  0.56440  0.88610  Biso   1.000  O
  O8       1.0000 0.59450  0.93560  0.38610  Biso   1.000  O
  N13      1.0000 0.78070  0.00210  0.82510  Biso   1.000  N
  N14      1.0000 0.78070  0.49790  0.32510  Biso   1.000  N
  N15      1.0000 0.21930  0.99790  0.17490  Biso   1.000  N
  N16      1.0000 0.21930  0.50210  0.67490  Biso   1.000  N
  O9       1.0000 0.82250  0.03970  0.76440  Biso   1.000  O
  O10      1.0000 0.82250  0.46030  0.26440  Biso   1.000  O
  O11      1.0000 0.17750  0.96030  0.23560  Biso   1.000  O
  O12      1.0000 0.17750  0.53970  0.73560  Biso   1.000  O
  O13      1.0000 0.82420  0.02760  0.91130  Biso   1.000  O
  O14      1.0000 0.82420  0.47240  0.41130  Biso   1.000  O
  O15      1.0000 0.17580  0.97240  0.08870  Biso   1.000  O
  O16      1.0000 0.17580  0.52760  0.58870  Biso   1.000  O
  O17      1.0000 0.69280  0.94150  0.79640  Biso   1.000  O
  O18      1.0000 0.69280  0.55850  0.29640  Biso   1.000  O
  O19      1.0000 0.30720  0.05850  0.20360  Biso   1.000  O
  O20      1.0000 0.30720  0.44150  0.70360  Biso   1.000  O
  O21      1.0000 0.62420  0.02750  0.58610  Biso   1.000  O
  O22      1.0000 0.62420  0.47250  0.08610  Biso   1.000  O
  O23      1.0000 0.37580  0.97250  0.41390  Biso   1.000  O
  O24      1.0000 0.37580  0.52750  0.91390  Biso   1.000  O
  H49      1.0000 0.67400  0.00090  0.63830  Biso   1.000  H
  H50      1.0000 0.67400  0.49910  0.13830  Biso   1.000  H
  H51      1.0000 0.32600  0.99910  0.36170  Biso   1.000  H
  H52      1.0000 0.32600  0.50090  0.86170  Biso   1.000  H
  H53      1.0000 0.55870  0.03330  0.59530  Biso   1.000  H
  H54      1.0000 0.55870  0.46670  0.09530  Biso   1.000  H
  H55      1.0000 0.44130  0.96670  0.40470  Biso   1.000  H
  H56      1.0000 0.44130  0.53330  0.90470  Biso   1.000  H
  O25      1.0000 0.39780  0.09730  0.04760  Biso   1.000  O
  O26      1.0000 0.39780  0.40270  0.54760  Biso   1.000  O
  O27      1.0000 0.60220  0.90270  0.95240  Biso   1.000  O
  O28      1.0000 0.60220  0.59730  0.45240  Biso   1.000  O
  H57      1.0000 0.38600  0.04590  0.00350  Biso   1.000  H
  H58      1.0000 0.38600  0.45410  0.50350  Biso   1.000  H
  H59      1.0000 0.61400  0.95410  0.99650  Biso   1.000  H
  H60      1.0000 0.61400  0.54590  0.49650  Biso   1.000  H
  H61      1.0000 0.36160  0.06450  0.08140  Biso   1.000  H
  H62      1.0000 0.36160  0.43550  0.58140  Biso   1.000  H
  H63      1.0000 0.63840  0.93550  0.91860  Biso   1.000  H
  H64      1.0000 0.63840  0.56450  0.41860  Biso   1.000  H
  O29      1.0000 0.64390  0.07380  0.09960  Biso   1.000  O
  O30      1.0000 0.64390  0.42620  0.59960  Biso   1.000  O
  O31      1.0000 0.35610  0.92620  0.90040  Biso   1.000  O
  O32      1.0000 0.35610  0.57380  0.40040  Biso   1.000  O
  H65      1.0000 0.68140  0.04140  0.15380  Biso   1.000  H
  H66      1.0000 0.68140  0.45860  0.65380  Biso   1.000  H
  H67      1.0000 0.31860  0.95860  0.84620  Biso   1.000  H
  H68      1.0000 0.31860  0.54140  0.34620  Biso   1.000  H
  H69      1.0000 0.56970  0.08030  0.08360  Biso   1.000  H
  H70      1.0000 0.56970  0.41970  0.58360  Biso   1.000  H
  H71      1.0000 0.43030  0.91970  0.91640  Biso   1.000  H
  H72      1.0000 0.43030  0.58030  0.41640  Biso   1.000  H
