data_image0
_cell_length_a       8.1812
_cell_length_b       11.94
_cell_length_c       13.881
_cell_angle_alpha    95.64
_cell_angle_beta     93.97
_cell_angle_gamma    97.51

_symmetry_space_group_name_H-M    "P 1"
_symmetry_int_tables_number       1

loop_
  _symmetry_equiv_pos_as_xyz
  'x, y, z'

loop_
  _atom_site_label
  _atom_site_occupancy
  _atom_site_fract_x
  _atom_site_fract_y
  _atom_site_fract_z
  _atom_site_thermal_displace_type
  _atom_site_B_iso_or_equiv
  _atom_site_type_symbol
  Cu1      1.0000 0.47450  0.17111  0.39884  Biso   1.000  Cu
  Cu2      1.0000 0.52550  0.82889  0.60116  Biso   1.000  Cu
  Cu3      1.0000 0.63409  0.58251  0.17485  Biso   1.000  Cu
  Cu4      1.0000 0.36591  0.41749  0.82515  Biso   1.000  Cu
  O1       1.0000 0.63850  0.12320  0.49450  Biso   1.000  O
  O2       1.0000 0.36150  0.87680  0.50550  Biso   1.000  O
  O3       1.0000 0.61090  0.31940  0.41870  Biso   1.000  O
  O4       1.0000 0.38910  0.68060  0.58130  Biso   1.000  O
  O5       1.0000 0.80570  0.26920  0.32520  Biso   1.000  O
  O6       1.0000 0.19430  0.73080  0.67480  Biso   1.000  O
  O7       1.0000 0.76130  0.51300  0.27150  Biso   1.000  O
  O8       1.0000 0.23870  0.48700  0.72850  Biso   1.000  O
  O9       1.0000 0.02480  0.57620  0.25070  Biso   1.000  O
  O10      1.0000 0.97520  0.42380  0.74930  Biso   1.000  O
  O11      1.0000 0.63430  0.44440  0.08110  Biso   1.000  O
  O12      1.0000 0.36570  0.55560  0.91890  Biso   1.000  O
  N1       1.0000 0.66320  0.96720  0.57550  Biso   1.000  N
  N2       1.0000 0.33680  0.03280  0.42450  Biso   1.000  N
  N3       1.0000 0.69170  0.77140  0.69190  Biso   1.000  N
  N4       1.0000 0.30830  0.22860  0.30810  Biso   1.000  N
  N5       1.0000 0.52570  0.37920  0.92490  Biso   1.000  N
  N6       1.0000 0.47430  0.62080  0.07510  Biso   1.000  N
  N7       1.0000 0.41290  0.29720  0.71820  Biso   1.000  N
  N8       1.0000 0.58710  0.70280  0.28180  Biso   1.000  N
  C1       1.0000 0.58660  0.02630  0.51930  Biso   1.000  C
  C2       1.0000 0.41340  0.97370  0.48070  Biso   1.000  C
  C3       1.0000 0.83180  0.01340  0.61740  Biso   1.000  C
  C4       1.0000 0.16820  0.98660  0.38260  Biso   1.000  C
  H1       1.0000 0.89360  0.04760  0.56800  Biso   1.000  H
  H2       1.0000 0.10640  0.95240  0.43200  Biso   1.000  H
  H3       1.0000 0.82580  0.07240  0.66980  Biso   1.000  H
  H4       1.0000 0.17420  0.92760  0.33020  Biso   1.000  H
  C5       1.0000 0.92200  0.92220  0.65590  Biso   1.000  C
  C6       1.0000 0.07800  0.07780  0.34410  Biso   1.000  C
  H5       1.0000 0.03120  0.95650  0.68380  Biso   1.000  H
  H6       1.0000 0.96880  0.04350  0.31620  Biso   1.000  H
  H7       1.0000 0.93600  0.86680  0.60220  Biso   1.000  H
  H8       1.0000 0.06400  0.13320  0.39780  Biso   1.000  H
  C7       1.0000 0.83350  0.86190  0.73170  Biso   1.000  C
  C8       1.0000 0.16650  0.13810  0.26830  Biso   1.000  C
  H9       1.0000 0.91300  0.82700  0.76970  Biso   1.000  H
  H10      1.0000 0.08700  0.17300  0.23030  Biso   1.000  H
  H11      1.0000 0.79130  0.91780  0.77530  Biso   1.000  H
  H12      1.0000 0.20870  0.08220  0.22470  Biso   1.000  H
  C9       1.0000 0.75260  0.67510  0.63920  Biso   1.000  C
  C10      1.0000 0.24740  0.32490  0.36080  Biso   1.000  C
  H13      1.0000 0.80770  0.70010  0.58470  Biso   1.000  H
  H14      1.0000 0.19230  0.29990  0.41530  Biso   1.000  H
  H15      1.0000 0.82880  0.64460  0.68170  Biso   1.000  H
  H16      1.0000 0.17120  0.35540  0.31830  Biso   1.000  H
  H17      1.0000 0.66110  0.61750  0.61660  Biso   1.000  H
  H18      1.0000 0.33890  0.38250  0.38340  Biso   1.000  H
  C11      1.0000 0.60900  0.73020  0.77580  Biso   1.000  C
  C12      1.0000 0.39100  0.26980  0.22420  Biso   1.000  C
  H19      1.0000 0.56750  0.79210  0.81130  Biso   1.000  H
  H20      1.0000 0.43250  0.20790  0.18870  Biso   1.000  H
  H21      1.0000 0.51880  0.67170  0.75290  Biso   1.000  H
  H22      1.0000 0.48120  0.32830  0.24710  Biso   1.000  H
  H23      1.0000 0.68700  0.70010  0.81750  Biso   1.000  H
  H24      1.0000 0.31300  0.29990  0.18250  Biso   1.000  H
  C13      1.0000 0.75480  0.33110  0.38950  Biso   1.000  C
  C14      1.0000 0.24520  0.66890  0.61050  Biso   1.000  C
  C15      1.0000 0.87720  0.42360  0.44590  Biso   1.000  C
  C16      1.0000 0.12280  0.57640  0.55410  Biso   1.000  C
  C17      1.0000 0.91660  0.41310  0.54270  Biso   1.000  C
  C18      1.0000 0.08340  0.58690  0.45730  Biso   1.000  C
  H25      1.0000 0.86000  0.35420  0.57140  Biso   1.000  H
  H26      1.0000 0.14000  0.64580  0.42860  Biso   1.000  H
  C19      1.0000 0.96110  0.51130  0.40220  Biso   1.000  C
  C20      1.0000 0.03890  0.48870  0.59780  Biso   1.000  C
  C21      1.0000 0.91560  0.53450  0.29830  Biso   1.000  C
  C22      1.0000 0.08440  0.46550  0.70170  Biso   1.000  C
  C23      1.0000 0.54520  0.45050  0.00300  Biso   1.000  C
  C24      1.0000 0.45480  0.54950  0.99700  Biso   1.000  C
  C25      1.0000 0.61240  0.28090  0.92500  Biso   1.000  C
  C26      1.0000 0.38760  0.71910  0.07500  Biso   1.000  C
  H27      1.0000 0.71510  0.30080  0.96600  Biso   1.000  H
  H28      1.0000 0.28490  0.69920  0.03400  Biso   1.000  H
  H29      1.0000 0.54540  0.22070  0.95240  Biso   1.000  H
  H30      1.0000 0.45460  0.77930  0.04760  Biso   1.000  H
  H31      1.0000 0.27670  0.69810  0.09380  Biso   1.000  H
  H32      1.0000 0.72330  0.30190  0.90620  Biso   1.000  H
  H33      1.0000 0.37770  0.74080  0.00950  Biso   1.000  H
  H34      1.0000 0.62230  0.25920  0.99050  Biso   1.000  H
  C27      1.0000 0.65090  0.23700  0.82210  Biso   1.000  C
  C28      1.0000 0.34910  0.76300  0.17790  Biso   1.000  C
  H35      1.0000 0.70630  0.17030  0.82570  Biso   1.000  H
  H36      1.0000 0.29370  0.82970  0.17430  Biso   1.000  H
  H37      1.0000 0.72600  0.29490  0.79720  Biso   1.000  H
  H38      1.0000 0.27400  0.70510  0.20280  Biso   1.000  H
  C29      1.0000 0.47500  0.82140  0.14330  Biso   1.000  C
  C30      1.0000 0.52500  0.17860  0.85670  Biso   1.000  C
  H39      1.0000 0.58200  0.84630  0.12070  Biso   1.000  H
  H40      1.0000 0.41800  0.15370  0.87930  Biso   1.000  H
  H41      1.0000 0.41000  0.88360  0.14200  Biso   1.000  H
  H42      1.0000 0.59000  0.11640  0.85800  Biso   1.000  H
  C31      1.0000 0.50110  0.20760  0.75420  Biso   1.000  C
  C32      1.0000 0.49890  0.79240  0.24580  Biso   1.000  C
  H43      1.0000 0.42220  0.15820  0.78530  Biso   1.000  H
  H44      1.0000 0.57780  0.84180  0.21470  Biso   1.000  H
  H45      1.0000 0.53140  0.16270  0.69780  Biso   1.000  H
  H46      1.0000 0.46860  0.83730  0.30220  Biso   1.000  H
  H47      1.0000 0.55610  0.86200  0.28150  Biso   1.000  H
  H48      1.0000 0.44390  0.13800  0.71850  Biso   1.000  H
  H49      1.0000 0.39010  0.78140  0.27000  Biso   1.000  H
  H50      1.0000 0.60990  0.21860  0.73000  Biso   1.000  H
  C33      1.0000 0.25660  0.23570  0.66460  Biso   1.000  C
  C34      1.0000 0.74340  0.76430  0.33540  Biso   1.000  C
  H51      1.0000 0.18870  0.28990  0.64350  Biso   1.000  H
  H52      1.0000 0.81130  0.71010  0.35650  Biso   1.000  H
  H53      1.0000 0.28310  0.18900  0.60910  Biso   1.000  H
  H54      1.0000 0.71690  0.81100  0.39090  Biso   1.000  H
  H55      1.0000 0.19780  0.18880  0.70680  Biso   1.000  H
  H56      1.0000 0.80220  0.81120  0.29320  Biso   1.000  H
  C35      1.0000 0.50620  0.35970  0.64830  Biso   1.000  C
  C36      1.0000 0.49380  0.64030  0.35170  Biso   1.000  C
  H57      1.0000 0.43710  0.40740  0.61780  Biso   1.000  H
  H58      1.0000 0.56290  0.59260  0.38220  Biso   1.000  H
  H59      1.0000 0.60210  0.40570  0.68190  Biso   1.000  H
  H60      1.0000 0.39790  0.59430  0.31810  Biso   1.000  H
  H61      1.0000 0.54010  0.30650  0.59980  Biso   1.000  H
  H62      1.0000 0.45990  0.69350  0.40020  Biso   1.000  H
  O13      1.0000 0.61290  0.06930  0.27610  Biso   1.000  O
  O14      1.0000 0.38710  0.93070  0.72390  Biso   1.000  O
  H63      1.0000 0.69190  0.12170  0.27610  Biso   1.000  H
  H64      1.0000 0.30810  0.87830  0.72390  Biso   1.000  H
  H65      1.0000 0.58830  0.04280  0.21210  Biso   1.000  H
  H66      1.0000 0.41170  0.95720  0.78790  Biso   1.000  H
  O15      1.0000 0.86780  0.67940  0.11470  Biso   1.000  O
  O16      1.0000 0.13220  0.32060  0.88530  Biso   1.000  O
  H67      1.0000 0.89110  0.65590  0.05370  Biso   1.000  H
  H68      1.0000 0.10890  0.34410  0.94630  Biso   1.000  H
  H69      1.0000 0.94700  0.66550  0.15530  Biso   1.000  H
  H70      1.0000 0.05300  0.33450  0.84470  Biso   1.000  H
  O17      1.0000 0.84150  0.29070  0.13490  Biso   1.000  O
  O18      1.0000 0.15850  0.70930  0.86510  Biso   1.000  O
  H71      1.0000 0.84680  0.27670  0.19750  Biso   1.000  H
  H72      1.0000 0.15320  0.72330  0.80250  Biso   1.000  H
  H73      1.0000 0.76040  0.32950  0.12940  Biso   1.000  H
  H74      1.0000 0.23960  0.67050  0.87060  Biso   1.000  H
  O19      1.0000 0.98270  0.91340  0.11500  Biso   1.000  O
  O20      1.0000 0.01730  0.08660  0.88500  Biso   1.000  O
  H75      1.0000 0.94510  0.83860  0.11940  Biso   1.000  H
  H76      1.0000 0.05490  0.16140  0.88060  Biso   1.000  H
  H77      1.0000 0.07770  0.91280  0.09030  Biso   1.000  H
  H78      1.0000 0.92230  0.08720  0.90970  Biso   1.000  H
  O21      1.0000 0.88440  0.58580  0.92930  Biso   1.000  O
  O22      1.0000 0.11560  0.41420  0.07070  Biso   1.000  O
  H79      1.0000 0.95410  0.62630  0.90200  Biso   1.000  H
  H80      1.0000 0.04590  0.37370  0.09800  Biso   1.000  H
  H81      1.0000 0.86180  0.52480  0.88870  Biso   1.000  H
  H82      1.0000 0.13820  0.47520  0.11130  Biso   1.000  H
  O23      1.0000 0.80320  0.07170  0.03600  Biso   1.000  O
  O24      1.0000 0.19680  0.92830  0.96400  Biso   1.000  O
  H83      1.0000 0.83360  0.01350  0.06720  Biso   1.000  H
  H84      1.0000 0.16640  0.98650  0.93280  Biso   1.000  H
  H85      1.0000 0.83440  0.13260  0.07510  Biso   1.000  H
  H86      1.0000 0.16560  0.86740  0.92490  Biso   1.000  H
  O25      1.0000 0.48900  0.02340  0.08310  Biso   1.000  O
  O26      1.0000 0.51100  0.97660  0.91690  Biso   1.000  O
  H87      1.0000 0.57590  0.03420  0.05570  Biso   1.000  H
  H88      1.0000 0.42410  0.96580  0.94430  Biso   1.000  H
  H89      1.0000 0.41330  0.99520  0.03630  Biso   1.000  H
  H90      1.0000 0.58670  0.00480  0.96370  Biso   1.000  H
