data_image0
_cell_length_a       5.5765
_cell_length_b       6.8304
_cell_length_c       9.2379
_cell_angle_alpha    100.688
_cell_angle_beta     101.462
_cell_angle_gamma    112.624

_symmetry_space_group_name_H-M    "P 1"
_symmetry_int_tables_number       1

loop_
  _symmetry_equiv_pos_as_xyz
  'x, y, z'

loop_
  _atom_site_label
  _atom_site_occupancy
  _atom_site_fract_x
  _atom_site_fract_y
  _atom_site_fract_z
  _atom_site_thermal_displace_type
  _atom_site_B_iso_or_equiv
  _atom_site_type_symbol
  Cu1      1.0000 0.44129  0.88437  0.11945  Biso   1.000  Cu
  Cu2      1.0000 0.55871  0.11563  0.88055  Biso   1.000  Cu
  Mo1      1.0000 0.69807  0.66173  0.88927  Biso   1.000  Mo
  Mo2      1.0000 0.30193  0.33827  0.11073  Biso   1.000  Mo
  O1       1.0000 0.78040  0.69740  0.72400  Biso   1.000  O
  O2       1.0000 0.21960  0.30260  0.27600  Biso   1.000  O
  O3       1.0000 0.99850  0.75840  0.03600  Biso   1.000  O
  O4       1.0000 0.00150  0.24160  0.96400  Biso   1.000  O
  O5       1.0000 0.49350  0.17370  0.08180  Biso   1.000  O
  O6       1.0000 0.50650  0.82630  0.91820  Biso   1.000  O
  O7       1.0000 0.50230  0.62910  0.14630  Biso   1.000  O
  O8       1.0000 0.49770  0.37090  0.85370  Biso   1.000  O
  N1       1.0000 0.44890  0.98740  0.33720  Biso   1.000  N
  N2       1.0000 0.55110  0.01260  0.66280  Biso   1.000  N
  H1       1.0000 0.40300  0.10300  0.34400  Biso   1.000  H
  H2       1.0000 0.59700  0.89700  0.65600  Biso   1.000  H
  C1       1.0000 0.25580  0.82440  0.39200  Biso   1.000  C
  C2       1.0000 0.74420  0.17560  0.60800  Biso   1.000  C
  H3       1.0000 0.29540  0.69720  0.38600  Biso   1.000  H
  H4       1.0000 0.70460  0.30280  0.61400  Biso   1.000  H
  H5       1.0000 0.07250  0.77390  0.32570  Biso   1.000  H
  H6       1.0000 0.92750  0.22610  0.67430  Biso   1.000  H
  C3       1.0000 0.72790  0.07730  0.44290  Biso   1.000  C
  C4       1.0000 0.27210  0.92270  0.55710  Biso   1.000  C
  H7       1.0000 0.85140  0.19090  0.40880  Biso   1.000  H
  H8       1.0000 0.14860  0.80910  0.59120  Biso   1.000  H
  H9       1.0000 0.78530  0.95970  0.43890  Biso   1.000  H
  H10      1.0000 0.21470  0.04030  0.56110  Biso   1.000  H
