data_image0
_cell_length_a       5.568
_cell_length_b       6.829
_cell_length_c       9.246
_cell_angle_alpha    100.716
_cell_angle_beta     101.521
_cell_angle_gamma    112.5

_symmetry_space_group_name_H-M    "P 1"
_symmetry_int_tables_number       1

loop_
  _symmetry_equiv_pos_as_xyz
  'x, y, z'

loop_
  _atom_site_label
  _atom_site_occupancy
  _atom_site_fract_x
  _atom_site_fract_y
  _atom_site_fract_z
  _atom_site_thermal_displace_type
  _atom_site_B_iso_or_equiv
  _atom_site_type_symbol
  Mo1      1.0000 0.69786  0.66168  0.38921  Biso   1.000  Mo
  Mo2      1.0000 0.30214  0.33832  0.61079  Biso   1.000  Mo
  Cu1      1.0000 0.44127  0.88429  0.61938  Biso   1.000  Cu
  Cu2      1.0000 0.55873  0.11571  0.38062  Biso   1.000  Cu
  O1       1.0000 0.78120  0.69910  0.22420  Biso   1.000  O
  O2       1.0000 0.21880  0.30090  0.77580  Biso   1.000  O
  O3       1.0000 0.99790  0.75830  0.53510  Biso   1.000  O
  O4       1.0000 0.00210  0.24170  0.46490  Biso   1.000  O
  O5       1.0000 0.50260  0.62970  0.64580  Biso   1.000  O
  O6       1.0000 0.49740  0.37030  0.35420  Biso   1.000  O
  O7       1.0000 0.50520  0.82550  0.41740  Biso   1.000  O
  O8       1.0000 0.49480  0.17450  0.58260  Biso   1.000  O
  N1       1.0000 0.44810  0.98820  0.83690  Biso   1.000  N
  N2       1.0000 0.55190  0.01180  0.16310  Biso   1.000  N
  H1       1.0000 0.40120  0.10260  0.84270  Biso   1.000  H
  H2       1.0000 0.59880  0.89740  0.15730  Biso   1.000  H
  C1       1.0000 0.72650  0.07920  0.94270  Biso   1.000  C
  C2       1.0000 0.27350  0.92080  0.05730  Biso   1.000  C
  H3       1.0000 0.84890  0.19310  0.90850  Biso   1.000  H
  H4       1.0000 0.15110  0.80690  0.09150  Biso   1.000  H
  H5       1.0000 0.78560  0.96230  0.93820  Biso   1.000  H
  H6       1.0000 0.21440  0.03770  0.06180  Biso   1.000  H
  C3       1.0000 0.25410  0.82330  0.89250  Biso   1.000  C
  C4       1.0000 0.74590  0.17670  0.10750  Biso   1.000  C
  H7       1.0000 0.29330  0.69570  0.88540  Biso   1.000  H
  H8       1.0000 0.70670  0.30430  0.11460  Biso   1.000  H
  H9       1.0000 0.07000  0.77350  0.82710  Biso   1.000  H
  H10      1.0000 0.93000  0.22650  0.17290  Biso   1.000  H
