data_image0
_cell_length_a       13.664
_cell_length_b       5.4609
_cell_length_c       14.165
_cell_angle_alpha    90
_cell_angle_beta     96.395
_cell_angle_gamma    90

_symmetry_space_group_name_H-M    "P 1"
_symmetry_int_tables_number       1

loop_
  _symmetry_equiv_pos_as_xyz
  'x, y, z'

loop_
  _atom_site_label
  _atom_site_occupancy
  _atom_site_fract_x
  _atom_site_fract_y
  _atom_site_fract_z
  _atom_site_thermal_displace_type
  _atom_site_B_iso_or_equiv
  _atom_site_type_symbol
  Cu1      1.0000 0.02263  0.21417  0.57251  Biso   1.000  Cu
  Cu2      1.0000 0.97737  0.71417  0.92749  Biso   1.000  Cu
  Cu3      1.0000 0.97737  0.78583  0.42749  Biso   1.000  Cu
  Cu4      1.0000 0.02263  0.28583  0.07251  Biso   1.000  Cu
  N1       1.0000 0.92850  0.42720  0.63117  Biso   1.000  N
  N2       1.0000 0.07150  0.92720  0.86883  Biso   1.000  N
  N3       1.0000 0.07150  0.57280  0.36883  Biso   1.000  N
  N4       1.0000 0.92850  0.07280  0.13117  Biso   1.000  N
  N5       1.0000 0.93110  0.44650  0.71463  Biso   1.000  N
  N6       1.0000 0.06890  0.94650  0.78537  Biso   1.000  N
  N7       1.0000 0.06890  0.55350  0.28537  Biso   1.000  N
  N8       1.0000 0.93110  0.05350  0.21463  Biso   1.000  N
  N9       1.0000 0.93000  0.46700  0.79610  Biso   1.000  N
  N10      1.0000 0.07000  0.96700  0.70390  Biso   1.000  N
  N11      1.0000 0.07000  0.53300  0.20390  Biso   1.000  N
  N12      1.0000 0.93000  0.03300  0.29610  Biso   1.000  N
  N13      1.0000 0.08880  0.00550  0.48240  Biso   1.000  N
  N14      1.0000 0.91120  0.50550  0.01760  Biso   1.000  N
  N15      1.0000 0.91120  0.99450  0.51760  Biso   1.000  N
  N16      1.0000 0.08880  0.49450  0.98240  Biso   1.000  N
  N17      1.0000 0.16140  0.05150  0.44460  Biso   1.000  N
  N18      1.0000 0.83860  0.55150  0.05540  Biso   1.000  N
  N19      1.0000 0.83860  0.94850  0.55540  Biso   1.000  N
  N20      1.0000 0.16140  0.44850  0.94460  Biso   1.000  N
  N21      1.0000 0.22960  0.09610  0.40950  Biso   1.000  N
  N22      1.0000 0.77040  0.59610  0.09050  Biso   1.000  N
  N23      1.0000 0.77040  0.90390  0.59050  Biso   1.000  N
  N24      1.0000 0.22960  0.40390  0.90950  Biso   1.000  N
  N25      1.0000 0.13140  0.46330  0.59065  Biso   1.000  N
  N26      1.0000 0.86860  0.96330  0.90935  Biso   1.000  N
  N27      1.0000 0.86860  0.53670  0.40935  Biso   1.000  N
  N28      1.0000 0.13140  0.03670  0.09065  Biso   1.000  N
  H1       1.0000 0.14670  0.50830  0.53290  Biso   1.000  H
  H2       1.0000 0.85330  0.00830  0.96710  Biso   1.000  H
  H3       1.0000 0.85330  0.49170  0.46710  Biso   1.000  H
  H4       1.0000 0.14670  0.99170  0.03290  Biso   1.000  H
  H5       1.0000 0.10810  0.59690  0.61790  Biso   1.000  H
  H6       1.0000 0.89190  0.09690  0.88210  Biso   1.000  H
  H7       1.0000 0.89190  0.40310  0.38210  Biso   1.000  H
  H8       1.0000 0.10810  0.90310  0.11790  Biso   1.000  H
  C1       1.0000 0.22330  0.38670  0.64840  Biso   1.000  C
  C2       1.0000 0.77670  0.88670  0.85160  Biso   1.000  C
  C3       1.0000 0.77670  0.61330  0.35160  Biso   1.000  C
  C4       1.0000 0.22330  0.11330  0.14840  Biso   1.000  C
  H9       1.0000 0.24590  0.23370  0.62360  Biso   1.000  H
  H10      1.0000 0.75410  0.73370  0.87640  Biso   1.000  H
  H11      1.0000 0.75410  0.76630  0.37640  Biso   1.000  H
  H12      1.0000 0.24590  0.26630  0.12360  Biso   1.000  H
  H13      1.0000 0.20970  0.35820  0.71330  Biso   1.000  H
  H14      1.0000 0.79030  0.85820  0.78670  Biso   1.000  H
  H15      1.0000 0.79030  0.64180  0.28670  Biso   1.000  H
  H16      1.0000 0.20970  0.14180  0.21330  Biso   1.000  H
  C5       1.0000 0.30380  0.57600  0.64820  Biso   1.000  C
  C6       1.0000 0.69620  0.07600  0.85180  Biso   1.000  C
  C7       1.0000 0.69620  0.42400  0.35180  Biso   1.000  C
  C8       1.0000 0.30380  0.92400  0.14820  Biso   1.000  C
  C9       1.0000 0.36010  0.58720  0.57450  Biso   1.000  C
  C10      1.0000 0.63990  0.08720  0.92550  Biso   1.000  C
  C11      1.0000 0.63990  0.41280  0.42550  Biso   1.000  C
  C12      1.0000 0.36010  0.91280  0.07450  Biso   1.000  C
  H17      1.0000 0.34840  0.47730  0.52440  Biso   1.000  H
  H18      1.0000 0.65160  0.97730  0.97560  Biso   1.000  H
  H19      1.0000 0.65160  0.52270  0.47560  Biso   1.000  H
  H20      1.0000 0.34840  0.02270  0.02440  Biso   1.000  H
  C13      1.0000 0.43400  0.75920  0.57330  Biso   1.000  C
  C14      1.0000 0.56600  0.25920  0.92670  Biso   1.000  C
  C15      1.0000 0.56600  0.24080  0.42670  Biso   1.000  C
  C16      1.0000 0.43400  0.74080  0.07330  Biso   1.000  C
  H21      1.0000 0.47240  0.76300  0.52300  Biso   1.000  H
  H22      1.0000 0.52760  0.26300  0.97700  Biso   1.000  H
  H23      1.0000 0.52760  0.23700  0.47700  Biso   1.000  H
  H24      1.0000 0.47240  0.73700  0.02300  Biso   1.000  H
  C17      1.0000 0.45100  0.92410  0.64600  Biso   1.000  C
  C18      1.0000 0.54900  0.42410  0.85400  Biso   1.000  C
  C19      1.0000 0.54900  0.07590  0.35400  Biso   1.000  C
  C20      1.0000 0.45100  0.57590  0.14600  Biso   1.000  C
  H25      1.0000 0.50010  0.04180  0.64460  Biso   1.000  H
  H26      1.0000 0.49990  0.54180  0.85540  Biso   1.000  H
  H27      1.0000 0.49990  0.95820  0.35540  Biso   1.000  H
  H28      1.0000 0.50010  0.45820  0.14460  Biso   1.000  H
  C21      1.0000 0.39680  0.91600  0.71930  Biso   1.000  C
  C22      1.0000 0.60320  0.41600  0.78070  Biso   1.000  C
  C23      1.0000 0.60320  0.08400  0.28070  Biso   1.000  C
  C24      1.0000 0.39680  0.58400  0.21930  Biso   1.000  C
  H29      1.0000 0.40910  0.02720  0.76890  Biso   1.000  H
  H30      1.0000 0.59090  0.52720  0.73110  Biso   1.000  H
  H31      1.0000 0.59090  0.97280  0.23110  Biso   1.000  H
  H32      1.0000 0.40910  0.47280  0.26890  Biso   1.000  H
  C25      1.0000 0.32180  0.74180  0.72190  Biso   1.000  C
  C26      1.0000 0.67820  0.24180  0.77810  Biso   1.000  C
  C27      1.0000 0.67820  0.25820  0.27810  Biso   1.000  C
  C28      1.0000 0.32180  0.75820  0.22190  Biso   1.000  C
  H33      1.0000 0.28440  0.73770  0.77290  Biso   1.000  H
  H34      1.0000 0.71560  0.23770  0.72710  Biso   1.000  H
  H35      1.0000 0.71560  0.26230  0.22710  Biso   1.000  H
  H36      1.0000 0.28440  0.76230  0.27290  Biso   1.000  H
