data_image0
_cell_length_a       17.6366
_cell_length_b       12.1078
_cell_length_c       11.9148
_cell_angle_alpha    90
_cell_angle_beta     90
_cell_angle_gamma    90

_symmetry_space_group_name_H-M    "P 1"
_symmetry_int_tables_number       1

loop_
  _symmetry_equiv_pos_as_xyz
  'x, y, z'

loop_
  _atom_site_label
  _atom_site_occupancy
  _atom_site_fract_x
  _atom_site_fract_y
  _atom_site_fract_z
  _atom_site_thermal_displace_type
  _atom_site_B_iso_or_equiv
  _atom_site_type_symbol
  O1       1.0000 0.53024  0.83528  0.54070  Biso   1.000  O
  O2       1.0000 0.46976  0.16472  0.04070  Biso   1.000  O
  O3       1.0000 0.03024  0.66472  0.54070  Biso   1.000  O
  O4       1.0000 0.96976  0.33528  0.04070  Biso   1.000  O
  C1       1.0000 0.75151  0.95440  0.61650  Biso   1.000  C
  C2       1.0000 0.24849  0.04560  0.11650  Biso   1.000  C
  C3       1.0000 0.25151  0.54560  0.61650  Biso   1.000  C
  C4       1.0000 0.74849  0.45440  0.11650  Biso   1.000  C
  C5       1.0000 0.77089  0.06720  0.66090  Biso   1.000  C
  C6       1.0000 0.22911  0.93280  0.16090  Biso   1.000  C
  C7       1.0000 0.27089  0.43280  0.66090  Biso   1.000  C
  C8       1.0000 0.72911  0.56720  0.16090  Biso   1.000  C
  H1       1.0000 0.75910  0.07050  0.74130  Biso   1.000  H
  H2       1.0000 0.24090  0.92950  0.24130  Biso   1.000  H
  H3       1.0000 0.25910  0.42950  0.74130  Biso   1.000  H
  H4       1.0000 0.74090  0.57050  0.24130  Biso   1.000  H
  H5       1.0000 0.74110  0.12300  0.62090  Biso   1.000  H
  H6       1.0000 0.25890  0.87700  0.12090  Biso   1.000  H
  H7       1.0000 0.24110  0.37700  0.62090  Biso   1.000  H
  H8       1.0000 0.75890  0.62300  0.12090  Biso   1.000  H
  H9       1.0000 0.82500  0.08150  0.64960  Biso   1.000  H
  H10      1.0000 0.17500  0.91850  0.14960  Biso   1.000  H
  H11      1.0000 0.32500  0.41850  0.64960  Biso   1.000  H
  H12      1.0000 0.67500  0.58150  0.14960  Biso   1.000  H
  C9       1.0000 0.73251  0.82340  0.34810  Biso   1.000  C
  C10      1.0000 0.26749  0.17660  0.84810  Biso   1.000  C
  C11      1.0000 0.23251  0.67660  0.34810  Biso   1.000  C
  C12      1.0000 0.76749  0.32340  0.84810  Biso   1.000  C
  C13      1.0000 0.73930  0.86630  0.22920  Biso   1.000  C
  C14      1.0000 0.26070  0.13370  0.72920  Biso   1.000  C
  C15      1.0000 0.23930  0.63370  0.22920  Biso   1.000  C
  C16      1.0000 0.76070  0.36630  0.72920  Biso   1.000  C
  H13      1.0000 0.78950  0.84770  0.19920  Biso   1.000  H
  H14      1.0000 0.21050  0.15230  0.69920  Biso   1.000  H
  H15      1.0000 0.28950  0.65230  0.19920  Biso   1.000  H
  H16      1.0000 0.71050  0.34770  0.69920  Biso   1.000  H
  H17      1.0000 0.73280  0.94670  0.22900  Biso   1.000  H
  H18      1.0000 0.26720  0.05330  0.72900  Biso   1.000  H
  H19      1.0000 0.23280  0.55330  0.22900  Biso   1.000  H
  H20      1.0000 0.76720  0.44670  0.72900  Biso   1.000  H
  H21      1.0000 0.70010  0.83230  0.18230  Biso   1.000  H
  H22      1.0000 0.29990  0.16770  0.68230  Biso   1.000  H
  H23      1.0000 0.20010  0.66770  0.18230  Biso   1.000  H
  H24      1.0000 0.79990  0.33230  0.68230  Biso   1.000  H
  C17      1.0000 0.68352  0.56880  0.48490  Biso   1.000  C
  C18      1.0000 0.31648  0.43120  0.98490  Biso   1.000  C
  C19      1.0000 0.18352  0.93120  0.48490  Biso   1.000  C
  C20      1.0000 0.81648  0.06880  0.98490  Biso   1.000  C
  C21      1.0000 0.66257  0.45390  0.44620  Biso   1.000  C
  C22      1.0000 0.33743  0.54610  0.94620  Biso   1.000  C
  C23      1.0000 0.16257  0.04610  0.44620  Biso   1.000  C
  C24      1.0000 0.83743  0.95390  0.94620  Biso   1.000  C
  H25      1.0000 0.70830  0.40810  0.44270  Biso   1.000  H
  H26      1.0000 0.29170  0.59190  0.94270  Biso   1.000  H
  H27      1.0000 0.20830  0.09190  0.44270  Biso   1.000  H
  H28      1.0000 0.79170  0.90810  0.94270  Biso   1.000  H
  H29      1.0000 0.63930  0.45800  0.37170  Biso   1.000  H
  H30      1.0000 0.36070  0.54200  0.87170  Biso   1.000  H
  H31      1.0000 0.13930  0.04200  0.37170  Biso   1.000  H
  H32      1.0000 0.86070  0.95800  0.87170  Biso   1.000  H
  H33      1.0000 0.62650  0.42130  0.49930  Biso   1.000  H
  H34      1.0000 0.37350  0.57870  0.99930  Biso   1.000  H
  H35      1.0000 0.12650  0.07870  0.49930  Biso   1.000  H
  H36      1.0000 0.87350  0.92130  0.99930  Biso   1.000  H
  C25      1.0000 0.71362  0.69840  0.75210  Biso   1.000  C
  C26      1.0000 0.28638  0.30160  0.25210  Biso   1.000  C
  C27      1.0000 0.21362  0.80160  0.75210  Biso   1.000  C
  C28      1.0000 0.78638  0.19840  0.25210  Biso   1.000  C
  C29      1.0000 0.71030  0.66220  0.87300  Biso   1.000  C
  C30      1.0000 0.28970  0.33780  0.37300  Biso   1.000  C
  C31      1.0000 0.21030  0.83780  0.87300  Biso   1.000  C
  C32      1.0000 0.78970  0.16220  0.37300  Biso   1.000  C
  H37      1.0000 0.66960  0.70220  0.91160  Biso   1.000  H
  H38      1.0000 0.33040  0.29780  0.41160  Biso   1.000  H
  H39      1.0000 0.16960  0.79780  0.91160  Biso   1.000  H
  H40      1.0000 0.83040  0.20220  0.41160  Biso   1.000  H
  H41      1.0000 0.75880  0.67820  0.90960  Biso   1.000  H
  H42      1.0000 0.24120  0.32180  0.40960  Biso   1.000  H
  H43      1.0000 0.25880  0.82180  0.90960  Biso   1.000  H
  H44      1.0000 0.74120  0.17820  0.40960  Biso   1.000  H
  H45      1.0000 0.70030  0.58270  0.87650  Biso   1.000  H
  H46      1.0000 0.29970  0.41730  0.37650  Biso   1.000  H
  H47      1.0000 0.20030  0.91730  0.87650  Biso   1.000  H
  H48      1.0000 0.79970  0.08270  0.37650  Biso   1.000  H
  C33      1.0000 0.46960  0.79380  0.57970  Biso   1.000  C
  C34      1.0000 0.53040  0.20620  0.07970  Biso   1.000  C
  C35      1.0000 0.96960  0.70620  0.57970  Biso   1.000  C
  C36      1.0000 0.03040  0.29380  0.07970  Biso   1.000  C
  C37      1.0000 0.47463  0.71070  0.67440  Biso   1.000  C
  C38      1.0000 0.52537  0.28930  0.17440  Biso   1.000  C
  C39      1.0000 0.97463  0.78930  0.67440  Biso   1.000  C
  C40      1.0000 0.02537  0.21070  0.17440  Biso   1.000  C
  H49      1.0000 0.51610  0.73120  0.72500  Biso   1.000  H
  H50      1.0000 0.48390  0.26880  0.22500  Biso   1.000  H
  H51      1.0000 0.01610  0.76880  0.72500  Biso   1.000  H
  H52      1.0000 0.98390  0.23120  0.22500  Biso   1.000  H
  H53      1.0000 0.42670  0.70990  0.71610  Biso   1.000  H
  H54      1.0000 0.57330  0.29010  0.21610  Biso   1.000  H
  H55      1.0000 0.92670  0.79010  0.71610  Biso   1.000  H
  H56      1.0000 0.07330  0.20990  0.21610  Biso   1.000  H
  H57      1.0000 0.48430  0.63710  0.64330  Biso   1.000  H
  H58      1.0000 0.51570  0.36290  0.14330  Biso   1.000  H
  H59      1.0000 0.98430  0.86290  0.64330  Biso   1.000  H
  H60      1.0000 0.01570  0.13710  0.14330  Biso   1.000  H
  C41      1.0000 0.54064  0.99910  0.28590  Biso   1.000  C
  C42      1.0000 0.45936  0.00090  0.78590  Biso   1.000  C
  C43      1.0000 0.04064  0.50090  0.28590  Biso   1.000  C
  C44      1.0000 0.95936  0.49910  0.78590  Biso   1.000  C
  H61      1.0000 0.57950  0.95170  0.25010  Biso   1.000  H
  H62      1.0000 0.42050  0.04830  0.75010  Biso   1.000  H
  H63      1.0000 0.07950  0.54830  0.25010  Biso   1.000  H
  H64      1.0000 0.92050  0.45170  0.75010  Biso   1.000  H
  H65      1.0000 0.51810  0.04640  0.22700  Biso   1.000  H
  H66      1.0000 0.48190  0.95360  0.72700  Biso   1.000  H
  H67      1.0000 0.01810  0.45360  0.22700  Biso   1.000  H
  H68      1.0000 0.98190  0.54640  0.72700  Biso   1.000  H
  C45      1.0000 0.57807  0.07100  0.37240  Biso   1.000  C
  C46      1.0000 0.42193  0.92900  0.87240  Biso   1.000  C
  C47      1.0000 0.07807  0.42900  0.37240  Biso   1.000  C
  C48      1.0000 0.92193  0.57100  0.87240  Biso   1.000  C
  H69      1.0000 0.59670  0.02500  0.43410  Biso   1.000  H
  H70      1.0000 0.40330  0.97500  0.93410  Biso   1.000  H
  H71      1.0000 0.09670  0.47500  0.43410  Biso   1.000  H
  H72      1.0000 0.90330  0.52500  0.93410  Biso   1.000  H
  H73      1.0000 0.54120  0.12450  0.40130  Biso   1.000  H
  H74      1.0000 0.45880  0.87550  0.90130  Biso   1.000  H
  H75      1.0000 0.04120  0.37550  0.40130  Biso   1.000  H
  H76      1.0000 0.95880  0.62450  0.90130  Biso   1.000  H
  H77      1.0000 0.62070  0.11050  0.33800  Biso   1.000  H
  H78      1.0000 0.37930  0.88950  0.83800  Biso   1.000  H
  H79      1.0000 0.12070  0.38950  0.33800  Biso   1.000  H
  H80      1.0000 0.87930  0.61050  0.83800  Biso   1.000  H
  C49      1.0000 0.47840  0.81310  0.28490  Biso   1.000  C
  C50      1.0000 0.52160  0.18690  0.78490  Biso   1.000  C
  C51      1.0000 0.97840  0.68690  0.28490  Biso   1.000  C
  C52      1.0000 0.02160  0.31310  0.78490  Biso   1.000  C
  H81      1.0000 0.44140  0.76680  0.32610  Biso   1.000  H
  H82      1.0000 0.55860  0.23320  0.82610  Biso   1.000  H
  H83      1.0000 0.94140  0.73320  0.32610  Biso   1.000  H
  H84      1.0000 0.05860  0.26680  0.82610  Biso   1.000  H
  H85      1.0000 0.52910  0.77930  0.29450  Biso   1.000  H
  H86      1.0000 0.47090  0.22070  0.79450  Biso   1.000  H
  H87      1.0000 0.02910  0.72070  0.29450  Biso   1.000  H
  H88      1.0000 0.97090  0.27930  0.79450  Biso   1.000  H
  C53      1.0000 0.45810  0.81230  0.16160  Biso   1.000  C
  C54      1.0000 0.54190  0.18770  0.66160  Biso   1.000  C
  C55      1.0000 0.95810  0.68770  0.16160  Biso   1.000  C
  C56      1.0000 0.04190  0.31230  0.66160  Biso   1.000  C
  H89      1.0000 0.49310  0.86050  0.12050  Biso   1.000  H
  H90      1.0000 0.50690  0.13950  0.62050  Biso   1.000  H
  H91      1.0000 0.99310  0.63950  0.12050  Biso   1.000  H
  H92      1.0000 0.00690  0.36050  0.62050  Biso   1.000  H
  H93      1.0000 0.40610  0.83910  0.15200  Biso   1.000  H
  H94      1.0000 0.59390  0.16090  0.65200  Biso   1.000  H
  H95      1.0000 0.90610  0.66090  0.15200  Biso   1.000  H
  H96      1.0000 0.09390  0.33910  0.65200  Biso   1.000  H
  H97      1.0000 0.46200  0.73680  0.13250  Biso   1.000  H
  H98      1.0000 0.53800  0.26320  0.63250  Biso   1.000  H
  H99      1.0000 0.96200  0.76320  0.13250  Biso   1.000  H
  H100     1.0000 0.03800  0.23680  0.63250  Biso   1.000  H
  C57      1.0000 0.40131  0.97710  0.32960  Biso   1.000  C
  C58      1.0000 0.59869  0.02290  0.82960  Biso   1.000  C
  C59      1.0000 0.90131  0.52290  0.32960  Biso   1.000  C
  C60      1.0000 0.09869  0.47710  0.82960  Biso   1.000  C
  H101     1.0000 0.39140  0.99960  0.25110  Biso   1.000  H
  H102     1.0000 0.60860  0.00040  0.75110  Biso   1.000  H
  H103     1.0000 0.89140  0.50040  0.25110  Biso   1.000  H
  H104     1.0000 0.10860  0.49960  0.75110  Biso   1.000  H
  H105     1.0000 0.36340  0.92020  0.34990  Biso   1.000  H
  H106     1.0000 0.63660  0.07980  0.84990  Biso   1.000  H
  H107     1.0000 0.86340  0.57980  0.34990  Biso   1.000  H
  H108     1.0000 0.13660  0.42020  0.84990  Biso   1.000  H
  C61      1.0000 0.39029  0.07520  0.40420  Biso   1.000  C
  C62      1.0000 0.60971  0.92480  0.90420  Biso   1.000  C
  C63      1.0000 0.89029  0.42480  0.40420  Biso   1.000  C
  C64      1.0000 0.10971  0.57520  0.90420  Biso   1.000  C
  H109     1.0000 0.42270  0.13630  0.37690  Biso   1.000  H
  H110     1.0000 0.57730  0.86370  0.87690  Biso   1.000  H
  H111     1.0000 0.92270  0.36370  0.37690  Biso   1.000  H
  H112     1.0000 0.07730  0.63630  0.87690  Biso   1.000  H
  H113     1.0000 0.33690  0.09970  0.39880  Biso   1.000  H
  H114     1.0000 0.66310  0.90030  0.89880  Biso   1.000  H
  H115     1.0000 0.83690  0.40030  0.39880  Biso   1.000  H
  H116     1.0000 0.16310  0.59970  0.89880  Biso   1.000  H
  C65      1.0000 0.95470  0.94890  0.43560  Biso   1.000  C
  C66      1.0000 0.04530  0.05110  0.93560  Biso   1.000  C
  C67      1.0000 0.45470  0.55110  0.43560  Biso   1.000  C
  C68      1.0000 0.54530  0.44890  0.93560  Biso   1.000  C
  H117     1.0000 0.99910  0.90150  0.45190  Biso   1.000  H
  H118     1.0000 0.00090  0.09850  0.95190  Biso   1.000  H
  H119     1.0000 0.49910  0.59850  0.45190  Biso   1.000  H
  H120     1.0000 0.50090  0.40150  0.95190  Biso   1.000  H
  H121     1.0000 0.90850  0.90900  0.46000  Biso   1.000  H
  H122     1.0000 0.09150  0.09100  0.96000  Biso   1.000  H
  H123     1.0000 0.40850  0.59100  0.46000  Biso   1.000  H
  H124     1.0000 0.59150  0.40900  0.96000  Biso   1.000  H
  Cl1      1.0000 0.96271  0.07459  0.51185  Biso   1.000  Cl
  Cl2      1.0000 0.03729  0.92541  0.01185  Biso   1.000  Cl
  Cl3      1.0000 0.46271  0.42541  0.51185  Biso   1.000  Cl
  Cl4      1.0000 0.53729  0.57459  0.01185  Biso   1.000  Cl
  Cl5      1.0000 0.94971  0.97423  0.29048  Biso   1.000  Cl
  Cl6      1.0000 0.05029  0.02577  0.79048  Biso   1.000  Cl
  Cl7      1.0000 0.44971  0.52577  0.29048  Biso   1.000  Cl
  Cl8      1.0000 0.55029  0.47423  0.79048  Biso   1.000  Cl
  Cu1      1.0000 0.64741  0.78765  0.55145  Biso   1.000  Cu
  Cu2      1.0000 0.35259  0.21235  0.05145  Biso   1.000  Cu
  Cu3      1.0000 0.14741  0.71235  0.55145  Biso   1.000  Cu
  Cu4      1.0000 0.85259  0.28765  0.05145  Biso   1.000  Cu
  Cu5      1.0000 0.79170  0.73425  0.54933  Biso   1.000  Cu
  Cu6      1.0000 0.20830  0.26575  0.04933  Biso   1.000  Cu
  Cu7      1.0000 0.29170  0.76575  0.54933  Biso   1.000  Cu
  Cu8      1.0000 0.70830  0.23425  0.04933  Biso   1.000  Cu
  N1       1.0000 0.47918  0.92640  0.33600  Biso   1.000  N
  N2       1.0000 0.52082  0.07360  0.83600  Biso   1.000  N
  N3       1.0000 0.97918  0.57360  0.33600  Biso   1.000  N
  N4       1.0000 0.02082  0.42640  0.83600  Biso   1.000  N
  O5       1.0000 0.68331  0.93611  0.59172  Biso   1.000  O
  O6       1.0000 0.31669  0.06389  0.09172  Biso   1.000  O
  O7       1.0000 0.18331  0.56389  0.59172  Biso   1.000  O
  O8       1.0000 0.81669  0.43611  0.09172  Biso   1.000  O
  O9       1.0000 0.80514  0.88516  0.60950  Biso   1.000  O
  O10      1.0000 0.19486  0.11484  0.10950  Biso   1.000  O
  O11      1.0000 0.30514  0.61484  0.60950  Biso   1.000  O
  O12      1.0000 0.69486  0.38516  0.10950  Biso   1.000  O
  O13      1.0000 0.66722  0.82101  0.39120  Biso   1.000  O
  O14      1.0000 0.33278  0.17899  0.89120  Biso   1.000  O
  O15      1.0000 0.16722  0.67899  0.39120  Biso   1.000  O
  O16      1.0000 0.83278  0.32101  0.89120  Biso   1.000  O
  O17      1.0000 0.79320  0.79523  0.39670  Biso   1.000  O
  O18      1.0000 0.20680  0.20477  0.89670  Biso   1.000  O
  O19      1.0000 0.29320  0.70477  0.39670  Biso   1.000  O
  O20      1.0000 0.70680  0.29523  0.89670  Biso   1.000  O
  O21      1.0000 0.62992  0.63226  0.51144  Biso   1.000  O
  O22      1.0000 0.37008  0.36774  0.01144  Biso   1.000  O
  O23      1.0000 0.12992  0.86774  0.51144  Biso   1.000  O
  O24      1.0000 0.87008  0.13226  0.01144  Biso   1.000  O
  O25      1.0000 0.75253  0.59323  0.48710  Biso   1.000  O
  O26      1.0000 0.24747  0.40677  0.98710  Biso   1.000  O
  O27      1.0000 0.25253  0.90677  0.48710  Biso   1.000  O
  O28      1.0000 0.74747  0.09323  0.98710  Biso   1.000  O
  O29      1.0000 0.77446  0.67820  0.70046  Biso   1.000  O
  O30      1.0000 0.22554  0.32180  0.20046  Biso   1.000  O
  O31      1.0000 0.27446  0.82180  0.70046  Biso   1.000  O
  O32      1.0000 0.72554  0.17820  0.20046  Biso   1.000  O
  O33      1.0000 0.65657  0.74540  0.71145  Biso   1.000  O
  O34      1.0000 0.34343  0.25460  0.21145  Biso   1.000  O
  O35      1.0000 0.15657  0.75460  0.71145  Biso   1.000  O
  O36      1.0000 0.84343  0.24540  0.21145  Biso   1.000  O
  O37      1.0000 0.40590  0.82095  0.54170  Biso   1.000  O
  O38      1.0000 0.59410  0.17905  0.04170  Biso   1.000  O
  O39      1.0000 0.90590  0.67905  0.54170  Biso   1.000  O
  O40      1.0000 0.09410  0.32095  0.04170  Biso   1.000  O
  O41      1.0000 0.40765  0.05410  0.51700  Biso   1.000  O
  O42      1.0000 0.59235  0.94590  0.01700  Biso   1.000  O
  O43      1.0000 0.90765  0.44590  0.51700  Biso   1.000  O
  O44      1.0000 0.09235  0.55410  0.01700  Biso   1.000  O
  H125     1.0000 0.39550  0.98890  0.53300  Biso   1.000  H
  H126     1.0000 0.60450  0.01110  0.03300  Biso   1.000  H
  H127     1.0000 0.89550  0.51110  0.53300  Biso   1.000  H
  H128     1.0000 0.10450  0.48890  0.03300  Biso   1.000  H
