data_image0
_cell_length_a       10.5512
_cell_length_b       19.3389
_cell_length_c       9.7435
_cell_angle_alpha    90
_cell_angle_beta     90
_cell_angle_gamma    90

_symmetry_space_group_name_H-M    "P 1"
_symmetry_int_tables_number       1

loop_
  _symmetry_equiv_pos_as_xyz
  'x, y, z'

loop_
  _atom_site_label
  _atom_site_occupancy
  _atom_site_fract_x
  _atom_site_fract_y
  _atom_site_fract_z
  _atom_site_thermal_displace_type
  _atom_site_B_iso_or_equiv
  _atom_site_type_symbol
  Cu1      1.0000 0.24303  0.04077  0.45597  Biso   1.000  Cu
  Cu2      1.0000 0.75697  0.95923  0.45597  Biso   1.000  Cu
  Cu3      1.0000 0.75697  0.04077  0.95597  Biso   1.000  Cu
  Cu4      1.0000 0.24303  0.95923  0.95597  Biso   1.000  Cu
  Cu5      1.0000 0.74303  0.54077  0.95597  Biso   1.000  Cu
  Cu6      1.0000 0.25697  0.45923  0.95597  Biso   1.000  Cu
  Cu7      1.0000 0.25697  0.54077  0.45597  Biso   1.000  Cu
  Cu8      1.0000 0.74303  0.45923  0.45597  Biso   1.000  Cu
  O1       1.0000 0.08219  0.14342  0.76589  Biso   1.000  O
  O2       1.0000 0.91781  0.85658  0.76589  Biso   1.000  O
  O3       1.0000 0.91781  0.14342  0.26589  Biso   1.000  O
  O4       1.0000 0.08219  0.85658  0.26589  Biso   1.000  O
  O5       1.0000 0.58219  0.64342  0.26589  Biso   1.000  O
  O6       1.0000 0.41781  0.35658  0.26589  Biso   1.000  O
  O7       1.0000 0.41781  0.64342  0.76589  Biso   1.000  O
  O8       1.0000 0.58219  0.35658  0.76589  Biso   1.000  O
  O9       1.0000 0.11498  0.94230  0.49920  Biso   1.000  O
  O10      1.0000 0.88502  0.05770  0.49920  Biso   1.000  O
  O11      1.0000 0.88502  0.94230  0.99920  Biso   1.000  O
  O12      1.0000 0.11498  0.05770  0.99920  Biso   1.000  O
  O13      1.0000 0.61498  0.44230  0.99920  Biso   1.000  O
  O14      1.0000 0.38502  0.55770  0.99920  Biso   1.000  O
  O15      1.0000 0.38502  0.44230  0.49920  Biso   1.000  O
  O16      1.0000 0.61498  0.55770  0.49920  Biso   1.000  O
  H1       1.0000 0.11700  0.90770  0.44700  Biso   1.000  H
  H2       1.0000 0.88300  0.09230  0.44700  Biso   1.000  H
  H3       1.0000 0.88300  0.90770  0.94700  Biso   1.000  H
  H4       1.0000 0.11700  0.09230  0.94700  Biso   1.000  H
  H5       1.0000 0.61700  0.40770  0.94700  Biso   1.000  H
  H6       1.0000 0.38300  0.59230  0.94700  Biso   1.000  H
  H7       1.0000 0.38300  0.40770  0.44700  Biso   1.000  H
  H8       1.0000 0.61700  0.59230  0.44700  Biso   1.000  H
  H9       1.0000 0.04400  0.93520  0.53800  Biso   1.000  H
  H10      1.0000 0.95600  0.06480  0.53800  Biso   1.000  H
  H11      1.0000 0.95600  0.93520  0.03800  Biso   1.000  H
  H12      1.0000 0.04400  0.06480  0.03800  Biso   1.000  H
  H13      1.0000 0.54400  0.43520  0.03800  Biso   1.000  H
  H14      1.0000 0.45600  0.56480  0.03800  Biso   1.000  H
  H15      1.0000 0.45600  0.43520  0.53800  Biso   1.000  H
  H16      1.0000 0.54400  0.56480  0.53800  Biso   1.000  H
  O17      1.0000 0.12635  0.09609  0.56610  Biso   1.000  O
  O18      1.0000 0.87365  0.90391  0.56610  Biso   1.000  O
  O19      1.0000 0.87365  0.09609  0.06610  Biso   1.000  O
  O20      1.0000 0.12635  0.90391  0.06610  Biso   1.000  O
  O21      1.0000 0.62635  0.59609  0.06610  Biso   1.000  O
  O22      1.0000 0.37365  0.40391  0.06610  Biso   1.000  O
  O23      1.0000 0.37365  0.59609  0.56610  Biso   1.000  O
  O24      1.0000 0.62635  0.40391  0.56610  Biso   1.000  O
  O25      1.0000 0.16510  0.08276  0.28970  Biso   1.000  O
  O26      1.0000 0.83490  0.91724  0.28970  Biso   1.000  O
  O27      1.0000 0.83490  0.08276  0.78970  Biso   1.000  O
  O28      1.0000 0.16510  0.91724  0.78970  Biso   1.000  O
  O29      1.0000 0.66510  0.58276  0.78970  Biso   1.000  O
  O30      1.0000 0.33490  0.41724  0.78970  Biso   1.000  O
  O31      1.0000 0.33490  0.58276  0.28970  Biso   1.000  O
  O32      1.0000 0.66510  0.41724  0.28970  Biso   1.000  O
  H17      1.0000 0.09200  0.10340  0.28300  Biso   1.000  H
  H18      1.0000 0.90800  0.89660  0.28300  Biso   1.000  H
  H19      1.0000 0.90800  0.10340  0.78300  Biso   1.000  H
  H20      1.0000 0.09200  0.89660  0.78300  Biso   1.000  H
  H21      1.0000 0.59200  0.60340  0.78300  Biso   1.000  H
  H22      1.0000 0.40800  0.39660  0.78300  Biso   1.000  H
  H23      1.0000 0.40800  0.60340  0.28300  Biso   1.000  H
  H24      1.0000 0.59200  0.39660  0.28300  Biso   1.000  H
  H25      1.0000 0.17000  0.06310  0.21800  Biso   1.000  H
  H26      1.0000 0.83000  0.93690  0.21800  Biso   1.000  H
  H27      1.0000 0.83000  0.06310  0.71800  Biso   1.000  H
  H28      1.0000 0.17000  0.93690  0.71800  Biso   1.000  H
  H29      1.0000 0.67000  0.56310  0.71800  Biso   1.000  H
  H30      1.0000 0.33000  0.43690  0.71800  Biso   1.000  H
  H31      1.0000 0.33000  0.56310  0.21800  Biso   1.000  H
  H32      1.0000 0.67000  0.43690  0.21800  Biso   1.000  H
  O33      1.0000 0.34512  0.02601  0.85851  Biso   1.000  O
  O34      1.0000 0.65488  0.97399  0.85851  Biso   1.000  O
  O35      1.0000 0.65488  0.02601  0.35851  Biso   1.000  O
  O36      1.0000 0.34512  0.97399  0.35851  Biso   1.000  O
  O37      1.0000 0.84512  0.52601  0.35851  Biso   1.000  O
  O38      1.0000 0.15488  0.47399  0.35851  Biso   1.000  O
  O39      1.0000 0.15488  0.52601  0.85851  Biso   1.000  O
  O40      1.0000 0.84512  0.47399  0.85851  Biso   1.000  O
  O41      1.0000 0.31828  0.00547  0.63735  Biso   1.000  O
  O42      1.0000 0.68172  0.99453  0.63735  Biso   1.000  O
  O43      1.0000 0.68172  0.00547  0.13735  Biso   1.000  O
  O44      1.0000 0.31828  0.99453  0.13735  Biso   1.000  O
  O45      1.0000 0.81828  0.50547  0.13735  Biso   1.000  O
  O46      1.0000 0.18172  0.49453  0.13735  Biso   1.000  O
  O47      1.0000 0.18172  0.50547  0.63735  Biso   1.000  O
  O48      1.0000 0.81828  0.49453  0.63735  Biso   1.000  O
  O49      1.0000 0.38661  0.13101  0.46940  Biso   1.000  O
  O50      1.0000 0.61339  0.86899  0.46940  Biso   1.000  O
  O51      1.0000 0.61339  0.13101  0.96940  Biso   1.000  O
  O52      1.0000 0.38661  0.86899  0.96940  Biso   1.000  O
  O53      1.0000 0.88661  0.63101  0.96940  Biso   1.000  O
  O54      1.0000 0.11339  0.36899  0.96940  Biso   1.000  O
  O55      1.0000 0.11339  0.63101  0.46940  Biso   1.000  O
  O56      1.0000 0.88661  0.36899  0.46940  Biso   1.000  O
  C1       1.0000 0.32880  0.19244  0.52750  Biso   1.000  C
  C2       1.0000 0.67120  0.80756  0.52750  Biso   1.000  C
  C3       1.0000 0.67120  0.19244  0.02750  Biso   1.000  C
  C4       1.0000 0.32880  0.80756  0.02750  Biso   1.000  C
  C5       1.0000 0.82880  0.69244  0.02750  Biso   1.000  C
  C6       1.0000 0.17120  0.30756  0.02750  Biso   1.000  C
  C7       1.0000 0.17120  0.69244  0.52750  Biso   1.000  C
  C8       1.0000 0.82880  0.30756  0.52750  Biso   1.000  C
  H33      1.0000 0.25970  0.21120  0.47170  Biso   1.000  H
  H34      1.0000 0.74030  0.78880  0.47170  Biso   1.000  H
  H35      1.0000 0.74030  0.21120  0.97170  Biso   1.000  H
  H36      1.0000 0.25970  0.78880  0.97170  Biso   1.000  H
  H37      1.0000 0.75970  0.71120  0.97170  Biso   1.000  H
  H38      1.0000 0.24030  0.28880  0.97170  Biso   1.000  H
  H39      1.0000 0.24030  0.71120  0.47170  Biso   1.000  H
  H40      1.0000 0.75970  0.28880  0.47170  Biso   1.000  H
  C9       1.0000 0.44180  0.24140  0.54150  Biso   1.000  C
  C10      1.0000 0.55820  0.75860  0.54150  Biso   1.000  C
  C11      1.0000 0.55820  0.24140  0.04150  Biso   1.000  C
  C12      1.0000 0.44180  0.75860  0.04150  Biso   1.000  C
  C13      1.0000 0.94180  0.74140  0.04150  Biso   1.000  C
  C14      1.0000 0.05820  0.25860  0.04150  Biso   1.000  C
  C15      1.0000 0.05820  0.74140  0.54150  Biso   1.000  C
  C16      1.0000 0.94180  0.25860  0.54150  Biso   1.000  C
  H41      1.0000 0.42840  0.27490  0.61420  Biso   1.000  H
  H42      1.0000 0.57160  0.72510  0.61420  Biso   1.000  H
  H43      1.0000 0.57160  0.27490  0.11420  Biso   1.000  H
  H44      1.0000 0.42840  0.72510  0.11420  Biso   1.000  H
  H45      1.0000 0.92840  0.77490  0.11420  Biso   1.000  H
  H46      1.0000 0.07160  0.22510  0.11420  Biso   1.000  H
  H47      1.0000 0.07160  0.77490  0.61420  Biso   1.000  H
  H48      1.0000 0.92840  0.22510  0.61420  Biso   1.000  H
  H49      1.0000 0.45880  0.26550  0.45620  Biso   1.000  H
  H50      1.0000 0.54120  0.73450  0.45620  Biso   1.000  H
  H51      1.0000 0.54120  0.26550  0.95620  Biso   1.000  H
  H52      1.0000 0.45880  0.73450  0.95620  Biso   1.000  H
  H53      1.0000 0.95880  0.76550  0.95620  Biso   1.000  H
  H54      1.0000 0.04120  0.23450  0.95620  Biso   1.000  H
  H55      1.0000 0.04120  0.76550  0.45620  Biso   1.000  H
  H56      1.0000 0.95880  0.23450  0.45620  Biso   1.000  H
  C17      1.0000 0.54910  0.19062  0.57770  Biso   1.000  C
  C18      1.0000 0.45090  0.80938  0.57770  Biso   1.000  C
  C19      1.0000 0.45090  0.19062  0.07770  Biso   1.000  C
  C20      1.0000 0.54910  0.80938  0.07770  Biso   1.000  C
  C21      1.0000 0.04910  0.69062  0.07770  Biso   1.000  C
  C22      1.0000 0.95090  0.30938  0.07770  Biso   1.000  C
  C23      1.0000 0.95090  0.69062  0.57770  Biso   1.000  C
  C24      1.0000 0.04910  0.30938  0.57770  Biso   1.000  C
  H57      1.0000 0.61590  0.19150  0.50920  Biso   1.000  H
  H58      1.0000 0.38410  0.80850  0.50920  Biso   1.000  H
  H59      1.0000 0.38410  0.19150  0.00920  Biso   1.000  H
  H60      1.0000 0.61590  0.80850  0.00920  Biso   1.000  H
  H61      1.0000 0.11590  0.69150  0.00920  Biso   1.000  H
  H62      1.0000 0.88410  0.30850  0.00920  Biso   1.000  H
  H63      1.0000 0.88410  0.69150  0.50920  Biso   1.000  H
  H64      1.0000 0.11590  0.30850  0.50920  Biso   1.000  H
  H65      1.0000 0.58510  0.20070  0.66710  Biso   1.000  H
  H66      1.0000 0.41490  0.79930  0.66710  Biso   1.000  H
  H67      1.0000 0.41490  0.20070  0.16710  Biso   1.000  H
  H68      1.0000 0.58510  0.79930  0.16710  Biso   1.000  H
  H69      1.0000 0.08510  0.70070  0.16710  Biso   1.000  H
  H70      1.0000 0.91490  0.29930  0.16710  Biso   1.000  H
  H71      1.0000 0.91490  0.70070  0.66710  Biso   1.000  H
  H72      1.0000 0.08510  0.29930  0.66710  Biso   1.000  H
  C25      1.0000 0.47990  0.12166  0.57770  Biso   1.000  C
  C26      1.0000 0.52010  0.87834  0.57770  Biso   1.000  C
  C27      1.0000 0.52010  0.12166  0.07770  Biso   1.000  C
  C28      1.0000 0.47990  0.87834  0.07770  Biso   1.000  C
  C29      1.0000 0.97990  0.62166  0.07770  Biso   1.000  C
  C30      1.0000 0.02010  0.37834  0.07770  Biso   1.000  C
  C31      1.0000 0.02010  0.62166  0.57770  Biso   1.000  C
  C32      1.0000 0.97990  0.37834  0.57770  Biso   1.000  C
  H73      1.0000 0.53570  0.08180  0.56350  Biso   1.000  H
  H74      1.0000 0.46430  0.91820  0.56350  Biso   1.000  H
  H75      1.0000 0.46430  0.08180  0.06350  Biso   1.000  H
  H76      1.0000 0.53570  0.91820  0.06350  Biso   1.000  H
  H77      1.0000 0.03570  0.58180  0.06350  Biso   1.000  H
  H78      1.0000 0.96430  0.41820  0.06350  Biso   1.000  H
  H79      1.0000 0.96430  0.58180  0.56350  Biso   1.000  H
  H80      1.0000 0.03570  0.41820  0.56350  Biso   1.000  H
  C33      1.0000 0.39748  0.11620  0.70680  Biso   1.000  C
  C34      1.0000 0.60252  0.88380  0.70680  Biso   1.000  C
  C35      1.0000 0.60252  0.11620  0.20680  Biso   1.000  C
  C36      1.0000 0.39748  0.88380  0.20680  Biso   1.000  C
  C37      1.0000 0.89748  0.61620  0.20680  Biso   1.000  C
  C38      1.0000 0.10252  0.38380  0.20680  Biso   1.000  C
  C39      1.0000 0.10252  0.61620  0.70680  Biso   1.000  C
  C40      1.0000 0.89748  0.38380  0.70680  Biso   1.000  C
  H81      1.0000 0.44440  0.13360  0.78650  Biso   1.000  H
  H82      1.0000 0.55560  0.86640  0.78650  Biso   1.000  H
  H83      1.0000 0.55560  0.13360  0.28650  Biso   1.000  H
  H84      1.0000 0.44440  0.86640  0.28650  Biso   1.000  H
  H85      1.0000 0.94440  0.63360  0.28650  Biso   1.000  H
  H86      1.0000 0.05560  0.36640  0.28650  Biso   1.000  H
  H87      1.0000 0.05560  0.63360  0.78650  Biso   1.000  H
  H88      1.0000 0.94440  0.36640  0.78650  Biso   1.000  H
  C41      1.0000 0.28640  0.16753  0.66980  Biso   1.000  C
  C42      1.0000 0.71360  0.83247  0.66980  Biso   1.000  C
  C43      1.0000 0.71360  0.16753  0.16980  Biso   1.000  C
  C44      1.0000 0.28640  0.83247  0.16980  Biso   1.000  C
  C45      1.0000 0.78640  0.66753  0.16980  Biso   1.000  C
  C46      1.0000 0.21360  0.33247  0.16980  Biso   1.000  C
  C47      1.0000 0.21360  0.66753  0.66980  Biso   1.000  C
  C48      1.0000 0.78640  0.33247  0.66980  Biso   1.000  C
  H89      1.0000 0.28630  0.20650  0.73430  Biso   1.000  H
  H90      1.0000 0.71370  0.79350  0.73430  Biso   1.000  H
  H91      1.0000 0.71370  0.20650  0.23430  Biso   1.000  H
  H92      1.0000 0.28630  0.79350  0.23430  Biso   1.000  H
  H93      1.0000 0.78630  0.70650  0.23430  Biso   1.000  H
  H94      1.0000 0.21370  0.29350  0.23430  Biso   1.000  H
  H95      1.0000 0.21370  0.70650  0.73430  Biso   1.000  H
  H96      1.0000 0.78630  0.29350  0.73430  Biso   1.000  H
  C49      1.0000 0.15520  0.13317  0.66830  Biso   1.000  C
  C50      1.0000 0.84480  0.86683  0.66830  Biso   1.000  C
  C51      1.0000 0.84480  0.13317  0.16830  Biso   1.000  C
  C52      1.0000 0.15520  0.86683  0.16830  Biso   1.000  C
  C53      1.0000 0.65520  0.63317  0.16830  Biso   1.000  C
  C54      1.0000 0.34480  0.36683  0.16830  Biso   1.000  C
  C55      1.0000 0.34480  0.63317  0.66830  Biso   1.000  C
  C56      1.0000 0.65520  0.36683  0.66830  Biso   1.000  C
  C57      1.0000 0.35037  0.04365  0.73530  Biso   1.000  C
  C58      1.0000 0.64963  0.95635  0.73530  Biso   1.000  C
  C59      1.0000 0.64963  0.04365  0.23530  Biso   1.000  C
  C60      1.0000 0.35037  0.95635  0.23530  Biso   1.000  C
  C61      1.0000 0.85037  0.54365  0.23530  Biso   1.000  C
  C62      1.0000 0.14963  0.45635  0.23530  Biso   1.000  C
  C63      1.0000 0.14963  0.54365  0.73530  Biso   1.000  C
  C64      1.0000 0.85037  0.45635  0.73530  Biso   1.000  C
