data_image0
_cell_length_a       6.9259
_cell_length_b       10.3196
_cell_length_c       10.3838
_cell_angle_alpha    64.295
_cell_angle_beta     70.943
_cell_angle_gamma    85.582

_symmetry_space_group_name_H-M    "P 1"
_symmetry_int_tables_number       1

loop_
  _symmetry_equiv_pos_as_xyz
  'x, y, z'

loop_
  _atom_site_label
  _atom_site_occupancy
  _atom_site_fract_x
  _atom_site_fract_y
  _atom_site_fract_z
  _atom_site_thermal_displace_type
  _atom_site_B_iso_or_equiv
  _atom_site_type_symbol
  Cu1      1.0000 0.78838  0.95241  0.15594  Biso   1.000  Cu
  Cu2      1.0000 0.21162  0.04759  0.84406  Biso   1.000  Cu
  N1       1.0000 0.76250  0.13780  0.16960  Biso   1.000  N
  N2       1.0000 0.23750  0.86220  0.83040  Biso   1.000  N
  N3       1.0000 0.69800  0.23340  0.08400  Biso   1.000  N
  N4       1.0000 0.30200  0.76660  0.91600  Biso   1.000  N
  N5       1.0000 0.63450  0.32880  0.00220  Biso   1.000  N
  N6       1.0000 0.36550  0.67120  0.99780  Biso   1.000  N
  N7       1.0000 0.16280  0.95790  0.06610  Biso   1.000  N
  N8       1.0000 0.83720  0.04210  0.93390  Biso   1.000  N
  N9       1.0000 0.27760  0.94950  0.13300  Biso   1.000  N
  N10      1.0000 0.72240  0.05050  0.86700  Biso   1.000  N
  N11      1.0000 0.38040  0.93910  0.20280  Biso   1.000  N
  N12      1.0000 0.61960  0.06090  0.79720  Biso   1.000  N
  N13      1.0000 0.78200  0.74660  0.18100  Biso   1.000  N
  N14      1.0000 0.21800  0.25340  0.81900  Biso   1.000  N
  N15      1.0000 0.76230  0.84620  0.37860  Biso   1.000  N
  N16      1.0000 0.23770  0.15380  0.62140  Biso   1.000  N
  C1       1.0000 0.78860  0.69930  0.07850  Biso   1.000  C
  C2       1.0000 0.21140  0.30070  0.92150  Biso   1.000  C
  H1       1.0000 0.79270  0.76570  0.98190  Biso   1.000  H
  H2       1.0000 0.20730  0.23430  0.01810  Biso   1.000  H
  C3       1.0000 0.78940  0.55200  0.11310  Biso   1.000  C
  C4       1.0000 0.21060  0.44800  0.88690  Biso   1.000  C
  H3       1.0000 0.79490  0.52240  0.03930  Biso   1.000  H
  H4       1.0000 0.20510  0.47760  0.96070  Biso   1.000  H
  C5       1.0000 0.78240  0.45310  0.25180  Biso   1.000  C
  C6       1.0000 0.21760  0.54690  0.74820  Biso   1.000  C
  H5       1.0000 0.78520  0.35570  0.27360  Biso   1.000  H
  H6       1.0000 0.21480  0.64430  0.72640  Biso   1.000  H
  C7       1.0000 0.77080  0.49830  0.36400  Biso   1.000  C
  C8       1.0000 0.22920  0.50170  0.63600  Biso   1.000  C
  C9       1.0000 0.75190  0.40340  0.51740  Biso   1.000  C
  C10      1.0000 0.24810  0.59660  0.48260  Biso   1.000  C
  H7       1.0000 0.74920  0.30440  0.54700  Biso   1.000  H
  H8       1.0000 0.25080  0.69560  0.45300  Biso   1.000  H
  C11      1.0000 0.73770  0.45370  0.62110  Biso   1.000  C
  C12      1.0000 0.26230  0.54630  0.37890  Biso   1.000  C
  H9       1.0000 0.72570  0.38920  0.72000  Biso   1.000  H
  H10      1.0000 0.27430  0.61080  0.28000  Biso   1.000  H
  C13      1.0000 0.74120  0.60560  0.57880  Biso   1.000  C
  C14      1.0000 0.25880  0.39440  0.42120  Biso   1.000  C
  C15      1.0000 0.72470  0.66730  0.67980  Biso   1.000  C
  C16      1.0000 0.27530  0.33270  0.32020  Biso   1.000  C
  H11      1.0000 0.71030  0.60880  0.78070  Biso   1.000  H
  H12      1.0000 0.28970  0.39120  0.21930  Biso   1.000  H
  C17      1.0000 0.73020  0.81330  0.62690  Biso   1.000  C
  C18      1.0000 0.26980  0.18670  0.37310  Biso   1.000  C
  H13      1.0000 0.72200  0.85510  0.69170  Biso   1.000  H
  H14      1.0000 0.27800  0.14490  0.30830  Biso   1.000  H
  C19      1.0000 0.74810  0.90040  0.47690  Biso   1.000  C
  C20      1.0000 0.25190  0.09960  0.52310  Biso   1.000  C
  H15      1.0000 0.75020  0.99980  0.44370  Biso   1.000  H
  H16      1.0000 0.24980  0.00020  0.55630  Biso   1.000  H
  C21      1.0000 0.75830  0.70140  0.42970  Biso   1.000  C
  C22      1.0000 0.24170  0.29860  0.57030  Biso   1.000  C
  C23      1.0000 0.77220  0.64730  0.32120  Biso   1.000  C
  C24      1.0000 0.22780  0.35270  0.67880  Biso   1.000  C
