data_image0
_cell_length_a       7.013
_cell_length_b       10.376
_cell_length_c       11.372
_cell_angle_alpha    73.64
_cell_angle_beta     78.15
_cell_angle_gamma    81.44

_symmetry_space_group_name_H-M    "P 1"
_symmetry_int_tables_number       1

loop_
  _symmetry_equiv_pos_as_xyz
  'x, y, z'

loop_
  _atom_site_label
  _atom_site_occupancy
  _atom_site_fract_x
  _atom_site_fract_y
  _atom_site_fract_z
  _atom_site_thermal_displace_type
  _atom_site_B_iso_or_equiv
  _atom_site_type_symbol
  Cu1      1.0000 0.65241  0.35334  0.06751  Biso   1.000  Cu
  Cu2      1.0000 0.34759  0.64666  0.93249  Biso   1.000  Cu
  Cl1      1.0000 0.69209  0.57751  0.02034  Biso   1.000  Cl
  Cl2      1.0000 0.30791  0.42249  0.97966  Biso   1.000  Cl
  N1       1.0000 0.80310  0.32840  0.90290  Biso   1.000  N
  N2       1.0000 0.19690  0.67160  0.09710  Biso   1.000  N
  N3       1.0000 0.64400  0.15100  0.10110  Biso   1.000  N
  N4       1.0000 0.35600  0.84900  0.89890  Biso   1.000  N
  C1       1.0000 0.88380  0.41980  0.80510  Biso   1.000  C
  C2       1.0000 0.11620  0.58020  0.19490  Biso   1.000  C
  H1       1.0000 0.88130  0.50760  0.81120  Biso   1.000  H
  H2       1.0000 0.11870  0.49240  0.18880  Biso   1.000  H
  C3       1.0000 0.97250  0.38860  0.69350  Biso   1.000  C
  C4       1.0000 0.02750  0.61140  0.30650  Biso   1.000  C
  H3       1.0000 0.02270  0.45600  0.62580  Biso   1.000  H
  H4       1.0000 0.97730  0.54400  0.37420  Biso   1.000  H
  C5       1.0000 0.98570  0.25900  0.68350  Biso   1.000  C
  C6       1.0000 0.01430  0.74100  0.31650  Biso   1.000  C
  H5       1.0000 0.04580  0.23760  0.60960  Biso   1.000  H
  H6       1.0000 0.95420  0.76240  0.39040  Biso   1.000  H
  C7       1.0000 0.90720  0.15870  0.78630  Biso   1.000  C
  C8       1.0000 0.09280  0.84130  0.21370  Biso   1.000  C
  C9       1.0000 0.92160  0.01720  0.79090  Biso   1.000  C
  C10      1.0000 0.07840  0.98280  0.20910  Biso   1.000  C
  H7       1.0000 0.98200  0.98860  0.72050  Biso   1.000  H
  H8       1.0000 0.01800  0.01140  0.27950  Biso   1.000  H
  C11      1.0000 0.85010  0.92580  0.89400  Biso   1.000  C
  C12      1.0000 0.14990  0.07420  0.10600  Biso   1.000  C
  H9       1.0000 0.86500  0.83510  0.89440  Biso   1.000  H
  H10      1.0000 0.13500  0.16490  0.10560  Biso   1.000  H
  C13      1.0000 0.75090  0.96560  0.00390  Biso   1.000  C
  C14      1.0000 0.24910  0.03440  0.99610  Biso   1.000  C
  C15      1.0000 0.67010  0.87660  0.11520  Biso   1.000  C
  C16      1.0000 0.32990  0.12340  0.88480  Biso   1.000  C
  H11      1.0000 0.67790  0.78470  0.12130  Biso   1.000  H
  H12      1.0000 0.32210  0.21530  0.87870  Biso   1.000  H
  C17      1.0000 0.58020  0.92590  0.21430  Biso   1.000  C
  C18      1.0000 0.41980  0.07410  0.78570  Biso   1.000  C
  H13      1.0000 0.52670  0.86780  0.28840  Biso   1.000  H
  H14      1.0000 0.47330  0.13220  0.71160  Biso   1.000  H
  C19      1.0000 0.56930  0.06400  0.20350  Biso   1.000  C
  C20      1.0000 0.43070  0.93600  0.79650  Biso   1.000  C
  H15      1.0000 0.50670  0.09630  0.27140  Biso   1.000  H
  H16      1.0000 0.49330  0.90370  0.72860  Biso   1.000  H
  C21      1.0000 0.73420  0.10260  0.00170  Biso   1.000  C
  C22      1.0000 0.26580  0.89740  0.99830  Biso   1.000  C
  C23      1.0000 0.81670  0.19910  0.89330  Biso   1.000  C
  C24      1.0000 0.18330  0.80090  0.10670  Biso   1.000  C
  C25      1.0000 0.67610  0.32860  0.30370  Biso   1.000  C
  C26      1.0000 0.32390  0.67140  0.69630  Biso   1.000  C
  C27      1.0000 0.61630  0.34670  0.43440  Biso   1.000  C
  C28      1.0000 0.38370  0.65330  0.56560  Biso   1.000  C
  H17      1.0000 0.73120  0.32950  0.47380  Biso   1.000  H
  H18      1.0000 0.26880  0.67050  0.52620  Biso   1.000  H
  H19      1.0000 0.52580  0.28130  0.48270  Biso   1.000  H
  H20      1.0000 0.47420  0.71870  0.51730  Biso   1.000  H
  C29      1.0000 0.51990  0.48850  0.43510  Biso   1.000  C
  C30      1.0000 0.48010  0.51150  0.56490  Biso   1.000  C
  H21      1.0000 0.60450  0.55430  0.37940  Biso   1.000  H
  H22      1.0000 0.39550  0.44570  0.62060  Biso   1.000  H
  H23      1.0000 0.39740  0.50220  0.40420  Biso   1.000  H
  H24      1.0000 0.60260  0.49780  0.59580  Biso   1.000  H
  O1       1.0000 0.53840  0.34830  0.24080  Biso   1.000  O
  O2       1.0000 0.46160  0.65170  0.75920  Biso   1.000  O
  O3       1.0000 0.84870  0.29920  0.26130  Biso   1.000  O
  O4       1.0000 0.15130  0.70080  0.73870  Biso   1.000  O
  O5       1.0000 0.16870  0.25500  0.38070  Biso   1.000  O
  O6       1.0000 0.83130  0.74500  0.61930  Biso   1.000  O
  O7       1.0000 0.27940  0.99290  0.50180  Biso   1.000  O
  O8       1.0000 0.72060  0.00710  0.49820  Biso   1.000  O
  H25      1.0000 0.26770  0.28510  0.32420  Biso   1.000  H
  H26      1.0000 0.73230  0.71490  0.67580  Biso   1.000  H
  H27      1.0000 0.06980  0.28190  0.33540  Biso   1.000  H
  H28      1.0000 0.93020  0.71810  0.66460  Biso   1.000  H
  H29      1.0000 0.25360  0.07230  0.45220  Biso   1.000  H
  H30      1.0000 0.74640  0.92770  0.54780  Biso   1.000  H
  H31      1.0000 0.41380  0.99740  0.50160  Biso   1.000  H
  H32      1.0000 0.58620  0.00260  0.49840  Biso   1.000  H
