data_image0
_cell_length_a       10.5673
_cell_length_b       11.425
_cell_length_c       13.396
_cell_angle_alpha    90
_cell_angle_beta     108.914
_cell_angle_gamma    90

_symmetry_space_group_name_H-M    "P 1"
_symmetry_int_tables_number       1

loop_
  _symmetry_equiv_pos_as_xyz
  'x, y, z'

loop_
  _atom_site_label
  _atom_site_occupancy
  _atom_site_fract_x
  _atom_site_fract_y
  _atom_site_fract_z
  _atom_site_thermal_displace_type
  _atom_site_B_iso_or_equiv
  _atom_site_type_symbol
  Cu1      1.0000 0.50000  0.50000  0.00000  Biso   1.000  Cu
  Cu2      1.0000 0.00000  0.00000  0.50000  Biso   1.000  Cu
  O1       1.0000 0.33269  0.44322  0.83401  Biso   1.000  O
  O2       1.0000 0.16731  0.94322  0.66599  Biso   1.000  O
  O3       1.0000 0.66731  0.55678  0.16599  Biso   1.000  O
  O4       1.0000 0.83269  0.05678  0.33401  Biso   1.000  O
  H1       1.0000 0.25610  0.47540  0.81220  Biso   1.000  H
  H2       1.0000 0.24390  0.97540  0.68780  Biso   1.000  H
  H3       1.0000 0.74390  0.52460  0.18780  Biso   1.000  H
  H4       1.0000 0.75610  0.02460  0.31220  Biso   1.000  H
  H5       1.0000 0.32490  0.37050  0.81980  Biso   1.000  H
  H6       1.0000 0.17510  0.87050  0.68020  Biso   1.000  H
  H7       1.0000 0.67510  0.62950  0.18020  Biso   1.000  H
  H8       1.0000 0.82490  0.12950  0.31980  Biso   1.000  H
  N1       1.0000 0.37343  0.47451  0.08330  Biso   1.000  N
  N2       1.0000 0.12657  0.97451  0.41670  Biso   1.000  N
  N3       1.0000 0.62657  0.52549  0.91670  Biso   1.000  N
  N4       1.0000 0.87343  0.02549  0.58330  Biso   1.000  N
  N5       1.0000 0.05753  0.17151  0.52153  Biso   1.000  N
  N6       1.0000 0.44247  0.67151  0.97847  Biso   1.000  N
  N7       1.0000 0.94247  0.82849  0.47847  Biso   1.000  N
  N8       1.0000 0.55753  0.32849  0.02153  Biso   1.000  N
  N9       1.0000 0.14520  0.34159  0.50260  Biso   1.000  N
  N10      1.0000 0.35480  0.84159  0.99740  Biso   1.000  N
  N11      1.0000 0.85480  0.65841  0.49740  Biso   1.000  N
  N12      1.0000 0.64520  0.15841  0.00260  Biso   1.000  N
  N13      1.0000 0.43583  0.68235  0.54922  Biso   1.000  N
  N14      1.0000 0.06417  0.18235  0.95078  Biso   1.000  N
  N15      1.0000 0.56417  0.31765  0.45078  Biso   1.000  N
  N16      1.0000 0.93583  0.81765  0.04922  Biso   1.000  N
  N17      1.0000 0.29353  0.47435  0.21602  Biso   1.000  N
  N18      1.0000 0.20647  0.97435  0.28398  Biso   1.000  N
  N19      1.0000 0.70647  0.52565  0.78398  Biso   1.000  N
  N20      1.0000 0.79353  0.02565  0.71602  Biso   1.000  N
  N21      1.0000 0.59373  0.81840  0.60373  Biso   1.000  N
  N22      1.0000 0.90627  0.31840  0.89627  Biso   1.000  N
  N23      1.0000 0.40627  0.18160  0.39627  Biso   1.000  N
  N24      1.0000 0.09373  0.68160  0.10373  Biso   1.000  N
  C1       1.0000 0.21469  0.41199  0.35832  Biso   1.000  C
  C2       1.0000 0.28531  0.91199  0.14168  Biso   1.000  C
  C3       1.0000 0.78531  0.58801  0.64168  Biso   1.000  C
  C4       1.0000 0.71469  0.08801  0.85832  Biso   1.000  C
  H9       1.0000 0.16520  0.35070  0.31520  Biso   1.000  H
  H10      1.0000 0.33480  0.85070  0.18480  Biso   1.000  H
  H11      1.0000 0.83480  0.64930  0.68480  Biso   1.000  H
  H12      1.0000 0.66520  0.14930  0.81520  Biso   1.000  H
  C5       1.0000 0.35689  0.58218  0.38106  Biso   1.000  C
  C6       1.0000 0.14311  0.08218  0.11894  Biso   1.000  C
  C7       1.0000 0.64311  0.41782  0.61894  Biso   1.000  C
  C8       1.0000 0.85689  0.91782  0.88106  Biso   1.000  C
  H13      1.0000 0.40290  0.63740  0.35240  Biso   1.000  H
  H14      1.0000 0.09710  0.13740  0.14760  Biso   1.000  H
  H15      1.0000 0.59710  0.36260  0.64760  Biso   1.000  H
  H16      1.0000 0.90290  0.86260  0.85240  Biso   1.000  H
  C9       1.0000 0.28795  0.48984  0.32012  Biso   1.000  C
  C10      1.0000 0.21205  0.98984  0.17988  Biso   1.000  C
  C11      1.0000 0.71205  0.51016  0.67988  Biso   1.000  C
  C12      1.0000 0.78795  0.01016  0.82012  Biso   1.000  C
  C13      1.0000 0.13505  0.22663  0.47726  Biso   1.000  C
  C14      1.0000 0.36495  0.72663  0.02274  Biso   1.000  C
  C15      1.0000 0.86495  0.77337  0.52274  Biso   1.000  C
  C16      1.0000 0.63505  0.27337  0.97726  Biso   1.000  C
  H17      1.0000 0.17820  0.19030  0.43320  Biso   1.000  H
  H18      1.0000 0.32180  0.69030  0.06680  Biso   1.000  H
  H19      1.0000 0.82180  0.80970  0.56680  Biso   1.000  H
  H20      1.0000 0.67820  0.30970  0.93320  Biso   1.000  H
  C17      1.0000 0.21523  0.42575  0.46161  Biso   1.000  C
  C18      1.0000 0.28477  0.92575  0.03839  Biso   1.000  C
  C19      1.0000 0.78477  0.57425  0.53839  Biso   1.000  C
  C20      1.0000 0.71523  0.07425  0.96161  Biso   1.000  C
  C21      1.0000 0.39902  0.50124  0.18394  Biso   1.000  C
  C22      1.0000 0.10098  0.00124  0.31606  Biso   1.000  C
  C23      1.0000 0.60098  0.49876  0.81606  Biso   1.000  C
  C24      1.0000 0.89902  0.99876  0.68394  Biso   1.000  C
  H21      1.0000 0.48030  0.53480  0.22780  Biso   1.000  H
  H22      1.0000 0.01970  0.03480  0.27220  Biso   1.000  H
  H23      1.0000 0.51970  0.46520  0.77220  Biso   1.000  H
  H24      1.0000 0.98030  0.96520  0.72780  Biso   1.000  H
  C25      1.0000 0.35778  0.59294  0.48495  Biso   1.000  C
  C26      1.0000 0.14222  0.09294  0.01505  Biso   1.000  C
  C27      1.0000 0.64222  0.40706  0.51505  Biso   1.000  C
  C28      1.0000 0.85778  0.90706  0.98495  Biso   1.000  C
  C29      1.0000 0.53387  0.74605  0.52771  Biso   1.000  C
  C30      1.0000 0.96613  0.24605  0.97229  Biso   1.000  C
  C31      1.0000 0.46613  0.25395  0.47229  Biso   1.000  C
  C32      1.0000 0.03387  0.75395  0.02771  Biso   1.000  C
  H25      1.0000 0.55570  0.73840  0.46460  Biso   1.000  H
  H26      1.0000 0.94430  0.23840  0.03540  Biso   1.000  H
  H27      1.0000 0.44430  0.26160  0.53540  Biso   1.000  H
  H28      1.0000 0.05570  0.76160  0.96460  Biso   1.000  H
  C33      1.0000 0.24553  0.42830  0.04925  Biso   1.000  C
  C34      1.0000 0.25447  0.92830  0.45075  Biso   1.000  C
  C35      1.0000 0.75447  0.57170  0.95075  Biso   1.000  C
  C36      1.0000 0.74553  0.07170  0.54925  Biso   1.000  C
  H29      1.0000 0.19980  0.40160  0.97970  Biso   1.000  H
  H30      1.0000 0.30020  0.90160  0.52030  Biso   1.000  H
  H31      1.0000 0.80020  0.59840  0.02030  Biso   1.000  H
  H32      1.0000 0.69980  0.09840  0.47970  Biso   1.000  H
  C37      1.0000 0.19554  0.42705  0.13093  Biso   1.000  C
  C38      1.0000 0.30446  0.92705  0.36907  Biso   1.000  C
  C39      1.0000 0.80446  0.57295  0.86907  Biso   1.000  C
  C40      1.0000 0.69554  0.07295  0.63093  Biso   1.000  C
  H33      1.0000 0.11030  0.39920  0.12960  Biso   1.000  H
  H34      1.0000 0.38970  0.89920  0.37040  Biso   1.000  H
  H35      1.0000 0.88970  0.60080  0.87040  Biso   1.000  H
  H36      1.0000 0.61030  0.10080  0.62960  Biso   1.000  H
  C41      1.0000 0.28670  0.51439  0.52666  Biso   1.000  C
  C42      1.0000 0.21330  0.01439  0.97334  Biso   1.000  C
  C43      1.0000 0.71330  0.48561  0.47334  Biso   1.000  C
  C44      1.0000 0.78670  0.98561  0.02666  Biso   1.000  C
  H37      1.0000 0.28730  0.52140  0.59750  Biso   1.000  H
  H38      1.0000 0.21270  0.02140  0.90250  Biso   1.000  H
  H39      1.0000 0.71270  0.47860  0.40250  Biso   1.000  H
  H40      1.0000 0.78730  0.97860  0.09750  Biso   1.000  H
  C45      1.0000 0.43434  0.71940  0.64718  Biso   1.000  C
  C46      1.0000 0.06566  0.21940  0.85282  Biso   1.000  C
  C47      1.0000 0.56566  0.28060  0.35282  Biso   1.000  C
  C48      1.0000 0.93434  0.78060  0.14718  Biso   1.000  C
  H41      1.0000 0.37760  0.69230  0.68470  Biso   1.000  H
  H42      1.0000 0.12240  0.19230  0.81530  Biso   1.000  H
  H43      1.0000 0.62240  0.30770  0.31530  Biso   1.000  H
  H44      1.0000 0.87760  0.80770  0.18470  Biso   1.000  H
  C49      1.0000 0.07007  0.36084  0.56857  Biso   1.000  C
  C50      1.0000 0.42993  0.86084  0.93143  Biso   1.000  C
  C51      1.0000 0.92993  0.63916  0.43143  Biso   1.000  C
  C52      1.0000 0.57007  0.13916  0.06857  Biso   1.000  C
  H45      1.0000 0.05860  0.43270  0.60020  Biso   1.000  H
  H46      1.0000 0.44140  0.93270  0.89980  Biso   1.000  H
  H47      1.0000 0.94140  0.56730  0.39980  Biso   1.000  H
  H48      1.0000 0.55860  0.06730  0.10020  Biso   1.000  H
  C53      1.0000 0.01650  0.25588  0.57845  Biso   1.000  C
  C54      1.0000 0.48350  0.75588  0.92155  Biso   1.000  C
  C55      1.0000 0.98350  0.74412  0.42155  Biso   1.000  C
  C56      1.0000 0.51650  0.24412  0.07845  Biso   1.000  C
  H49      1.0000 0.95880  0.24200  0.61880  Biso   1.000  H
  H50      1.0000 0.54120  0.74200  0.88120  Biso   1.000  H
  H51      1.0000 0.04120  0.75800  0.38120  Biso   1.000  H
  H52      1.0000 0.45880  0.25800  0.11880  Biso   1.000  H
  C57      1.0000 0.53070  0.80236  0.67843  Biso   1.000  C
  C58      1.0000 0.96930  0.30236  0.82157  Biso   1.000  C
  C59      1.0000 0.46930  0.19764  0.32157  Biso   1.000  C
  C60      1.0000 0.03070  0.69764  0.17843  Biso   1.000  C
  H53      1.0000 0.55210  0.84400  0.74320  Biso   1.000  H
  H54      1.0000 0.94790  0.34400  0.75680  Biso   1.000  H
  H55      1.0000 0.44790  0.15600  0.25680  Biso   1.000  H
  H56      1.0000 0.05210  0.65600  0.24320  Biso   1.000  H
  O5       1.0000 0.54893  0.74452  0.28656  Biso   1.000  O
  O6       1.0000 0.95107  0.24452  0.21344  Biso   1.000  O
  O7       1.0000 0.45107  0.25548  0.71344  Biso   1.000  O
  O8       1.0000 0.04893  0.75548  0.78656  Biso   1.000  O
  N25      1.0000 0.60525  0.82997  0.26252  Biso   1.000  N
  N26      1.0000 0.89475  0.32997  0.23748  Biso   1.000  N
  N27      1.0000 0.39475  0.17003  0.73748  Biso   1.000  N
  N28      1.0000 0.10525  0.67003  0.76252  Biso   1.000  N
  O9       1.0000 0.59368  0.92788  0.29801  Biso   1.000  O
  O10      1.0000 0.90632  0.42788  0.20199  Biso   1.000  O
  O11      1.0000 0.40632  0.07212  0.70199  Biso   1.000  O
  O12      1.0000 0.09368  0.57212  0.79801  Biso   1.000  O
  O13      1.0000 0.66780  0.81758  0.20026  Biso   1.000  O
  O14      1.0000 0.83220  0.31758  0.29974  Biso   1.000  O
  O15      1.0000 0.33220  0.18242  0.79974  Biso   1.000  O
  O16      1.0000 0.16780  0.68242  0.70026  Biso   1.000  O
