data_image0
_cell_length_a       12.493
_cell_length_b       13.295
_cell_length_c       11.207
_cell_angle_alpha    105.06
_cell_angle_beta     100.79
_cell_angle_gamma    111.3

_symmetry_space_group_name_H-M    "P 1"
_symmetry_int_tables_number       1

loop_
  _symmetry_equiv_pos_as_xyz
  'x, y, z'

loop_
  _atom_site_label
  _atom_site_occupancy
  _atom_site_fract_x
  _atom_site_fract_y
  _atom_site_fract_z
  _atom_site_thermal_displace_type
  _atom_site_B_iso_or_equiv
  _atom_site_type_symbol
  Cu1      1.0000 0.07360  0.99070  0.88140  Biso   1.000  Cu
  Cu2      1.0000 0.92640  0.00930  0.11860  Biso   1.000  Cu
  Cu3      1.0000 0.47540  0.44760  0.61720  Biso   1.000  Cu
  Cu4      1.0000 0.52460  0.55240  0.38280  Biso   1.000  Cu
  O1       1.0000 0.11700  0.10500  0.04700  Biso   1.000  O
  O2       1.0000 0.88300  0.89500  0.95300  Biso   1.000  O
  O3       1.0000 0.16200  0.91600  0.95200  Biso   1.000  O
  O4       1.0000 0.83800  0.08400  0.04800  Biso   1.000  O
  O5       1.0000 0.38700  0.39200  0.44200  Biso   1.000  O
  O6       1.0000 0.61300  0.60800  0.55800  Biso   1.000  O
  O7       1.0000 0.53600  0.33100  0.58800  Biso   1.000  O
  O8       1.0000 0.46400  0.66900  0.41200  Biso   1.000  O
  N1       1.0000 0.99800  0.87000  0.70400  Biso   1.000  N
  N2       1.0000 0.00200  0.13000  0.29600  Biso   1.000  N
  N3       1.0000 0.99300  0.06700  0.79500  Biso   1.000  N
  N4       1.0000 0.00700  0.93300  0.20500  Biso   1.000  N
  N5       1.0000 0.56600  0.51600  0.80700  Biso   1.000  N
  N6       1.0000 0.43400  0.48400  0.19300  Biso   1.000  N
  N7       1.0000 0.39800  0.54600  0.67200  Biso   1.000  N
  N8       1.0000 0.60200  0.45400  0.32800  Biso   1.000  N
  C1       1.0000 0.25800  0.24300  0.24100  Biso   1.000  C
  C2       1.0000 0.74200  0.75700  0.75900  Biso   1.000  C
  C3       1.0000 0.21200  0.13400  0.14300  Biso   1.000  C
  C4       1.0000 0.78800  0.86600  0.85700  Biso   1.000  C
  C5       1.0000 0.27800  0.06800  0.15600  Biso   1.000  C
  C6       1.0000 0.72200  0.93200  0.84400  Biso   1.000  C
  C7       1.0000 0.36700  0.10400  0.27200  Biso   1.000  C
  C8       1.0000 0.63300  0.89600  0.72800  Biso   1.000  C
  C9       1.0000 0.40900  0.21000  0.37400  Biso   1.000  C
  C10      1.0000 0.59100  0.79000  0.62600  Biso   1.000  C
  C11      1.0000 0.35400  0.28300  0.35700  Biso   1.000  C
  C12      1.0000 0.64600  0.71700  0.64300  Biso   1.000  C
  C13      1.0000 0.24200  0.95600  0.06000  Biso   1.000  C
  C14      1.0000 0.75800  0.04400  0.94000  Biso   1.000  C
  C15      1.0000 0.29800  0.87600  0.08600  Biso   1.000  C
  C16      1.0000 0.70200  0.12400  0.91400  Biso   1.000  C
  C17      1.0000 0.50000  0.23800  0.49000  Biso   1.000  C
  C18      1.0000 0.50000  0.76200  0.51000  Biso   1.000  C
  C19      1.0000 0.55800  0.16400  0.51300  Biso   1.000  C
  C20      1.0000 0.44200  0.83600  0.48700  Biso   1.000  C
  C21      1.0000 0.01400  0.77500  0.66700  Biso   1.000  C
  C22      1.0000 0.98600  0.22500  0.33300  Biso   1.000  C
  C23      1.0000 0.96100  0.70000  0.53900  Biso   1.000  C
  C24      1.0000 0.03900  0.30000  0.46100  Biso   1.000  C
  C25      1.0000 0.89400  0.72700  0.45200  Biso   1.000  C
  C26      1.0000 0.10600  0.27300  0.54800  Biso   1.000  C
  C27      1.0000 0.88100  0.82500  0.48800  Biso   1.000  C
  C28      1.0000 0.11900  0.17500  0.51200  Biso   1.000  C
  C29      1.0000 0.93300  0.89600  0.61800  Biso   1.000  C
  C30      1.0000 0.06700  0.10400  0.38200  Biso   1.000  C
  C31      1.0000 0.93000  0.00700  0.66900  Biso   1.000  C
  C32      1.0000 0.07000  0.99300  0.33100  Biso   1.000  C
  C33      1.0000 0.87000  0.04900  0.59500  Biso   1.000  C
  C34      1.0000 0.13000  0.95100  0.40500  Biso   1.000  C
  C35      1.0000 0.86500  0.15700  0.66200  Biso   1.000  C
  C36      1.0000 0.13500  0.84300  0.33800  Biso   1.000  C
  C37      1.0000 0.93200  0.21800  0.78800  Biso   1.000  C
  C38      1.0000 0.06800  0.78200  0.21200  Biso   1.000  C
  C39      1.0000 0.99000  0.16900  0.85300  Biso   1.000  C
  C40      1.0000 0.01000  0.83100  0.14700  Biso   1.000  C
  C41      1.0000 0.65100  0.49200  0.86600  Biso   1.000  C
  C42      1.0000 0.34900  0.50800  0.13400  Biso   1.000  C
  C43      1.0000 0.71700  0.54600  0.99400  Biso   1.000  C
  C44      1.0000 0.28300  0.45400  0.00600  Biso   1.000  C
  C45      1.0000 0.69900  0.62700  0.06000  Biso   1.000  C
  C46      1.0000 0.30100  0.37300  0.94000  Biso   1.000  C
  C47      1.0000 0.60400  0.65300  0.00600  Biso   1.000  C
  C48      1.0000 0.39600  0.34700  0.99400  Biso   1.000  C
  C49      1.0000 0.53900  0.59500  0.86900  Biso   1.000  C
  C50      1.0000 0.46100  0.40500  0.13100  Biso   1.000  C
  C51      1.0000 0.44400  0.61600  0.79800  Biso   1.000  C
  C52      1.0000 0.55600  0.38400  0.20200  Biso   1.000  C
  C53      1.0000 0.41100  0.69700  0.84700  Biso   1.000  C
  C54      1.0000 0.58900  0.30300  0.15300  Biso   1.000  C
  C55      1.0000 0.32100  0.70900  0.76300  Biso   1.000  C
  C56      1.0000 0.67900  0.29100  0.23700  Biso   1.000  C
  C57      1.0000 0.27000  0.63900  0.63700  Biso   1.000  C
  C58      1.0000 0.73000  0.36100  0.36300  Biso   1.000  C
  C59      1.0000 0.31600  0.55700  0.59800  Biso   1.000  C
  C60      1.0000 0.68400  0.44300  0.40200  Biso   1.000  C
  H1       1.0000 0.22560  0.29510  0.22470  Biso   1.000  H
  H2       1.0000 0.77440  0.70490  0.77530  Biso   1.000  H
  H3       1.0000 0.40190  0.05190  0.28210  Biso   1.000  H
  H4       1.0000 0.59810  0.94810  0.71790  Biso   1.000  H
  H5       1.0000 0.23630  0.80500  0.08100  Biso   1.000  H
  H6       1.0000 0.76370  0.19500  0.91900  Biso   1.000  H
  H7       1.0000 0.33660  0.86010  0.02330  Biso   1.000  H
  H8       1.0000 0.66340  0.13990  0.97670  Biso   1.000  H
  H9       1.0000 0.35560  0.91160  0.17090  Biso   1.000  H
  H10      1.0000 0.64440  0.08840  0.82910  Biso   1.000  H
  H11      1.0000 0.54310  0.14390  0.58530  Biso   1.000  H
  H12      1.0000 0.45690  0.85610  0.41470  Biso   1.000  H
  H13      1.0000 0.53140  0.09960  0.43890  Biso   1.000  H
  H14      1.0000 0.46860  0.90040  0.56110  Biso   1.000  H
  H15      1.0000 0.64540  0.20850  0.53530  Biso   1.000  H
  H16      1.0000 0.35460  0.79150  0.46470  Biso   1.000  H
  H17      1.0000 0.06040  0.76060  0.72940  Biso   1.000  H
  H18      1.0000 0.93960  0.23940  0.27060  Biso   1.000  H
  H19      1.0000 0.96920  0.62760  0.51150  Biso   1.000  H
  H20      1.0000 0.03080  0.37240  0.48850  Biso   1.000  H
  H21      1.0000 0.85540  0.67150  0.36370  Biso   1.000  H
  H22      1.0000 0.14460  0.32850  0.63630  Biso   1.000  H
  H23      1.0000 0.83590  0.84050  0.42170  Biso   1.000  H
  H24      1.0000 0.16410  0.15950  0.57830  Biso   1.000  H
  H25      1.0000 0.83360  0.01450  0.50750  Biso   1.000  H
  H26      1.0000 0.16640  0.98550  0.49250  Biso   1.000  H
  H27      1.0000 0.81010  0.17950  0.61440  Biso   1.000  H
  H28      1.0000 0.18990  0.82050  0.38560  Biso   1.000  H
  H29      1.0000 0.93690  0.29210  0.82590  Biso   1.000  H
  H30      1.0000 0.06310  0.70790  0.17410  Biso   1.000  H
  H31      1.0000 0.67160  0.43770  0.82000  Biso   1.000  H
  H32      1.0000 0.32840  0.56230  0.18000  Biso   1.000  H
  H33      1.0000 0.77940  0.52590  0.03370  Biso   1.000  H
  H34      1.0000 0.22060  0.47410  0.96630  Biso   1.000  H
  H35      1.0000 0.74860  0.66870  0.14580  Biso   1.000  H
  H36      1.0000 0.25140  0.33130  0.85420  Biso   1.000  H
  H37      1.0000 0.58620  0.70860  0.05980  Biso   1.000  H
  H38      1.0000 0.41380  0.29140  0.94020  Biso   1.000  H
  H39      1.0000 0.44680  0.74960  0.93710  Biso   1.000  H
  H40      1.0000 0.55320  0.25040  0.06290  Biso   1.000  H
  H41      1.0000 0.29630  0.77000  0.79800  Biso   1.000  H
  H42      1.0000 0.70370  0.23000  0.20200  Biso   1.000  H
  H43      1.0000 0.21030  0.64530  0.57760  Biso   1.000  H
  H44      1.0000 0.78970  0.35470  0.42240  Biso   1.000  H
  H45      1.0000 0.28130  0.50520  0.50860  Biso   1.000  H
  H46      1.0000 0.71870  0.49480  0.49140  Biso   1.000  H
  H47      1.0000 0.02920  0.20570  0.93810  Biso   1.000  H
  H48      1.0000 0.97080  0.79430  0.06190  Biso   1.000  H
  Cl1      1.0000 0.33880  0.05090  0.76460  Biso   1.000  Cl
  Cl2      1.0000 0.66120  0.94910  0.23540  Biso   1.000  Cl
  O9       1.0000 0.28900  0.93700  0.67800  Biso   1.000  O
  O10      1.0000 0.71100  0.06300  0.32200  Biso   1.000  O
  O11      1.0000 0.41700  0.12300  0.72700  Biso   1.000  O
  O12      1.0000 0.58300  0.87700  0.27300  Biso   1.000  O
  O13      1.0000 0.24700  0.08300  0.77100  Biso   1.000  O
  O14      1.0000 0.75300  0.91700  0.22900  Biso   1.000  O
  O15      1.0000 0.39600  0.05700  0.89000  Biso   1.000  O
  O16      1.0000 0.60400  0.94300  0.11000  Biso   1.000  O
  Cl3      1.0000 0.04400  0.48730  0.22700  Biso   1.000  Cl
  Cl4      1.0000 0.95600  0.51270  0.77300  Biso   1.000  Cl
  O17      1.0000 0.94700  0.49700  0.19000  Biso   1.000  O
  O18      1.0000 0.05300  0.50300  0.81000  Biso   1.000  O
  O19      1.0000 0.03100  0.38700  0.15900  Biso   1.000  O
  O20      1.0000 0.96900  0.61300  0.84100  Biso   1.000  O
  O21      1.0000 0.05600  0.49200  0.34200  Biso   1.000  O
  O22      1.0000 0.94400  0.50800  0.65800  Biso   1.000  O
  O23      1.0000 0.12900  0.57600  0.23100  Biso   1.000  O
  O24      1.0000 0.87100  0.42400  0.76900  Biso   1.000  O
