data_image0
_cell_length_a       12.452
_cell_length_b       13.175
_cell_length_c       11.116
_cell_angle_alpha    104.91
_cell_angle_beta     100.91
_cell_angle_gamma    110.79

_symmetry_space_group_name_H-M    "P 1"
_symmetry_int_tables_number       1

loop_
  _symmetry_equiv_pos_as_xyz
  'x, y, z'

loop_
  _atom_site_label
  _atom_site_occupancy
  _atom_site_fract_x
  _atom_site_fract_y
  _atom_site_fract_z
  _atom_site_thermal_displace_type
  _atom_site_B_iso_or_equiv
  _atom_site_type_symbol
  Cu1      1.0000 0.07502  0.99028  0.88351  Biso   1.000  Cu
  Cu2      1.0000 0.92498  0.00972  0.11649  Biso   1.000  Cu
  Cu3      1.0000 0.47789  0.44996  0.62081  Biso   1.000  Cu
  Cu4      1.0000 0.52211  0.55004  0.37919  Biso   1.000  Cu
  O1       1.0000 0.12270  0.10720  0.04810  Biso   1.000  O
  O2       1.0000 0.87730  0.89280  0.95190  Biso   1.000  O
  O3       1.0000 0.16370  0.91480  0.95750  Biso   1.000  O
  O4       1.0000 0.83630  0.08520  0.04250  Biso   1.000  O
  O5       1.0000 0.38560  0.39170  0.44190  Biso   1.000  O
  O6       1.0000 0.61440  0.60830  0.55810  Biso   1.000  O
  O7       1.0000 0.53840  0.33440  0.59470  Biso   1.000  O
  O8       1.0000 0.46160  0.66560  0.40530  Biso   1.000  O
  N1       1.0000 0.00360  0.87030  0.70530  Biso   1.000  N
  N2       1.0000 0.99640  0.12970  0.29470  Biso   1.000  N
  N3       1.0000 0.99340  0.06740  0.79510  Biso   1.000  N
  N4       1.0000 0.00660  0.93260  0.20490  Biso   1.000  N
  N5       1.0000 0.56990  0.51820  0.80900  Biso   1.000  N
  N6       1.0000 0.43010  0.48180  0.19100  Biso   1.000  N
  N7       1.0000 0.39930  0.55360  0.67520  Biso   1.000  N
  N8       1.0000 0.60070  0.44640  0.32480  Biso   1.000  N
  C1       1.0000 0.25830  0.24710  0.24430  Biso   1.000  C
  C2       1.0000 0.74170  0.75290  0.75570  Biso   1.000  C
  C3       1.0000 0.21800  0.13910  0.14690  Biso   1.000  C
  C4       1.0000 0.78200  0.86090  0.85310  Biso   1.000  C
  C5       1.0000 0.27850  0.06680  0.16360  Biso   1.000  C
  C6       1.0000 0.72150  0.93320  0.83640  Biso   1.000  C
  C7       1.0000 0.37170  0.10640  0.27890  Biso   1.000  C
  C8       1.0000 0.62830  0.89360  0.72110  Biso   1.000  C
  C9       1.0000 0.40910  0.21230  0.37990  Biso   1.000  C
  C10      1.0000 0.59090  0.78770  0.62010  Biso   1.000  C
  C11      1.0000 0.35150  0.28570  0.35820  Biso   1.000  C
  C12      1.0000 0.64850  0.71430  0.64180  Biso   1.000  C
  C13      1.0000 0.24430  0.95410  0.06550  Biso   1.000  C
  C14      1.0000 0.75570  0.04590  0.93450  Biso   1.000  C
  C15      1.0000 0.30400  0.87720  0.08850  Biso   1.000  C
  C16      1.0000 0.69600  0.12280  0.91150  Biso   1.000  C
  C17      1.0000 0.50250  0.24240  0.49900  Biso   1.000  C
  C18      1.0000 0.49750  0.75760  0.50100  Biso   1.000  C
  C19      1.0000 0.56450  0.16510  0.52100  Biso   1.000  C
  C20      1.0000 0.43550  0.83490  0.47900  Biso   1.000  C
  C21      1.0000 0.01550  0.77150  0.66970  Biso   1.000  C
  C22      1.0000 0.98450  0.22850  0.33030  Biso   1.000  C
  C23      1.0000 0.96090  0.69250  0.54370  Biso   1.000  C
  C24      1.0000 0.03910  0.30750  0.45630  Biso   1.000  C
  C25      1.0000 0.89400  0.71770  0.45400  Biso   1.000  C
  C26      1.0000 0.10600  0.28230  0.54600  Biso   1.000  C
  C27      1.0000 0.87930  0.81840  0.48880  Biso   1.000  C
  C28      1.0000 0.12070  0.18160  0.51120  Biso   1.000  C
  C29      1.0000 0.93580  0.89460  0.61670  Biso   1.000  C
  C30      1.0000 0.06420  0.10540  0.38330  Biso   1.000  C
  C31      1.0000 0.93000  0.00550  0.66640  Biso   1.000  C
  C32      1.0000 0.07000  0.99450  0.33360  Biso   1.000  C
  C33      1.0000 0.86700  0.04900  0.59350  Biso   1.000  C
  C34      1.0000 0.13300  0.95100  0.40650  Biso   1.000  C
  C35      1.0000 0.87030  0.15540  0.65160  Biso   1.000  C
  C36      1.0000 0.12970  0.84460  0.34840  Biso   1.000  C
  C37      1.0000 0.93580  0.21870  0.78250  Biso   1.000  C
  C38      1.0000 0.06420  0.78130  0.21750  Biso   1.000  C
  C39      1.0000 0.99470  0.17130  0.85150  Biso   1.000  C
  C40      1.0000 0.00530  0.82870  0.14850  Biso   1.000  C
  C41      1.0000 0.65620  0.49350  0.86800  Biso   1.000  C
  C42      1.0000 0.34380  0.50650  0.13200  Biso   1.000  C
  C43      1.0000 0.72010  0.55060  0.00060  Biso   1.000  C
  C44      1.0000 0.27990  0.44940  0.99940  Biso   1.000  C
  C45      1.0000 0.69100  0.63340  0.07060  Biso   1.000  C
  C46      1.0000 0.30900  0.36660  0.92940  Biso   1.000  C
  C47      1.0000 0.60220  0.65900  0.01170  Biso   1.000  C
  C48      1.0000 0.39780  0.34100  0.98830  Biso   1.000  C
  C49      1.0000 0.54330  0.60120  0.87950  Biso   1.000  C
  C50      1.0000 0.45670  0.39880  0.12050  Biso   1.000  C
  C51      1.0000 0.44760  0.62260  0.80260  Biso   1.000  C
  C52      1.0000 0.55240  0.37740  0.19740  Biso   1.000  C
  C53      1.0000 0.41260  0.70870  0.85140  Biso   1.000  C
  C54      1.0000 0.58740  0.29130  0.14860  Biso   1.000  C
  C55      1.0000 0.32420  0.72120  0.76940  Biso   1.000  C
  C56      1.0000 0.67580  0.27880  0.23060  Biso   1.000  C
  C57      1.0000 0.27420  0.64970  0.64090  Biso   1.000  C
  C58      1.0000 0.72580  0.35030  0.35910  Biso   1.000  C
  C59      1.0000 0.31210  0.56560  0.59670  Biso   1.000  C
  C60      1.0000 0.68790  0.43440  0.40330  Biso   1.000  C
  H1       1.0000 0.21850  0.29650  0.23170  Biso   1.000  H
  H2       1.0000 0.78150  0.70350  0.76830  Biso   1.000  H
  H3       1.0000 0.41260  0.05740  0.29170  Biso   1.000  H
  H4       1.0000 0.58740  0.94260  0.70830  Biso   1.000  H
  H5       1.0000 0.39680  0.92570  0.08680  Biso   1.000  H
  H6       1.0000 0.60320  0.07430  0.91320  Biso   1.000  H
  H7       1.0000 0.29800  0.86070  0.18890  Biso   1.000  H
  H8       1.0000 0.70200  0.13930  0.81110  Biso   1.000  H
  H9       1.0000 0.25250  0.79750  0.00520  Biso   1.000  H
  H10      1.0000 0.74750  0.20250  0.99480  Biso   1.000  H
  H11      1.0000 0.47870  0.09270  0.51530  Biso   1.000  H
  H12      1.0000 0.52130  0.90730  0.48470  Biso   1.000  H
  H13      1.0000 0.59540  0.15670  0.44710  Biso   1.000  H
  H14      1.0000 0.40460  0.84330  0.55290  Biso   1.000  H
  H15      1.0000 0.62740  0.21510  0.63350  Biso   1.000  H
  H16      1.0000 0.37260  0.78490  0.36650  Biso   1.000  H
  H17      1.0000 0.06400  0.75390  0.73510  Biso   1.000  H
  H18      1.0000 0.93600  0.24610  0.26490  Biso   1.000  H
  H19      1.0000 0.97160  0.62030  0.51780  Biso   1.000  H
  H20      1.0000 0.02840  0.37970  0.48220  Biso   1.000  H
  H21      1.0000 0.85470  0.66250  0.36380  Biso   1.000  H
  H22      1.0000 0.14530  0.33750  0.63620  Biso   1.000  H
  H23      1.0000 0.82900  0.83460  0.42520  Biso   1.000  H
  H24      1.0000 0.17100  0.16540  0.57480  Biso   1.000  H
  H25      1.0000 0.82000  0.00460  0.50180  Biso   1.000  H
  H26      1.0000 0.18000  0.99540  0.49820  Biso   1.000  H
  H27      1.0000 0.82420  0.18550  0.60100  Biso   1.000  H
  H28      1.0000 0.17580  0.81450  0.39900  Biso   1.000  H
  H29      1.0000 0.94120  0.29600  0.82360  Biso   1.000  H
  H30      1.0000 0.05880  0.70400  0.17640  Biso   1.000  H
  H31      1.0000 0.03940  0.21470  0.94400  Biso   1.000  H
  H32      1.0000 0.96060  0.78530  0.05600  Biso   1.000  H
  H33      1.0000 0.67680  0.43410  0.81660  Biso   1.000  H
  H34      1.0000 0.32320  0.56590  0.18340  Biso   1.000  H
  H35      1.0000 0.78450  0.53370  0.04320  Biso   1.000  H
  H36      1.0000 0.21550  0.46630  0.95680  Biso   1.000  H
  H37      1.0000 0.73480  0.67330  0.16410  Biso   1.000  H
  H38      1.0000 0.26520  0.32670  0.83590  Biso   1.000  H
  H39      1.0000 0.58160  0.71810  0.06320  Biso   1.000  H
  H40      1.0000 0.41840  0.28190  0.93680  Biso   1.000  H
  H41      1.0000 0.45160  0.76060  0.94290  Biso   1.000  H
  H42      1.0000 0.54840  0.23940  0.05710  Biso   1.000  H
  H43      1.0000 0.30210  0.78430  0.80220  Biso   1.000  H
  H44      1.0000 0.69790  0.21570  0.19780  Biso   1.000  H
  H45      1.0000 0.21200  0.65800  0.58250  Biso   1.000  H
  H46      1.0000 0.78800  0.34200  0.41750  Biso   1.000  H
  H47      1.0000 0.27780  0.51550  0.50550  Biso   1.000  H
  H48      1.0000 0.72220  0.48450  0.49450  Biso   1.000  H
  F1       1.0000 0.24660  0.08030  0.76830  Biso   1.000  F
  F2       1.0000 0.75340  0.91970  0.23170  Biso   1.000  F
  F3       1.0000 0.39270  0.05770  0.87740  Biso   1.000  F
  F4       1.0000 0.60730  0.94230  0.12260  Biso   1.000  F
  F5       1.0000 0.41710  0.12670  0.73180  Biso   1.000  F
  F6       1.0000 0.58290  0.87330  0.26820  Biso   1.000  F
  F7       1.0000 0.29470  0.94410  0.67490  Biso   1.000  F
  F8       1.0000 0.70530  0.05590  0.32510  Biso   1.000  F
  B1       1.0000 0.33640  0.05270  0.75890  Biso   1.000  B
  B2       1.0000 0.66360  0.94730  0.24110  Biso   1.000  B
  F9       1.0000 0.05100  0.39500  0.16700  Biso   1.000  F
  F10      1.0000 0.94900  0.60500  0.83300  Biso   1.000  F
  F11      1.0000 0.95000  0.50700  0.19300  Biso   1.000  F
  F12      1.0000 0.05000  0.49300  0.80700  Biso   1.000  F
  F13      1.0000 0.03300  0.49800  0.34500  Biso   1.000  F
  F14      1.0000 0.96700  0.50200  0.65500  Biso   1.000  F
  F15      1.0000 0.14000  0.58300  0.22500  Biso   1.000  F
  F16      1.0000 0.86000  0.41700  0.77500  Biso   1.000  F
  B3       1.0000 0.05600  0.49500  0.23300  Biso   1.000  B
  B4       1.0000 0.94400  0.50500  0.76700  Biso   1.000  B
  F17      1.0000 0.14800  0.45400  0.28400  Biso   1.000  F
  F18      1.0000 0.85200  0.54600  0.71600  Biso   1.000  F
  F19      1.0000 0.94800  0.39600  0.17900  Biso   1.000  F
  F20      1.0000 0.05200  0.60400  0.82100  Biso   1.000  F
  F21      1.0000 0.13400  0.56300  0.34100  Biso   1.000  F
  F22      1.0000 0.86600  0.43700  0.65900  Biso   1.000  F
  F23      1.0000 0.08000  0.53300  0.14200  Biso   1.000  F
  F24      1.0000 0.92000  0.46700  0.85800  Biso   1.000  F
