data_image0
_cell_length_a       17.476
_cell_length_b       18.466
_cell_length_c       19.26
_cell_angle_alpha    93.112
_cell_angle_beta     107.176
_cell_angle_gamma    113.296

_symmetry_space_group_name_H-M    "P 1"
_symmetry_int_tables_number       1

loop_
  _symmetry_equiv_pos_as_xyz
  'x, y, z'

loop_
  _atom_site_label
  _atom_site_occupancy
  _atom_site_fract_x
  _atom_site_fract_y
  _atom_site_fract_z
  _atom_site_thermal_displace_type
  _atom_site_B_iso_or_equiv
  _atom_site_type_symbol
  La1      1.0000 0.26194  0.25458  0.01169  Biso   1.000  La
  La2      1.0000 0.73806  0.74542  0.98831  Biso   1.000  La
  La3      1.0000 0.99229  0.12518  0.23747  Biso   1.000  La
  La4      1.0000 0.00771  0.87482  0.76253  Biso   1.000  La
  La5      1.0000 0.79090  0.10542  0.84959  Biso   1.000  La
  La6      1.0000 0.20910  0.89458  0.15041  Biso   1.000  La
  Cu1      1.0000 0.11958  0.18086  0.11933  Biso   1.000  Cu
  Cu2      1.0000 0.88042  0.81914  0.88067  Biso   1.000  Cu
  Cu3      1.0000 0.02358  0.17322  0.93826  Biso   1.000  Cu
  Cu4      1.0000 0.97642  0.82678  0.06174  Biso   1.000  Cu
  Cu5      1.0000 0.22396  0.07217  0.07635  Biso   1.000  Cu
  Cu6      1.0000 0.77604  0.92783  0.92365  Biso   1.000  Cu
  Cu7      1.0000 0.12552  0.06514  0.89162  Biso   1.000  Cu
  Cu8      1.0000 0.87448  0.93486  0.10838  Biso   1.000  Cu
  Cu9      1.0000 0.09545  0.00780  0.18311  Biso   1.000  Cu
  Cu10     1.0000 0.90455  0.99220  0.81689  Biso   1.000  Cu
  Cu11     1.0000 0.89312  0.10586  0.04306  Biso   1.000  Cu
  Cu12     1.0000 0.10688  0.89414  0.95694  Biso   1.000  Cu
  Cu13     1.0000 0.41093  0.33868  0.90900  Biso   1.000  Cu
  Cu14     1.0000 0.58907  0.66132  0.09100  Biso   1.000  Cu
  Cu15     1.0000 0.50314  0.34650  0.08622  Biso   1.000  Cu
  Cu16     1.0000 0.49686  0.65350  0.91378  Biso   1.000  Cu
  Cu17     1.0000 0.89596  0.24584  0.29890  Biso   1.000  Cu
  Cu18     1.0000 0.10404  0.75416  0.70110  Biso   1.000  Cu
  Cu19     1.0000 0.10887  0.31664  0.36950  Biso   1.000  Cu
  Cu20     1.0000 0.89113  0.68336  0.63050  Biso   1.000  Cu
  Cu21     1.0000 0.70521  0.12510  0.65778  Biso   1.000  Cu
  Cu22     1.0000 0.29479  0.87490  0.34222  Biso   1.000  Cu
  Cu23     1.0000 0.79802  0.28141  0.77207  Biso   1.000  Cu
  Cu24     1.0000 0.20198  0.71859  0.22793  Biso   1.000  Cu
  Cu25     1.0000 0.29616  0.46867  0.63998  Biso   1.000  Cu
  Cu26     1.0000 0.70384  0.53133  0.36002  Biso   1.000  Cu
  Cl1      1.0000 0.00000  0.00000  0.00000  Biso   1.000  Cl
  Cl2      1.0000 0.81807  0.45533  0.17548  Biso   1.000  Cl
  Cl3      1.0000 0.18193  0.54467  0.82452  Biso   1.000  Cl
  Cl4      1.0000 0.04130  0.39077  0.08670  Biso   1.000  Cl
  Cl5      1.0000 0.95870  0.60923  0.91330  Biso   1.000  Cl
  Cl6      1.0000 0.70340  0.33170  0.37920  Biso   1.000  Cl
  Cl7      1.0000 0.29660  0.66830  0.62080  Biso   1.000  Cl
  Cl8      1.0000 0.09360  0.56320  0.40280  Biso   1.000  Cl
  Cl9      1.0000 0.90640  0.43680  0.59720  Biso   1.000  Cl
  Cl10     1.0000 0.59760  0.41163  0.76140  Biso   1.000  Cl
  Cl11     1.0000 0.40240  0.58837  0.23860  Biso   1.000  Cl
  Cl12     1.0000 0.06210  0.20780  0.71050  Biso   1.000  Cl
  Cl13     1.0000 0.93790  0.79220  0.28950  Biso   1.000  Cl
  Cl14     1.0000 0.36490  0.21320  0.31810  Biso   1.000  Cl
  Cl15     1.0000 0.63510  0.78680  0.68190  Biso   1.000  Cl
  Cl16     1.0000 0.49200  0.96670  0.59050  Biso   1.000  Cl
  Cl17     1.0000 0.50800  0.03330  0.40950  Biso   1.000  Cl
  Cl18     1.0000 0.55780  0.23340  0.95960  Biso   1.000  Cl
  Cl19     1.0000 0.44220  0.76660  0.04040  Biso   1.000  Cl
  Cl20     1.0000 0.37100  0.95770  0.77690  Biso   1.000  Cl
  Cl21     1.0000 0.62900  0.04230  0.22310  Biso   1.000  Cl
  Cl22     1.0000 0.51850  0.57480  0.49770  Biso   1.000  Cl
  Cl23     1.0000 0.48150  0.42520  0.50230  Biso   1.000  Cl
  C1       1.0000 0.42870  0.19480  0.12050  Biso   1.000  C
  C2       1.0000 0.57130  0.80520  0.87950  Biso   1.000  C
  C3       1.0000 0.52720  0.22200  0.16050  Biso   1.000  C
  C4       1.0000 0.47280  0.77800  0.83950  Biso   1.000  C
  C5       1.0000 0.28510  0.18290  0.84140  Biso   1.000  C
  C6       1.0000 0.71490  0.81710  0.15860  Biso   1.000  C
  C7       1.0000 0.33860  0.20370  0.79100  Biso   1.000  C
  C8       1.0000 0.66140  0.79630  0.20900  Biso   1.000  C
  C9       1.0000 0.18270  0.32010  0.25980  Biso   1.000  C
  C10      1.0000 0.81730  0.67990  0.74020  Biso   1.000  C
  C11      1.0000 0.24140  0.40190  0.30850  Biso   1.000  C
  C12      1.0000 0.75860  0.59810  0.69150  Biso   1.000  C
  C13      1.0000 0.82790  0.19670  0.14550  Biso   1.000  C
  C14      1.0000 0.17210  0.80330  0.85450  Biso   1.000  C
  C15      1.0000 0.77180  0.23600  0.15910  Biso   1.000  C
  C16      1.0000 0.22820  0.76400  0.84090  Biso   1.000  C
  C17      1.0000 0.96550  0.30300  0.86110  Biso   1.000  C
  C18      1.0000 0.03450  0.69700  0.13890  Biso   1.000  C
  C19      1.0000 0.98230  0.38460  0.84230  Biso   1.000  C
  C20      1.0000 0.01770  0.61540  0.15770  Biso   1.000  C
  C21      1.0000 0.79230  0.02690  0.66920  Biso   1.000  C
  C22      1.0000 0.20770  0.97310  0.33080  Biso   1.000  C
  C23      1.0000 0.75950  0.02400  0.58640  Biso   1.000  C
  C24      1.0000 0.24050  0.97600  0.41360  Biso   1.000  C
  C25      1.0000 0.67100  0.26390  0.62780  Biso   1.000  C
  C26      1.0000 0.32900  0.73610  0.37220  Biso   1.000  C
  C27      1.0000 0.62730  0.30510  0.57470  Biso   1.000  C
  C28      1.0000 0.37270  0.69490  0.42530  Biso   1.000  C
  C29      1.0000 0.14540  0.39540  0.51900  Biso   1.000  C
  C30      1.0000 0.85460  0.60460  0.48100  Biso   1.000  C
  C31      1.0000 0.10880  0.41420  0.57570  Biso   1.000  C
  C32      1.0000 0.89120  0.58580  0.42430  Biso   1.000  C
  C33      1.0000 0.45160  0.55120  0.75650  Biso   1.000  C
  C34      1.0000 0.54840  0.44880  0.24350  Biso   1.000  C
  C35      1.0000 0.48180  0.55140  0.69210  Biso   1.000  C
  C36      1.0000 0.51820  0.44860  0.30790  Biso   1.000  C
  N1       1.0000 0.57950  0.30300  0.14970  Biso   1.000  N
  N2       1.0000 0.42050  0.69700  0.85030  Biso   1.000  N
  N3       1.0000 0.40600  0.28740  0.81330  Biso   1.000  N
  N4       1.0000 0.59400  0.71260  0.18670  Biso   1.000  N
  N5       1.0000 0.21660  0.41220  0.37420  Biso   1.000  N
  N6       1.0000 0.78340  0.58780  0.62580  Biso   1.000  N
  N7       1.0000 0.78830  0.25620  0.23990  Biso   1.000  N
  N8       1.0000 0.21170  0.74380  0.76010  Biso   1.000  N
  N9       1.0000 0.89980  0.38780  0.79660  Biso   1.000  N
  N10      1.0000 0.10020  0.61220  0.20340  Biso   1.000  N
  N11      1.0000 0.70920  0.07280  0.56790  Biso   1.000  N
  N12      1.0000 0.29080  0.92720  0.43210  Biso   1.000  N
  N13      1.0000 0.55770  0.24450  0.50710  Biso   1.000  N
  N14      1.0000 0.44230  0.75550  0.49290  Biso   1.000  N
  N15      1.0000 0.18080  0.45230  0.64840  Biso   1.000  N
  N16      1.0000 0.81920  0.54770  0.35160  Biso   1.000  N
  N17      1.0000 0.41140  0.49970  0.62620  Biso   1.000  N
  N18      1.0000 0.58860  0.50030  0.37380  Biso   1.000  N
  O1       1.0000 0.40520  0.24500  0.08610  Biso   1.000  O
  O2       1.0000 0.59480  0.75500  0.91390  Biso   1.000  O
  O3       1.0000 0.37830  0.12830  0.12340  Biso   1.000  O
  O4       1.0000 0.62170  0.87170  0.87660  Biso   1.000  O
  O5       1.0000 0.30750  0.23720  0.89830  Biso   1.000  O
  O6       1.0000 0.69250  0.76280  0.10170  Biso   1.000  O
  O7       1.0000 0.22200  0.11570  0.82620  Biso   1.000  O
  O8       1.0000 0.77800  0.88430  0.17380  Biso   1.000  O
  O9       1.0000 0.11890  0.27280  0.27870  Biso   1.000  O
  O10      1.0000 0.88110  0.72720  0.72130  Biso   1.000  O
  O11      1.0000 0.19800  0.30320  0.20420  Biso   1.000  O
  O12      1.0000 0.80200  0.69680  0.79580  Biso   1.000  O
  O13      1.0000 0.88540  0.19220  0.20260  Biso   1.000  O
  O14      1.0000 0.11460  0.80780  0.79740  Biso   1.000  O
  O15      1.0000 0.81830  0.17340  0.08120  Biso   1.000  O
  O16      1.0000 0.18170  0.82660  0.91880  Biso   1.000  O
  O17      1.0000 0.03060  0.29050  0.89540  Biso   1.000  O
  O18      1.0000 0.96940  0.70950  0.10460  Biso   1.000  O
  O19      1.0000 0.88450  0.25010  0.84020  Biso   1.000  O
  O20      1.0000 0.11550  0.74990  0.15980  Biso   1.000  O
  O21      1.0000 0.83860  0.99130  0.69330  Biso   1.000  O
  O22      1.0000 0.16140  0.00870  0.30670  Biso   1.000  O
  O23      1.0000 0.77070  0.06680  0.71040  Biso   1.000  O
  O24      1.0000 0.22930  0.93320  0.28960  Biso   1.000  O
  O25      1.0000 0.65330  0.19180  0.60530  Biso   1.000  O
  O26      1.0000 0.34670  0.80820  0.39470  Biso   1.000  O
  O27      1.0000 0.72230  0.30760  0.68940  Biso   1.000  O
  O28      1.0000 0.27770  0.69240  0.31060  Biso   1.000  O
  O29      1.0000 0.08900  0.35660  0.45480  Biso   1.000  O
  O30      1.0000 0.91100  0.64340  0.54520  Biso   1.000  O
  O31      1.0000 0.22700  0.41790  0.53540  Biso   1.000  O
  O32      1.0000 0.77300  0.58210  0.46460  Biso   1.000  O
  O33      1.0000 0.50750  0.58380  0.81990  Biso   1.000  O
  O34      1.0000 0.49250  0.41620  0.18010  Biso   1.000  O
  O35      1.0000 0.36890  0.51760  0.74420  Biso   1.000  O
  O36      1.0000 0.63110  0.48240  0.25580  Biso   1.000  O
  O37      1.0000 0.11760  0.23560  0.03360  Biso   1.000  O
  O38      1.0000 0.88240  0.76440  0.96640  Biso   1.000  O
  O39      1.0000 0.92450  0.17060  0.96990  Biso   1.000  O
  O40      1.0000 0.07550  0.82940  0.03010  Biso   1.000  O
  O41      1.0000 0.00620  0.17800  0.12210  Biso   1.000  O
  O42      1.0000 0.99380  0.82200  0.87790  Biso   1.000  O
  O43      1.0000 0.11950  0.12180  0.20220  Biso   1.000  O
  O44      1.0000 0.88050  0.87820  0.79780  Biso   1.000  O
  O45      1.0000 0.20880  0.03150  0.16600  Biso   1.000  O
  O46      1.0000 0.79120  0.96850  0.83400  Biso   1.000  O
  O47      1.0000 0.22760  0.17670  0.11200  Biso   1.000  O
  O48      1.0000 0.77240  0.82330  0.88800  Biso   1.000  O
  O49      1.0000 0.11950  0.16980  0.90580  Biso   1.000  O
  O50      1.0000 0.88050  0.83020  0.09420  Biso   1.000  O
  O51      1.0000 0.98090  0.98420  0.19880  Biso   1.000  O
  O52      1.0000 0.01910  0.01580  0.80120  Biso   1.000  O
  O53      1.0000 0.93270  0.10660  0.84340  Biso   1.000  O
  O54      1.0000 0.06730  0.89340  0.15660  Biso   1.000  O
  O55      1.0000 0.13150  0.96070  0.88260  Biso   1.000  O
  O56      1.0000 0.86850  0.03930  0.11740  Biso   1.000  O
  O57      1.0000 0.21660  0.96600  0.03980  Biso   1.000  O
  O58      1.0000 0.78340  0.03400  0.96020  Biso   1.000  O
  O59      1.0000 0.22970  0.10940  0.98340  Biso   1.000  O
  O60      1.0000 0.77030  0.89060  0.01660  Biso   1.000  O
  O61      1.0000 0.41140  0.36620  0.01030  Biso   1.000  O
  O62      1.0000 0.58860  0.63380  0.98970  Biso   1.000  O
  O63      1.0000 0.99570  0.21950  0.34380  Biso   1.000  O
  O64      1.0000 0.00430  0.78050  0.65620  Biso   1.000  O
  O65      1.0000 0.71310  0.16930  0.75580  Biso   1.000  O
  O66      1.0000 0.28690  0.83070  0.24420  Biso   1.000  O
  O67      1.0000 0.31420  0.36230  0.12600  Biso   1.000  O
  O68      1.0000 0.68580  0.63770  0.87400  Biso   1.000  O
  O69      1.0000 0.21470  0.35640  0.94540  Biso   1.000  O
  O70      1.0000 0.78530  0.64360  0.05460  Biso   1.000  O
  O71      1.0000 0.87130  0.02900  0.27930  Biso   1.000  O
  O72      1.0000 0.12870  0.97100  0.72070  Biso   1.000  O
  O73      1.0000 0.09100  0.10270  0.35350  Biso   1.000  O
  O74      1.0000 0.90900  0.89730  0.64650  Biso   1.000  O
  O75      1.0000 0.74270  0.18080  0.92840  Biso   1.000  O
  O76      1.0000 0.25730  0.81920  0.07160  Biso   1.000  O
  O77      1.0000 0.62840  0.00350  0.80850  Biso   1.000  O
  O78      1.0000 0.37160  0.99650  0.19150  Biso   1.000  O
  O79      1.0000 0.32300  0.40290  0.84900  Biso   1.000  O
  O80      1.0000 0.67700  0.59710  0.15100  Biso   1.000  O
  O81      1.0000 0.51820  0.44260  0.92370  Biso   1.000  O
  O82      1.0000 0.48180  0.55740  0.07630  Biso   1.000  O
  O83      1.0000 0.60110  0.44160  0.07220  Biso   1.000  O
  O84      1.0000 0.39890  0.55840  0.92780  Biso   1.000  O
  O85      1.0000 0.91040  0.30390  0.39540  Biso   1.000  O
  O86      1.0000 0.08960  0.69610  0.60460  Biso   1.000  O
  O87      1.0000 0.00460  0.37000  0.28410  Biso   1.000  O
  O88      1.0000 0.99540  0.63000  0.71590  Biso   1.000  O
  O89      1.0000 0.74030  0.31220  0.85970  Biso   1.000  O
  O90      1.0000 0.25970  0.68780  0.14030  Biso   1.000  O
  O91      1.0000 0.85520  0.24030  0.67270  Biso   1.000  O
  O92      1.0000 0.14480  0.75970  0.32730  Biso   1.000  O
  O93      1.0000 0.20100  0.25520  0.44130  Biso   1.000  O
  O94      1.0000 0.79900  0.74480  0.55870  Biso   1.000  O
  O95      1.0000 0.28920  0.49870  0.03640  Biso   1.000  O
  O96      1.0000 0.71080  0.50130  0.96360  Biso   1.000  O
  O97      1.0000 0.83260  0.42830  0.98670  Biso   1.000  O
  O98      1.0000 0.16740  0.57170  0.01330  Biso   1.000  O
  O99      1.0000 0.71750  0.66570  0.32500  Biso   1.000  O
  O100     1.0000 0.28250  0.33430  0.67500  Biso   1.000  O
  O101     1.0000 0.19100  0.81200  0.51550  Biso   1.000  O
  O102     1.0000 0.80900  0.18800  0.48450  Biso   1.000  O
  O103     1.0000 0.45150  0.84410  0.25350  Biso   1.000  O
  O104     1.0000 0.54850  0.15590  0.74650  Biso   1.000  O
  O105     1.0000 0.97910  0.16250  0.47350  Biso   1.000  O
  O106     1.0000 0.02090  0.83750  0.52650  Biso   1.000  O
  O107     1.0000 0.33310  0.02980  0.93230  Biso   1.000  O
  O108     1.0000 0.66690  0.97020  0.06770  Biso   1.000  O
  O109     1.0000 0.79100  0.11960  0.33230  Biso   1.000  O
  O110     1.0000 0.20900  0.88040  0.66770  Biso   1.000  O
  O111     1.0000 0.78200  0.91100  0.42540  Biso   1.000  O
  O112     1.0000 0.21800  0.08900  0.57460  Biso   1.000  O
  O113     1.0000 0.62500  0.82870  0.41660  Biso   1.000  O
  O114     1.0000 0.37500  0.17130  0.58340  Biso   1.000  O
  O115     1.0000 0.38570  0.96700  0.02180  Biso   1.000  O
  O116     1.0000 0.61430  0.03300  0.97820  Biso   1.000  O
  O117     1.0000 0.94700  0.98100  0.03200  Biso   1.000  O
  O118     1.0000 0.05300  0.01900  0.96800  Biso   1.000  O
  O119     1.0000 0.03000  0.07000  0.03200  Biso   1.000  O
  O120     1.0000 0.97000  0.93000  0.96800  Biso   1.000  O
  O121     1.0000 0.89340  0.44640  0.17320  Biso   1.000  O
  O122     1.0000 0.10660  0.55360  0.82680  Biso   1.000  O
  O123     1.0000 0.78710  0.41640  0.22960  Biso   1.000  O
  O124     1.0000 0.21290  0.58360  0.77040  Biso   1.000  O
  O125     1.0000 0.83100  0.53550  0.18860  Biso   1.000  O
  O126     1.0000 0.16900  0.46450  0.81140  Biso   1.000  O
  O127     1.0000 0.74560  0.41040  0.10570  Biso   1.000  O
  O128     1.0000 0.25440  0.58960  0.89430  Biso   1.000  O
  O129     1.0000 0.11420  0.38810  0.06990  Biso   1.000  O
  O130     1.0000 0.88580  0.61190  0.93010  Biso   1.000  O
  O131     1.0000 0.03180  0.45840  0.07520  Biso   1.000  O
  O132     1.0000 0.96820  0.54160  0.92480  Biso   1.000  O
  O133     1.0000 0.96410  0.32930  0.04400  Biso   1.000  O
  O134     1.0000 0.03590  0.67070  0.95600  Biso   1.000  O
  O135     1.0000 0.05000  0.38300  0.15470  Biso   1.000  O
  O136     1.0000 0.95000  0.61700  0.84530  Biso   1.000  O
  O137     1.0000 0.79480  0.37620  0.38470  Biso   1.000  O
  O138     1.0000 0.20520  0.62380  0.61530  Biso   1.000  O
  O139     1.0000 0.67850  0.37960  0.41040  Biso   1.000  O
  O140     1.0000 0.32150  0.62040  0.58960  Biso   1.000  O
  O141     1.0000 0.69680  0.28050  0.43250  Biso   1.000  O
  O142     1.0000 0.30320  0.71950  0.56750  Biso   1.000  O
  O143     1.0000 0.65660  0.29200  0.31600  Biso   1.000  O
  O144     1.0000 0.34340  0.70800  0.68400  Biso   1.000  O
  O145     1.0000 0.12210  0.64470  0.42530  Biso   1.000  O
  O146     1.0000 0.87790  0.35530  0.57470  Biso   1.000  O
  O147     1.0000 0.16340  0.54890  0.40660  Biso   1.000  O
  O148     1.0000 0.83660  0.45110  0.59340  Biso   1.000  O
  O149     1.0000 0.04800  0.51830  0.43750  Biso   1.000  O
  O150     1.0000 0.95200  0.48170  0.56250  Biso   1.000  O
  O151     1.0000 0.03640  0.54430  0.33290  Biso   1.000  O
  O152     1.0000 0.96360  0.45570  0.66710  Biso   1.000  O
  O153     1.0000 0.58220  0.33450  0.77700  Biso   1.000  O
  O154     1.0000 0.41780  0.66550  0.22300  Biso   1.000  O
  O155     1.0000 0.54360  0.43830  0.78720  Biso   1.000  O
  O156     1.0000 0.45640  0.56170  0.21280  Biso   1.000  O
  O157     1.0000 0.58530  0.41790  0.68600  Biso   1.000  O
  O158     1.0000 0.41470  0.58210  0.31400  Biso   1.000  O
  O159     1.0000 0.69040  0.46490  0.80450  Biso   1.000  O
  O160     1.0000 0.30960  0.53510  0.19550  Biso   1.000  O
  O161     1.0000 0.98850  0.18720  0.73260  Biso   1.000  O
  O162     1.0000 0.01150  0.81280  0.26740  Biso   1.000  O
  O163     1.0000 0.13910  0.24630  0.77570  Biso   1.000  O
  O164     1.0000 0.86090  0.75370  0.22430  Biso   1.000  O
  O165     1.0000 0.05670  0.24340  0.65540  Biso   1.000  O
  O166     1.0000 0.94330  0.75660  0.34460  Biso   1.000  O
  O167     1.0000 0.05770  0.12730  0.69060  Biso   1.000  O
  O168     1.0000 0.94230  0.87270  0.30940  Biso   1.000  O
  O169     1.0000 0.43990  0.26220  0.37160  Biso   1.000  O
  O170     1.0000 0.56010  0.73780  0.62840  Biso   1.000  O
  O171     1.0000 0.36910  0.25000  0.25030  Biso   1.000  O
  O172     1.0000 0.63090  0.75000  0.74970  Biso   1.000  O
  O173     1.0000 0.28530  0.21100  0.32540  Biso   1.000  O
  O174     1.0000 0.71470  0.78900  0.67460  Biso   1.000  O
  O175     1.0000 0.35400  0.13150  0.29890  Biso   1.000  O
  O176     1.0000 0.64600  0.86850  0.70110  Biso   1.000  O
  O177     1.0000 0.44000  0.87750  0.59990  Biso   1.000  O
  O178     1.0000 0.56000  0.12250  0.40010  Biso   1.000  O
  O179     1.0000 0.56170  0.02000  0.64830  Biso   1.000  O
  O180     1.0000 0.43830  0.98000  0.35170  Biso   1.000  O
  O181     1.0000 0.41800  0.02700  0.59500  Biso   1.000  O
  O182     1.0000 0.58200  0.97300  0.40500  Biso   1.000  O
  O183     1.0000 0.52100  0.93400  0.52300  Biso   1.000  O
  O184     1.0000 0.47900  0.06600  0.47700  Biso   1.000  O
  O185     1.0000 0.51100  0.27180  0.97430  Biso   1.000  O
  O186     1.0000 0.48900  0.72820  0.02570  Biso   1.000  O
  O187     1.0000 0.53330  0.20210  0.88880  Biso   1.000  O
  O188     1.0000 0.46670  0.79790  0.11120  Biso   1.000  O
  O189     1.0000 0.59400  0.20760  0.00990  Biso   1.000  O
  O190     1.0000 0.40600  0.79240  0.99010  Biso   1.000  O
  O191     1.0000 0.63700  0.30400  0.96200  Biso   1.000  O
  O192     1.0000 0.36300  0.69600  0.03800  Biso   1.000  O
  O193     1.0000 0.36800  0.89400  0.74200  Biso   1.000  O
  O194     1.0000 0.63200  0.10600  0.25800  Biso   1.000  O
  O195     1.0000 0.34100  0.00900  0.78700  Biso   1.000  O
  O196     1.0000 0.65900  0.99100  0.21300  Biso   1.000  O
  O197     1.0000 0.48100  0.02700  0.79600  Biso   1.000  O
  O198     1.0000 0.51900  0.97300  0.20400  Biso   1.000  O
  O199     1.0000 0.38100  0.93000  0.85900  Biso   1.000  O
  O200     1.0000 0.61900  0.07000  0.14100  Biso   1.000  O
  O201     1.0000 0.46370  0.59930  0.51740  Biso   1.000  O
  O202     1.0000 0.53630  0.40070  0.48260  Biso   1.000  O
  O203     1.0000 0.56400  0.54800  0.55160  Biso   1.000  O
  O204     1.0000 0.43600  0.45200  0.44840  Biso   1.000  O
  O205     1.0000 0.58300  0.63400  0.47100  Biso   1.000  O
  O206     1.0000 0.41700  0.36600  0.52900  Biso   1.000  O
