data_image0
_cell_length_a       9.7146
_cell_length_b       30.072
_cell_length_c       10.7018
_cell_angle_alpha    90
_cell_angle_beta     103.522
_cell_angle_gamma    90

_symmetry_space_group_name_H-M    "P 1"
_symmetry_int_tables_number       1

loop_
  _symmetry_equiv_pos_as_xyz
  'x, y, z'

loop_
  _atom_site_label
  _atom_site_occupancy
  _atom_site_fract_x
  _atom_site_fract_y
  _atom_site_fract_z
  _atom_site_thermal_displace_type
  _atom_site_B_iso_or_equiv
  _atom_site_type_symbol
  O1       1.0000 0.09988  0.13832  0.83881  Biso   1.000  O
  O2       1.0000 0.40012  0.63832  0.66119  Biso   1.000  O
  O3       1.0000 0.90012  0.86168  0.16119  Biso   1.000  O
  O4       1.0000 0.59988  0.36168  0.33881  Biso   1.000  O
  O5       1.0000 0.93984  0.09646  0.89664  Biso   1.000  O
  O6       1.0000 0.56016  0.59646  0.60336  Biso   1.000  O
  O7       1.0000 0.06016  0.90354  0.10336  Biso   1.000  O
  O8       1.0000 0.43984  0.40354  0.39664  Biso   1.000  O
  O9       1.0000 0.04042  0.34574  0.65300  Biso   1.000  O
  O10      1.0000 0.45958  0.84574  0.84700  Biso   1.000  O
  O11      1.0000 0.95958  0.65426  0.34700  Biso   1.000  O
  O12      1.0000 0.54042  0.15426  0.15300  Biso   1.000  O
  O13      1.0000 0.91146  0.32900  0.45956  Biso   1.000  O
  O14      1.0000 0.58854  0.82900  0.04044  Biso   1.000  O
  O15      1.0000 0.08854  0.67100  0.54044  Biso   1.000  O
  O16      1.0000 0.41146  0.17100  0.95956  Biso   1.000  O
  C1       1.0000 0.00240  0.13213  0.89888  Biso   1.000  C
  C2       1.0000 0.49760  0.63213  0.60112  Biso   1.000  C
  C3       1.0000 0.99760  0.86787  0.10112  Biso   1.000  C
  C4       1.0000 0.50240  0.36787  0.39888  Biso   1.000  C
  C5       1.0000 0.04420  0.27114  0.58198  Biso   1.000  C
  C6       1.0000 0.45580  0.77114  0.91802  Biso   1.000  C
  C7       1.0000 0.95580  0.72886  0.41802  Biso   1.000  C
  C8       1.0000 0.54420  0.22886  0.08198  Biso   1.000  C
  C9       1.0000 0.99360  0.31834  0.56067  Biso   1.000  C
  C10      1.0000 0.50640  0.81834  0.93933  Biso   1.000  C
  C11      1.0000 0.00640  0.68166  0.43933  Biso   1.000  C
  C12      1.0000 0.49360  0.18166  0.06067  Biso   1.000  C
  O17      1.0000 0.18571  0.29131  0.78503  Biso   1.000  O
  O18      1.0000 0.31429  0.79131  0.71497  Biso   1.000  O
  O19      1.0000 0.81429  0.70869  0.21497  Biso   1.000  O
  O20      1.0000 0.68571  0.20869  0.28503  Biso   1.000  O
  C13      1.0000 0.15270  0.26002  0.70180  Biso   1.000  C
  C14      1.0000 0.34730  0.76002  0.79820  Biso   1.000  C
  C15      1.0000 0.84730  0.73998  0.29820  Biso   1.000  C
  C16      1.0000 0.65270  0.23998  0.20180  Biso   1.000  C
  C17      1.0000 0.96670  0.17140  0.97790  Biso   1.000  C
  C18      1.0000 0.53330  0.67140  0.52210  Biso   1.000  C
  C19      1.0000 0.03330  0.82860  0.02210  Biso   1.000  C
  C20      1.0000 0.46670  0.32860  0.47790  Biso   1.000  C
  C21      1.0000 0.93490  0.23477  0.53470  Biso   1.000  C
  C22      1.0000 0.56510  0.73477  0.96530  Biso   1.000  C
  C23      1.0000 0.06510  0.76523  0.46530  Biso   1.000  C
  C24      1.0000 0.43490  0.26523  0.03470  Biso   1.000  C
  H1       1.0000 0.94180  0.20720  0.58620  Biso   1.000  H
  H2       1.0000 0.55820  0.70720  0.91380  Biso   1.000  H
  H3       1.0000 0.05820  0.79280  0.41380  Biso   1.000  H
  H4       1.0000 0.44180  0.29280  0.08620  Biso   1.000  H
  H5       1.0000 0.83710  0.24410  0.49350  Biso   1.000  H
  H6       1.0000 0.66290  0.74410  0.00650  Biso   1.000  H
  H7       1.0000 0.16290  0.75590  0.50650  Biso   1.000  H
  H8       1.0000 0.33710  0.25590  0.99350  Biso   1.000  H
  C25      1.0000 0.04520  0.24305  0.46460  Biso   1.000  C
  C26      1.0000 0.45480  0.74305  0.03540  Biso   1.000  C
  C27      1.0000 0.95480  0.75695  0.53540  Biso   1.000  C
  C28      1.0000 0.54520  0.25695  0.96460  Biso   1.000  C
  H9       1.0000 0.01640  0.25750  0.37940  Biso   1.000  H
  H10      1.0000 0.48360  0.75750  0.12060  Biso   1.000  H
  H11      1.0000 0.98360  0.74250  0.62060  Biso   1.000  H
  H12      1.0000 0.51640  0.24250  0.87940  Biso   1.000  H
  H13      1.0000 0.12110  0.22060  0.47190  Biso   1.000  H
  H14      1.0000 0.37890  0.72060  0.02810  Biso   1.000  H
  H15      1.0000 0.87890  0.77940  0.52810  Biso   1.000  H
  H16      1.0000 0.62110  0.27940  0.97190  Biso   1.000  H
  C29      1.0000 0.83790  0.16011  0.03130  Biso   1.000  C
  C30      1.0000 0.66210  0.66011  0.46870  Biso   1.000  C
  C31      1.0000 0.16210  0.83989  0.96870  Biso   1.000  C
  C32      1.0000 0.33790  0.33989  0.53130  Biso   1.000  C
  H17      1.0000 0.75520  0.15560  0.95990  Biso   1.000  H
  H18      1.0000 0.74480  0.65560  0.54010  Biso   1.000  H
  H19      1.0000 0.24480  0.84440  0.04010  Biso   1.000  H
  H20      1.0000 0.25520  0.34440  0.45990  Biso   1.000  H
  H21      1.0000 0.81940  0.18460  0.08550  Biso   1.000  H
  H22      1.0000 0.68060  0.68460  0.41450  Biso   1.000  H
  H23      1.0000 0.18060  0.81540  0.91450  Biso   1.000  H
  H24      1.0000 0.31940  0.31540  0.58550  Biso   1.000  H
  H25      1.0000 0.85670  0.13280  0.08260  Biso   1.000  H
  H26      1.0000 0.64330  0.63280  0.41740  Biso   1.000  H
  H27      1.0000 0.14330  0.86720  0.91740  Biso   1.000  H
  H28      1.0000 0.35670  0.36720  0.58260  Biso   1.000  H
  C33      1.0000 0.93050  0.21209  0.89270  Biso   1.000  C
  C34      1.0000 0.56950  0.71209  0.60730  Biso   1.000  C
  C35      1.0000 0.06950  0.78791  0.10730  Biso   1.000  C
  C36      1.0000 0.43050  0.28791  0.39270  Biso   1.000  C
  H29      1.0000 0.85430  0.20470  0.81790  Biso   1.000  H
  H30      1.0000 0.64570  0.70470  0.68210  Biso   1.000  H
  H31      1.0000 0.14570  0.79530  0.18210  Biso   1.000  H
  H32      1.0000 0.35430  0.29530  0.31790  Biso   1.000  H
  H33      1.0000 0.01440  0.22160  0.86370  Biso   1.000  H
  H34      1.0000 0.48560  0.72160  0.63630  Biso   1.000  H
  H35      1.0000 0.98560  0.77840  0.13630  Biso   1.000  H
  H36      1.0000 0.51440  0.27840  0.36370  Biso   1.000  H
  H37      1.0000 0.89940  0.23620  0.94130  Biso   1.000  H
  H38      1.0000 0.60060  0.73620  0.55870  Biso   1.000  H
  H39      1.0000 0.10060  0.76380  0.05870  Biso   1.000  H
  H40      1.0000 0.39940  0.26380  0.44130  Biso   1.000  H
  C37      1.0000 0.09230  0.17909  0.08960  Biso   1.000  C
  C38      1.0000 0.40770  0.67909  0.41040  Biso   1.000  C
  C39      1.0000 0.90770  0.82091  0.91040  Biso   1.000  C
  C40      1.0000 0.59230  0.32091  0.58960  Biso   1.000  C
  H41      1.0000 0.11740  0.15120  0.13670  Biso   1.000  H
  H42      1.0000 0.38260  0.65120  0.36330  Biso   1.000  H
  H43      1.0000 0.88260  0.84880  0.86330  Biso   1.000  H
  H44      1.0000 0.61740  0.34880  0.63670  Biso   1.000  H
  H45      1.0000 0.06790  0.20150  0.14730  Biso   1.000  H
  H46      1.0000 0.43210  0.70150  0.35270  Biso   1.000  H
  H47      1.0000 0.93210  0.79850  0.85270  Biso   1.000  H
  H48      1.0000 0.56790  0.29850  0.64730  Biso   1.000  H
  H49      1.0000 0.17300  0.18950  0.05720  Biso   1.000  H
  H50      1.0000 0.32700  0.68950  0.44280  Biso   1.000  H
  H51      1.0000 0.82700  0.81050  0.94280  Biso   1.000  H
  H52      1.0000 0.67300  0.31050  0.55720  Biso   1.000  H
  O21      1.0000 0.30006  0.11751  0.71184  Biso   1.000  O
  O22      1.0000 0.19994  0.61751  0.78816  Biso   1.000  O
  O23      1.0000 0.69994  0.88249  0.28816  Biso   1.000  O
  O24      1.0000 0.80006  0.38249  0.21184  Biso   1.000  O
  N1       1.0000 0.01072  0.08642  0.58086  Biso   1.000  N
  N2       1.0000 0.48928  0.58642  0.91914  Biso   1.000  N
  N3       1.0000 0.98928  0.91358  0.41914  Biso   1.000  N
  N4       1.0000 0.51072  0.41358  0.08086  Biso   1.000  N
  N5       1.0000 0.04351  0.02301  0.74081  Biso   1.000  N
  N6       1.0000 0.45649  0.52301  0.75919  Biso   1.000  N
  N7       1.0000 0.95649  0.97699  0.25919  Biso   1.000  N
  N8       1.0000 0.54351  0.47699  0.24081  Biso   1.000  N
  N9       1.0000 0.25641  0.04790  0.91513  Biso   1.000  N
  N10      1.0000 0.24359  0.54790  0.58487  Biso   1.000  N
  N11      1.0000 0.74359  0.95210  0.08487  Biso   1.000  N
  N12      1.0000 0.75641  0.45210  0.41513  Biso   1.000  N
  C41      1.0000 0.38010  0.09730  0.65034  Biso   1.000  C
  C42      1.0000 0.11990  0.59730  0.84966  Biso   1.000  C
  C43      1.0000 0.61990  0.90270  0.34966  Biso   1.000  C
  C44      1.0000 0.88010  0.40270  0.15034  Biso   1.000  C
  C45      1.0000 0.91630  0.05304  0.54571  Biso   1.000  C
  C46      1.0000 0.58370  0.55304  0.95429  Biso   1.000  C
  C47      1.0000 0.08370  0.94696  0.45429  Biso   1.000  C
  C48      1.0000 0.41630  0.44696  0.04571  Biso   1.000  C
  O25      1.0000 0.20385  0.22233  0.71626  Biso   1.000  O
  O26      1.0000 0.29615  0.72233  0.78374  Biso   1.000  O
  O27      1.0000 0.79615  0.77767  0.28374  Biso   1.000  O
  O28      1.0000 0.70385  0.27767  0.21626  Biso   1.000  O
  C49      1.0000 0.20320  0.00784  0.93809  Biso   1.000  C
  C50      1.0000 0.29680  0.50784  0.56191  Biso   1.000  C
  C51      1.0000 0.79680  0.99216  0.06191  Biso   1.000  C
  C52      1.0000 0.70320  0.49216  0.43809  Biso   1.000  C
  C53      1.0000 0.07680  0.99416  0.83876  Biso   1.000  C
  C54      1.0000 0.42320  0.49416  0.66124  Biso   1.000  C
  C55      1.0000 0.92320  0.00584  0.16124  Biso   1.000  C
  C56      1.0000 0.57680  0.50584  0.33876  Biso   1.000  C
  C57      1.0000 0.93360  0.01653  0.64082  Biso   1.000  C
  C58      1.0000 0.56640  0.51653  0.85918  Biso   1.000  C
  C59      1.0000 0.06640  0.98347  0.35918  Biso   1.000  C
  C60      1.0000 0.43360  0.48347  0.14082  Biso   1.000  C
  C61      1.0000 0.26390  0.98270  0.04500  Biso   1.000  C
  C62      1.0000 0.23610  0.48270  0.45500  Biso   1.000  C
  C63      1.0000 0.73610  0.01730  0.95500  Biso   1.000  C
  C64      1.0000 0.76390  0.51730  0.54500  Biso   1.000  C
  H53      1.0000 0.22600  0.95450  0.05880  Biso   1.000  H
  H54      1.0000 0.27400  0.45450  0.44120  Biso   1.000  H
  H55      1.0000 0.77400  0.04550  0.94120  Biso   1.000  H
  H56      1.0000 0.72600  0.54550  0.55880  Biso   1.000  H
  C65      1.0000 0.99520  0.95648  0.84050  Biso   1.000  C
  C66      1.0000 0.50480  0.45648  0.65950  Biso   1.000  C
  C67      1.0000 0.00480  0.04352  0.15950  Biso   1.000  C
  C68      1.0000 0.49520  0.54352  0.34050  Biso   1.000  C
  H57      1.0000 0.01640  0.93620  0.91040  Biso   1.000  H
  H58      1.0000 0.48360  0.43620  0.58960  Biso   1.000  H
  H59      1.0000 0.98360  0.06380  0.08960  Biso   1.000  H
  H60      1.0000 0.51640  0.56380  0.41040  Biso   1.000  H
  C69      1.0000 0.00260  0.12211  0.50470  Biso   1.000  C
  C70      1.0000 0.49740  0.62211  0.99530  Biso   1.000  C
  C71      1.0000 0.99740  0.87789  0.49530  Biso   1.000  C
  C72      1.0000 0.50260  0.37789  0.00470  Biso   1.000  C
  H61      1.0000 0.06940  0.14540  0.52930  Biso   1.000  H
  H62      1.0000 0.43060  0.64540  0.97070  Biso   1.000  H
  H63      1.0000 0.93060  0.85460  0.47070  Biso   1.000  H
  H64      1.0000 0.56940  0.35460  0.02930  Biso   1.000  H
  C73      1.0000 0.49030  0.12499  0.60270  Biso   1.000  C
  C74      1.0000 0.00970  0.62499  0.89730  Biso   1.000  C
  C75      1.0000 0.50970  0.87501  0.39730  Biso   1.000  C
  C76      1.0000 0.99030  0.37501  0.10270  Biso   1.000  C
  C77      1.0000 0.81330  0.05457  0.43210  Biso   1.000  C
  C78      1.0000 0.68670  0.55457  0.06790  Biso   1.000  C
  C79      1.0000 0.18670  0.94543  0.56790  Biso   1.000  C
  C80      1.0000 0.31330  0.44543  0.93210  Biso   1.000  C
  H65      1.0000 0.74930  0.03050  0.40770  Biso   1.000  H
  H66      1.0000 0.75070  0.53050  0.09230  Biso   1.000  H
  H67      1.0000 0.25070  0.96950  0.59230  Biso   1.000  H
  H68      1.0000 0.24930  0.46950  0.90770  Biso   1.000  H
  C81      1.0000 0.88130  0.94937  0.73680  Biso   1.000  C
  C82      1.0000 0.61870  0.44937  0.76320  Biso   1.000  C
  C83      1.0000 0.11870  0.05063  0.26320  Biso   1.000  C
  C84      1.0000 0.38130  0.55063  0.23680  Biso   1.000  C
  H69      1.0000 0.82410  0.92370  0.73560  Biso   1.000  H
  H70      1.0000 0.67590  0.42370  0.76440  Biso   1.000  H
  H71      1.0000 0.17590  0.07630  0.26440  Biso   1.000  H
  H72      1.0000 0.32410  0.57630  0.23560  Biso   1.000  H
  C85      1.0000 0.36820  0.06417  0.00050  Biso   1.000  C
  C86      1.0000 0.13180  0.56417  0.49950  Biso   1.000  C
  C87      1.0000 0.63180  0.93583  0.99950  Biso   1.000  C
  C88      1.0000 0.86820  0.43583  0.50050  Biso   1.000  C
  H73      1.0000 0.40470  0.09250  0.98540  Biso   1.000  H
  H74      1.0000 0.09530  0.59250  0.51460  Biso   1.000  H
  H75      1.0000 0.59530  0.90750  0.01460  Biso   1.000  H
  H76      1.0000 0.90470  0.40750  0.48540  Biso   1.000  H
  C89      1.0000 0.80530  0.09167  0.35490  Biso   1.000  C
  C90      1.0000 0.69470  0.59167  0.14510  Biso   1.000  C
  C91      1.0000 0.19470  0.90833  0.64510  Biso   1.000  C
  C92      1.0000 0.30530  0.40833  0.85490  Biso   1.000  C
  H77      1.0000 0.73480  0.09350  0.27690  Biso   1.000  H
  H78      1.0000 0.76520  0.59350  0.22310  Biso   1.000  H
  H79      1.0000 0.26520  0.90650  0.72310  Biso   1.000  H
  H80      1.0000 0.23480  0.40650  0.77690  Biso   1.000  H
  C93      1.0000 0.84950  0.97897  0.63510  Biso   1.000  C
  C94      1.0000 0.65050  0.47897  0.86490  Biso   1.000  C
  C95      1.0000 0.15050  0.02103  0.36490  Biso   1.000  C
  C96      1.0000 0.34950  0.52103  0.13510  Biso   1.000  C
  H81      1.0000 0.77250  0.97370  0.56360  Biso   1.000  H
  H82      1.0000 0.72750  0.47370  0.93640  Biso   1.000  H
  H83      1.0000 0.22750  0.02630  0.43640  Biso   1.000  H
  H84      1.0000 0.27250  0.52630  0.06360  Biso   1.000  H
  C97      1.0000 0.90030  0.12615  0.39180  Biso   1.000  C
  C98      1.0000 0.59970  0.62615  0.10820  Biso   1.000  C
  C99      1.0000 0.09970  0.87385  0.60820  Biso   1.000  C
  C100     1.0000 0.40030  0.37385  0.89180  Biso   1.000  C
  H85      1.0000 0.89530  0.15210  0.34030  Biso   1.000  H
  H86      1.0000 0.60470  0.65210  0.15970  Biso   1.000  H
  H87      1.0000 0.10470  0.84790  0.65970  Biso   1.000  H
  H88      1.0000 0.39530  0.34790  0.84030  Biso   1.000  H
  C101     1.0000 0.43220  0.04080  0.11030  Biso   1.000  C
  C102     1.0000 0.06780  0.54080  0.38970  Biso   1.000  C
  C103     1.0000 0.56780  0.95920  0.88970  Biso   1.000  C
  C104     1.0000 0.93220  0.45920  0.61030  Biso   1.000  C
  H89      1.0000 0.51060  0.05320  0.17030  Biso   1.000  H
  H90      1.0000 0.98940  0.55320  0.32970  Biso   1.000  H
  H91      1.0000 0.48940  0.94680  0.82970  Biso   1.000  H
  H92      1.0000 0.01060  0.44680  0.67030  Biso   1.000  H
  C105     1.0000 0.38100  0.99949  0.13150  Biso   1.000  C
  C106     1.0000 0.11900  0.49949  0.36850  Biso   1.000  C
  C107     1.0000 0.61900  0.00051  0.86850  Biso   1.000  C
  C108     1.0000 0.88100  0.50051  0.63150  Biso   1.000  C
  H93      1.0000 0.42560  0.98270  0.20500  Biso   1.000  H
  H94      1.0000 0.07440  0.48270  0.29500  Biso   1.000  H
  H95      1.0000 0.57440  0.01730  0.79500  Biso   1.000  H
  H96      1.0000 0.92560  0.51730  0.70500  Biso   1.000  H
  C109     1.0000 0.49530  0.17326  0.64870  Biso   1.000  C
  C110     1.0000 0.00470  0.67326  0.85130  Biso   1.000  C
  C111     1.0000 0.50470  0.82674  0.35130  Biso   1.000  C
  C112     1.0000 0.99530  0.32674  0.14870  Biso   1.000  C
  H97      1.0000 0.51750  0.17400  0.74280  Biso   1.000  H
  H98      1.0000 0.98250  0.67400  0.75720  Biso   1.000  H
  H99      1.0000 0.48250  0.82600  0.25720  Biso   1.000  H
  H100     1.0000 0.01750  0.32600  0.24280  Biso   1.000  H
  H101     1.0000 0.40310  0.18730  0.61480  Biso   1.000  H
  H102     1.0000 0.09690  0.68730  0.88520  Biso   1.000  H
  H103     1.0000 0.59690  0.81270  0.38520  Biso   1.000  H
  H104     1.0000 0.90310  0.31270  0.11480  Biso   1.000  H
  H105     1.0000 0.56840  0.18940  0.61780  Biso   1.000  H
  H106     1.0000 0.93160  0.68940  0.88220  Biso   1.000  H
  H107     1.0000 0.43160  0.81060  0.38220  Biso   1.000  H
  H108     1.0000 0.06840  0.31060  0.11780  Biso   1.000  H
  C113     1.0000 0.63590  0.10442  0.65440  Biso   1.000  C
  C114     1.0000 0.86410  0.60442  0.84560  Biso   1.000  C
  C115     1.0000 0.36410  0.89558  0.34560  Biso   1.000  C
  C116     1.0000 0.13590  0.39558  0.15440  Biso   1.000  C
  H109     1.0000 0.65850  0.10480  0.74860  Biso   1.000  H
  H110     1.0000 0.84150  0.60480  0.75140  Biso   1.000  H
  H111     1.0000 0.34150  0.89520  0.25140  Biso   1.000  H
  H112     1.0000 0.15850  0.39520  0.24860  Biso   1.000  H
  H113     1.0000 0.70720  0.12160  0.62360  Biso   1.000  H
  H114     1.0000 0.79280  0.62160  0.87640  Biso   1.000  H
  H115     1.0000 0.29280  0.87840  0.37640  Biso   1.000  H
  H116     1.0000 0.20720  0.37840  0.12360  Biso   1.000  H
  H117     1.0000 0.63570  0.07360  0.62420  Biso   1.000  H
  H118     1.0000 0.86430  0.57360  0.87580  Biso   1.000  H
  H119     1.0000 0.36430  0.92640  0.37580  Biso   1.000  H
  H120     1.0000 0.13570  0.42640  0.12420  Biso   1.000  H
  C117     1.0000 0.45060  0.12340  0.45590  Biso   1.000  C
  C118     1.0000 0.04940  0.62340  0.04410  Biso   1.000  C
  C119     1.0000 0.54940  0.87660  0.54410  Biso   1.000  C
  C120     1.0000 0.95060  0.37660  0.95590  Biso   1.000  C
  H121     1.0000 0.45380  0.09260  0.42720  Biso   1.000  H
  H122     1.0000 0.04620  0.59260  0.07280  Biso   1.000  H
  H123     1.0000 0.54620  0.90740  0.57280  Biso   1.000  H
  H124     1.0000 0.95380  0.40740  0.92720  Biso   1.000  H
  H125     1.0000 0.51780  0.14140  0.42200  Biso   1.000  H
  H126     1.0000 0.98220  0.64140  0.07800  Biso   1.000  H
  H127     1.0000 0.48220  0.85860  0.57800  Biso   1.000  H
  H128     1.0000 0.01780  0.35860  0.92200  Biso   1.000  H
  H129     1.0000 0.35480  0.13520  0.42440  Biso   1.000  H
  H130     1.0000 0.14520  0.63520  0.07560  Biso   1.000  H
  H131     1.0000 0.64520  0.86480  0.57560  Biso   1.000  H
  H132     1.0000 0.85480  0.36480  0.92440  Biso   1.000  H
  Cu1      1.0000 0.15013  0.07807  0.75201  Biso   1.000  Cu
  Cu2      1.0000 0.34987  0.57807  0.74799  Biso   1.000  Cu
  Cu3      1.0000 0.84987  0.92193  0.24799  Biso   1.000  Cu
  Cu4      1.0000 0.65013  0.42193  0.25201  Biso   1.000  Cu
  Li1      1.0000 0.26230  0.17001  0.81110  Biso   1.000  Li
  Li2      1.0000 0.23770  0.67001  0.68890  Biso   1.000  Li
  Li3      1.0000 0.73770  0.82999  0.18890  Biso   1.000  Li
  Li4      1.0000 0.76230  0.32999  0.31110  Biso   1.000  Li
  O29      1.0000 0.36993  0.05672  0.62876  Biso   1.000  O
  O30      1.0000 0.13007  0.55672  0.87124  Biso   1.000  O
  O31      1.0000 0.63007  0.94328  0.37124  Biso   1.000  O
  O32      1.0000 0.86993  0.44328  0.12876  Biso   1.000  O
  O33      1.0000 0.49820  0.01380  0.44300  Biso   1.000  O
  O34      1.0000 0.00180  0.51380  0.05700  Biso   1.000  O
  O35      1.0000 0.50180  0.98620  0.55700  Biso   1.000  O
  O36      1.0000 0.99820  0.48620  0.94300  Biso   1.000  O
  H133     1.0000 0.54300  0.99000  0.46200  Biso   1.000  H
  H134     1.0000 0.95700  0.49000  0.03800  Biso   1.000  H
  H135     1.0000 0.45700  0.01000  0.53800  Biso   1.000  H
  H136     1.0000 0.04300  0.51000  0.96200  Biso   1.000  H
  H137     1.0000 0.46800  0.02100  0.50900  Biso   1.000  H
  H138     1.0000 0.03200  0.52100  0.99100  Biso   1.000  H
  H139     1.0000 0.53200  0.97900  0.49100  Biso   1.000  H
  H140     1.0000 0.96800  0.47900  0.00900  Biso   1.000  H
