data_image0
_cell_length_a       28.669
_cell_length_b       10.27
_cell_length_c       14.06
_cell_angle_alpha    90
_cell_angle_beta     116.469
_cell_angle_gamma    90

_symmetry_space_group_name_H-M    "P 1"
_symmetry_int_tables_number       1

loop_
  _symmetry_equiv_pos_as_xyz
  'x, y, z'

loop_
  _atom_site_label
  _atom_site_occupancy
  _atom_site_fract_x
  _atom_site_fract_y
  _atom_site_fract_z
  _atom_site_thermal_displace_type
  _atom_site_B_iso_or_equiv
  _atom_site_type_symbol
  Cu1      1.0000 0.13611  0.84355  0.27142  Biso   1.000  Cu
  Cu2      1.0000 0.86389  0.84355  0.22858  Biso   1.000  Cu
  Cu3      1.0000 0.63611  0.34355  0.27142  Biso   1.000  Cu
  Cu4      1.0000 0.36389  0.34355  0.22858  Biso   1.000  Cu
  Cu5      1.0000 0.86389  0.15645  0.72858  Biso   1.000  Cu
  Cu6      1.0000 0.13611  0.15645  0.77142  Biso   1.000  Cu
  Cu7      1.0000 0.36389  0.65645  0.72858  Biso   1.000  Cu
  Cu8      1.0000 0.63611  0.65645  0.77142  Biso   1.000  Cu
  N1       1.0000 0.20995  0.90710  0.35150  Biso   1.000  N
  N2       1.0000 0.79005  0.90710  0.14850  Biso   1.000  N
  N3       1.0000 0.70995  0.40710  0.35150  Biso   1.000  N
  N4       1.0000 0.29005  0.40710  0.14850  Biso   1.000  N
  N5       1.0000 0.79005  0.09290  0.64850  Biso   1.000  N
  N6       1.0000 0.20995  0.09290  0.85150  Biso   1.000  N
  N7       1.0000 0.29005  0.59290  0.64850  Biso   1.000  N
  N8       1.0000 0.70995  0.59290  0.85150  Biso   1.000  N
  N9       1.0000 0.17346  0.67940  0.29480  Biso   1.000  N
  N10      1.0000 0.82654  0.67940  0.20520  Biso   1.000  N
  N11      1.0000 0.67346  0.17940  0.29480  Biso   1.000  N
  N12      1.0000 0.32654  0.17940  0.20520  Biso   1.000  N
  N13      1.0000 0.82654  0.32060  0.70520  Biso   1.000  N
  N14      1.0000 0.17346  0.32060  0.79480  Biso   1.000  N
  N15      1.0000 0.32654  0.82060  0.70520  Biso   1.000  N
  N16      1.0000 0.67346  0.82060  0.79480  Biso   1.000  N
  N17      1.0000 0.07546  0.71510  0.21090  Biso   1.000  N
  N18      1.0000 0.92454  0.71510  0.28910  Biso   1.000  N
  N19      1.0000 0.57546  0.21510  0.21090  Biso   1.000  N
  N20      1.0000 0.42454  0.21510  0.28910  Biso   1.000  N
  N21      1.0000 0.92454  0.28490  0.78910  Biso   1.000  N
  N22      1.0000 0.07546  0.28490  0.71090  Biso   1.000  N
  N23      1.0000 0.42454  0.78490  0.78910  Biso   1.000  N
  N24      1.0000 0.57546  0.78490  0.71090  Biso   1.000  N
  O1       1.0000 0.11213  0.91340  0.11730  Biso   1.000  O
  O2       1.0000 0.88787  0.91340  0.38270  Biso   1.000  O
  O3       1.0000 0.61213  0.41340  0.11730  Biso   1.000  O
  O4       1.0000 0.38787  0.41340  0.38270  Biso   1.000  O
  O5       1.0000 0.88787  0.08660  0.88270  Biso   1.000  O
  O6       1.0000 0.11213  0.08660  0.61730  Biso   1.000  O
  O7       1.0000 0.38787  0.58660  0.88270  Biso   1.000  O
  O8       1.0000 0.61213  0.58660  0.61730  Biso   1.000  O
  O9       1.0000 0.16612  0.81770  0.07010  Biso   1.000  O
  O10      1.0000 0.83388  0.81770  0.42990  Biso   1.000  O
  O11      1.0000 0.66612  0.31770  0.07010  Biso   1.000  O
  O12      1.0000 0.33388  0.31770  0.42990  Biso   1.000  O
  O13      1.0000 0.83388  0.18230  0.92990  Biso   1.000  O
  O14      1.0000 0.16612  0.18230  0.57010  Biso   1.000  O
  O15      1.0000 0.33388  0.68230  0.92990  Biso   1.000  O
  O16      1.0000 0.66612  0.68230  0.57010  Biso   1.000  O
  O17      1.0000 0.10387  0.00580  0.80300  Biso   1.000  O
  O18      1.0000 0.89613  0.00580  0.69700  Biso   1.000  O
  O19      1.0000 0.60387  0.50580  0.80300  Biso   1.000  O
  O20      1.0000 0.39613  0.50580  0.69700  Biso   1.000  O
  O21      1.0000 0.89613  0.99420  0.19700  Biso   1.000  O
  O22      1.0000 0.10387  0.99420  0.30300  Biso   1.000  O
  O23      1.0000 0.39613  0.49420  0.19700  Biso   1.000  O
  O24      1.0000 0.60387  0.49420  0.30300  Biso   1.000  O
  O25      1.0000 0.11340  0.11290  0.94690  Biso   1.000  O
  O26      1.0000 0.88660  0.11290  0.55310  Biso   1.000  O
  O27      1.0000 0.61340  0.61290  0.94690  Biso   1.000  O
  O28      1.0000 0.38660  0.61290  0.55310  Biso   1.000  O
  O29      1.0000 0.88660  0.88710  0.05310  Biso   1.000  O
  O30      1.0000 0.11340  0.88710  0.44690  Biso   1.000  O
  O31      1.0000 0.38660  0.38710  0.05310  Biso   1.000  O
  O32      1.0000 0.61340  0.38710  0.44690  Biso   1.000  O
  C1       1.0000 0.12520  0.87020  0.05100  Biso   1.000  C
  C2       1.0000 0.87480  0.87020  0.44900  Biso   1.000  C
  C3       1.0000 0.62520  0.37020  0.05100  Biso   1.000  C
  C4       1.0000 0.37480  0.37020  0.44900  Biso   1.000  C
  C5       1.0000 0.87480  0.12980  0.94900  Biso   1.000  C
  C6       1.0000 0.12520  0.12980  0.55100  Biso   1.000  C
  C7       1.0000 0.37480  0.62980  0.94900  Biso   1.000  C
  C8       1.0000 0.62520  0.62980  0.55100  Biso   1.000  C
  C9       1.0000 0.08610  0.88960  0.93210  Biso   1.000  C
  C10      1.0000 0.91390  0.88960  0.56790  Biso   1.000  C
  C11      1.0000 0.58610  0.38960  0.93210  Biso   1.000  C
  C12      1.0000 0.41390  0.38960  0.56790  Biso   1.000  C
  C13      1.0000 0.91390  0.11040  0.06790  Biso   1.000  C
  C14      1.0000 0.08610  0.11040  0.43210  Biso   1.000  C
  C15      1.0000 0.41390  0.61040  0.06790  Biso   1.000  C
  C16      1.0000 0.58610  0.61040  0.43210  Biso   1.000  C
  C17      1.0000 0.03100  0.91340  0.92010  Biso   1.000  C
  C18      1.0000 0.96900  0.91340  0.57990  Biso   1.000  C
  C19      1.0000 0.53100  0.41340  0.92010  Biso   1.000  C
  C20      1.0000 0.46900  0.41340  0.57990  Biso   1.000  C
  C21      1.0000 0.96900  0.08660  0.07990  Biso   1.000  C
  C22      1.0000 0.03100  0.08660  0.42010  Biso   1.000  C
  C23      1.0000 0.46900  0.58660  0.07990  Biso   1.000  C
  C24      1.0000 0.53100  0.58660  0.42010  Biso   1.000  C
  H1       1.0000 0.01960  0.83830  0.94460  Biso   1.000  H
  H2       1.0000 0.98040  0.83830  0.55540  Biso   1.000  H
  H3       1.0000 0.51960  0.33830  0.94460  Biso   1.000  H
  H4       1.0000 0.48040  0.33830  0.55540  Biso   1.000  H
  H5       1.0000 0.98040  0.16170  0.05540  Biso   1.000  H
  H6       1.0000 0.01960  0.16170  0.44460  Biso   1.000  H
  H7       1.0000 0.48040  0.66170  0.05540  Biso   1.000  H
  H8       1.0000 0.51960  0.66170  0.44460  Biso   1.000  H
  H9       1.0000 0.00780  0.92880  0.84670  Biso   1.000  H
  H10      1.0000 0.99220  0.92880  0.65330  Biso   1.000  H
  H11      1.0000 0.50780  0.42880  0.84670  Biso   1.000  H
  H12      1.0000 0.49220  0.42880  0.65330  Biso   1.000  H
  H13      1.0000 0.99220  0.07120  0.15330  Biso   1.000  H
  H14      1.0000 0.00780  0.07120  0.34670  Biso   1.000  H
  H15      1.0000 0.49220  0.57120  0.15330  Biso   1.000  H
  H16      1.0000 0.50780  0.57120  0.34670  Biso   1.000  H
  H17      1.0000 0.03120  0.98790  0.96140  Biso   1.000  H
  H18      1.0000 0.96880  0.98790  0.53860  Biso   1.000  H
  H19      1.0000 0.53120  0.48790  0.96140  Biso   1.000  H
  H20      1.0000 0.46880  0.48790  0.53860  Biso   1.000  H
  H21      1.0000 0.96880  0.01210  0.03860  Biso   1.000  H
  H22      1.0000 0.03120  0.01210  0.46140  Biso   1.000  H
  H23      1.0000 0.46880  0.51210  0.03860  Biso   1.000  H
  H24      1.0000 0.53120  0.51210  0.46140  Biso   1.000  H
  C25      1.0000 0.08650  0.76920  0.86770  Biso   1.000  C
  C26      1.0000 0.91350  0.76920  0.63230  Biso   1.000  C
  C27      1.0000 0.58650  0.26920  0.86770  Biso   1.000  C
  C28      1.0000 0.41350  0.26920  0.63230  Biso   1.000  C
  C29      1.0000 0.91350  0.23080  0.13230  Biso   1.000  C
  C30      1.0000 0.08650  0.23080  0.36770  Biso   1.000  C
  C31      1.0000 0.41350  0.73080  0.13230  Biso   1.000  C
  C32      1.0000 0.58650  0.73080  0.36770  Biso   1.000  C
  H25      1.0000 0.07600  0.69410  0.89400  Biso   1.000  H
  H26      1.0000 0.92400  0.69410  0.60600  Biso   1.000  H
  H27      1.0000 0.57600  0.19410  0.89400  Biso   1.000  H
  H28      1.0000 0.42400  0.19410  0.60600  Biso   1.000  H
  H29      1.0000 0.92400  0.30590  0.10600  Biso   1.000  H
  H30      1.0000 0.07600  0.30590  0.39400  Biso   1.000  H
  H31      1.0000 0.42400  0.80590  0.10600  Biso   1.000  H
  H32      1.0000 0.57600  0.80590  0.39400  Biso   1.000  H
  H33      1.0000 0.12110  0.75600  0.87460  Biso   1.000  H
  H34      1.0000 0.87890  0.75600  0.62540  Biso   1.000  H
  H35      1.0000 0.62110  0.25600  0.87460  Biso   1.000  H
  H36      1.0000 0.37890  0.25600  0.62540  Biso   1.000  H
  H37      1.0000 0.87890  0.24400  0.12540  Biso   1.000  H
  H38      1.0000 0.12110  0.24400  0.37460  Biso   1.000  H
  H39      1.0000 0.37890  0.74400  0.12540  Biso   1.000  H
  H40      1.0000 0.62110  0.74400  0.37460  Biso   1.000  H
  H41      1.0000 0.06280  0.78230  0.79420  Biso   1.000  H
  H42      1.0000 0.93720  0.78230  0.70580  Biso   1.000  H
  H43      1.0000 0.56280  0.28230  0.79420  Biso   1.000  H
  H44      1.0000 0.43720  0.28230  0.70580  Biso   1.000  H
  H45      1.0000 0.93720  0.21770  0.20580  Biso   1.000  H
  H46      1.0000 0.06280  0.21770  0.29420  Biso   1.000  H
  H47      1.0000 0.43720  0.71770  0.20580  Biso   1.000  H
  H48      1.0000 0.56280  0.71770  0.29420  Biso   1.000  H
  C33      1.0000 0.10280  0.01340  0.89310  Biso   1.000  C
  C34      1.0000 0.89720  0.01340  0.60690  Biso   1.000  C
  C35      1.0000 0.60280  0.51340  0.89310  Biso   1.000  C
  C36      1.0000 0.39720  0.51340  0.60690  Biso   1.000  C
  C37      1.0000 0.89720  0.98660  0.10690  Biso   1.000  C
  C38      1.0000 0.10280  0.98660  0.39310  Biso   1.000  C
  C39      1.0000 0.39720  0.48660  0.10690  Biso   1.000  C
  C40      1.0000 0.60280  0.48660  0.39310  Biso   1.000  C
  C41      1.0000 0.22580  0.03090  0.37770  Biso   1.000  C
  C42      1.0000 0.77420  0.03090  0.12230  Biso   1.000  C
  C43      1.0000 0.72580  0.53090  0.37770  Biso   1.000  C
  C44      1.0000 0.27420  0.53090  0.12230  Biso   1.000  C
  C45      1.0000 0.77420  0.96910  0.62230  Biso   1.000  C
  C46      1.0000 0.22580  0.96910  0.87770  Biso   1.000  C
  C47      1.0000 0.27420  0.46910  0.62230  Biso   1.000  C
  C48      1.0000 0.72580  0.46910  0.87770  Biso   1.000  C
  H49      1.0000 0.20090  0.09660  0.35850  Biso   1.000  H
  H50      1.0000 0.79910  0.09660  0.14150  Biso   1.000  H
  H51      1.0000 0.70090  0.59660  0.35850  Biso   1.000  H
  H52      1.0000 0.29910  0.59660  0.14150  Biso   1.000  H
  H53      1.0000 0.79910  0.90340  0.64150  Biso   1.000  H
  H54      1.0000 0.20090  0.90340  0.85850  Biso   1.000  H
  H55      1.0000 0.29910  0.40340  0.64150  Biso   1.000  H
  H56      1.0000 0.70090  0.40340  0.85850  Biso   1.000  H
  C49      1.0000 0.27700  0.06310  0.43130  Biso   1.000  C
  C50      1.0000 0.72300  0.06310  0.06870  Biso   1.000  C
  C51      1.0000 0.77700  0.56310  0.43130  Biso   1.000  C
  C52      1.0000 0.22300  0.56310  0.06870  Biso   1.000  C
  C53      1.0000 0.72300  0.93690  0.56870  Biso   1.000  C
  C54      1.0000 0.27700  0.93690  0.93130  Biso   1.000  C
  C55      1.0000 0.22300  0.43690  0.56870  Biso   1.000  C
  C56      1.0000 0.77700  0.43690  0.93130  Biso   1.000  C
  H57      1.0000 0.28670  0.14950  0.44860  Biso   1.000  H
  H58      1.0000 0.71330  0.14950  0.05140  Biso   1.000  H
  H59      1.0000 0.78670  0.64950  0.44860  Biso   1.000  H
  H60      1.0000 0.21330  0.64950  0.05140  Biso   1.000  H
  H61      1.0000 0.71330  0.85050  0.55140  Biso   1.000  H
  H62      1.0000 0.28670  0.85050  0.94860  Biso   1.000  H
  H63      1.0000 0.21330  0.35050  0.55140  Biso   1.000  H
  H64      1.0000 0.78670  0.35050  0.94860  Biso   1.000  H
  C57      1.0000 0.31420  0.96770  0.45970  Biso   1.000  C
  C58      1.0000 0.68580  0.96770  0.04030  Biso   1.000  C
  C59      1.0000 0.81420  0.46770  0.45970  Biso   1.000  C
  C60      1.0000 0.18580  0.46770  0.04030  Biso   1.000  C
  C61      1.0000 0.68580  0.03230  0.54030  Biso   1.000  C
  C62      1.0000 0.31420  0.03230  0.95970  Biso   1.000  C
  C63      1.0000 0.18580  0.53230  0.54030  Biso   1.000  C
  C64      1.0000 0.81420  0.53230  0.95970  Biso   1.000  C
  H65      1.0000 0.34930  0.98840  0.49660  Biso   1.000  H
  H66      1.0000 0.65070  0.98840  0.00340  Biso   1.000  H
  H67      1.0000 0.84930  0.48840  0.49660  Biso   1.000  H
  H68      1.0000 0.15070  0.48840  0.00340  Biso   1.000  H
  H69      1.0000 0.65070  0.01160  0.50340  Biso   1.000  H
  H70      1.0000 0.34930  0.01160  0.99660  Biso   1.000  H
  H71      1.0000 0.15070  0.51160  0.50340  Biso   1.000  H
  H72      1.0000 0.84930  0.51160  0.99660  Biso   1.000  H
  C65      1.0000 0.29870  0.84070  0.43300  Biso   1.000  C
  C66      1.0000 0.70130  0.84070  0.06700  Biso   1.000  C
  C67      1.0000 0.79870  0.34070  0.43300  Biso   1.000  C
  C68      1.0000 0.20130  0.34070  0.06700  Biso   1.000  C
  C69      1.0000 0.70130  0.15930  0.56700  Biso   1.000  C
  C70      1.0000 0.29870  0.15930  0.93300  Biso   1.000  C
  C71      1.0000 0.20130  0.65930  0.56700  Biso   1.000  C
  C72      1.0000 0.79870  0.65930  0.93300  Biso   1.000  C
  H73      1.0000 0.32320  0.77430  0.45130  Biso   1.000  H
  H74      1.0000 0.67680  0.77430  0.04870  Biso   1.000  H
  H75      1.0000 0.82320  0.27430  0.45130  Biso   1.000  H
  H76      1.0000 0.17680  0.27430  0.04870  Biso   1.000  H
  H77      1.0000 0.67680  0.22570  0.54870  Biso   1.000  H
  H78      1.0000 0.32320  0.22570  0.95130  Biso   1.000  H
  H79      1.0000 0.17680  0.72570  0.54870  Biso   1.000  H
  H80      1.0000 0.82320  0.72570  0.95130  Biso   1.000  H
  C73      1.0000 0.24660  0.81370  0.37890  Biso   1.000  C
  C74      1.0000 0.75340  0.81370  0.12110  Biso   1.000  C
  C75      1.0000 0.74660  0.31370  0.37890  Biso   1.000  C
  C76      1.0000 0.25340  0.31370  0.12110  Biso   1.000  C
  C77      1.0000 0.75340  0.18630  0.62110  Biso   1.000  C
  C78      1.0000 0.24660  0.18630  0.87890  Biso   1.000  C
  C79      1.0000 0.25340  0.68630  0.62110  Biso   1.000  C
  C80      1.0000 0.74660  0.68630  0.87890  Biso   1.000  C
  C81      1.0000 0.22470  0.68090  0.34400  Biso   1.000  C
  C82      1.0000 0.77530  0.68090  0.15600  Biso   1.000  C
  C83      1.0000 0.72470  0.18090  0.34400  Biso   1.000  C
  C84      1.0000 0.27530  0.18090  0.15600  Biso   1.000  C
  C85      1.0000 0.77530  0.31910  0.65600  Biso   1.000  C
  C86      1.0000 0.22470  0.31910  0.84400  Biso   1.000  C
  C87      1.0000 0.27530  0.81910  0.65600  Biso   1.000  C
  C88      1.0000 0.72470  0.81910  0.84400  Biso   1.000  C
  C89      1.0000 0.25380  0.56700  0.35950  Biso   1.000  C
  C90      1.0000 0.74620  0.56700  0.14050  Biso   1.000  C
  C91      1.0000 0.75380  0.06700  0.35950  Biso   1.000  C
  C92      1.0000 0.24620  0.06700  0.14050  Biso   1.000  C
  C93      1.0000 0.74620  0.43300  0.64050  Biso   1.000  C
  C94      1.0000 0.25380  0.43300  0.85950  Biso   1.000  C
  C95      1.0000 0.24620  0.93300  0.64050  Biso   1.000  C
  C96      1.0000 0.75380  0.93300  0.85950  Biso   1.000  C
  H81      1.0000 0.29010  0.56750  0.39380  Biso   1.000  H
  H82      1.0000 0.70990  0.56750  0.10620  Biso   1.000  H
  H83      1.0000 0.79010  0.06750  0.39380  Biso   1.000  H
  H84      1.0000 0.20990  0.06750  0.10620  Biso   1.000  H
  H85      1.0000 0.70990  0.43250  0.60620  Biso   1.000  H
  H86      1.0000 0.29010  0.43250  0.89380  Biso   1.000  H
  H87      1.0000 0.20990  0.93250  0.60620  Biso   1.000  H
  H88      1.0000 0.79010  0.93250  0.89380  Biso   1.000  H
  C97      1.0000 0.22540  0.45250  0.32070  Biso   1.000  C
  C98      1.0000 0.77460  0.45250  0.17930  Biso   1.000  C
  C99      1.0000 0.72540  0.95250  0.32070  Biso   1.000  C
  C100     1.0000 0.27460  0.95250  0.17930  Biso   1.000  C
  C101     1.0000 0.77460  0.54750  0.67930  Biso   1.000  C
  C102     1.0000 0.22540  0.54750  0.82070  Biso   1.000  C
  C103     1.0000 0.27460  0.04750  0.67930  Biso   1.000  C
  C104     1.0000 0.72540  0.04750  0.82070  Biso   1.000  C
  H89      1.0000 0.24330  0.37440  0.32900  Biso   1.000  H
  H90      1.0000 0.75670  0.37440  0.17100  Biso   1.000  H
  H91      1.0000 0.74330  0.87440  0.32900  Biso   1.000  H
  H92      1.0000 0.25670  0.87440  0.17100  Biso   1.000  H
  H93      1.0000 0.75670  0.62560  0.67100  Biso   1.000  H
  H94      1.0000 0.24330  0.62560  0.82900  Biso   1.000  H
  H95      1.0000 0.25670  0.12560  0.67100  Biso   1.000  H
  H96      1.0000 0.74330  0.12560  0.82900  Biso   1.000  H
  C105     1.0000 0.17240  0.45140  0.27110  Biso   1.000  C
  C106     1.0000 0.82760  0.45140  0.22890  Biso   1.000  C
  C107     1.0000 0.67240  0.95140  0.27110  Biso   1.000  C
  C108     1.0000 0.32760  0.95140  0.22890  Biso   1.000  C
  C109     1.0000 0.82760  0.54860  0.72890  Biso   1.000  C
  C110     1.0000 0.17240  0.54860  0.77110  Biso   1.000  C
  C111     1.0000 0.32760  0.04860  0.72890  Biso   1.000  C
  C112     1.0000 0.67240  0.04860  0.77110  Biso   1.000  C
  H97      1.0000 0.15420  0.37380  0.24650  Biso   1.000  H
  H98      1.0000 0.84580  0.37380  0.25350  Biso   1.000  H
  H99      1.0000 0.65420  0.87380  0.24650  Biso   1.000  H
  H100     1.0000 0.34580  0.87380  0.25350  Biso   1.000  H
  H101     1.0000 0.84580  0.62620  0.75350  Biso   1.000  H
  H102     1.0000 0.15420  0.62620  0.74650  Biso   1.000  H
  H103     1.0000 0.34580  0.12620  0.75350  Biso   1.000  H
  H104     1.0000 0.65420  0.12620  0.74650  Biso   1.000  H
  C113     1.0000 0.14600  0.56850  0.25800  Biso   1.000  C
  C114     1.0000 0.85400  0.56850  0.24200  Biso   1.000  C
  C115     1.0000 0.64600  0.06850  0.25800  Biso   1.000  C
  C116     1.0000 0.35400  0.06850  0.24200  Biso   1.000  C
  C117     1.0000 0.85400  0.43150  0.74200  Biso   1.000  C
  C118     1.0000 0.14600  0.43150  0.75800  Biso   1.000  C
  C119     1.0000 0.35400  0.93150  0.74200  Biso   1.000  C
  C120     1.0000 0.64600  0.93150  0.75800  Biso   1.000  C
  C121     1.0000 0.08970  0.58940  0.20880  Biso   1.000  C
  C122     1.0000 0.91030  0.58940  0.29120  Biso   1.000  C
  C123     1.0000 0.58970  0.08940  0.20880  Biso   1.000  C
  C124     1.0000 0.41030  0.08940  0.29120  Biso   1.000  C
  C125     1.0000 0.91030  0.41060  0.79120  Biso   1.000  C
  C126     1.0000 0.08970  0.41060  0.70880  Biso   1.000  C
  C127     1.0000 0.41030  0.91060  0.79120  Biso   1.000  C
  C128     1.0000 0.58970  0.91060  0.70880  Biso   1.000  C
  C129     1.0000 0.05300  0.49350  0.16210  Biso   1.000  C
  C130     1.0000 0.94700  0.49350  0.33790  Biso   1.000  C
  C131     1.0000 0.55300  0.99350  0.16210  Biso   1.000  C
  C132     1.0000 0.44700  0.99350  0.33790  Biso   1.000  C
  C133     1.0000 0.94700  0.50650  0.83790  Biso   1.000  C
  C134     1.0000 0.05300  0.50650  0.66210  Biso   1.000  C
  C135     1.0000 0.44700  0.00650  0.83790  Biso   1.000  C
  C136     1.0000 0.55300  0.00650  0.66210  Biso   1.000  C
  H105     1.0000 0.06300  0.40740  0.16150  Biso   1.000  H
  H106     1.0000 0.93700  0.40740  0.33850  Biso   1.000  H
  H107     1.0000 0.56300  0.90740  0.16150  Biso   1.000  H
  H108     1.0000 0.43700  0.90740  0.33850  Biso   1.000  H
  H109     1.0000 0.93700  0.59260  0.83850  Biso   1.000  H
  H110     1.0000 0.06300  0.59260  0.66150  Biso   1.000  H
  H111     1.0000 0.43700  0.09260  0.83850  Biso   1.000  H
  H112     1.0000 0.56300  0.09260  0.66150  Biso   1.000  H
  C137     1.0000 0.00200  0.52760  0.11700  Biso   1.000  C
  C138     1.0000 0.99800  0.52760  0.38300  Biso   1.000  C
  C139     1.0000 0.50200  0.02760  0.11700  Biso   1.000  C
  C140     1.0000 0.49800  0.02760  0.38300  Biso   1.000  C
  C141     1.0000 0.99800  0.47240  0.88300  Biso   1.000  C
  C142     1.0000 0.00200  0.47240  0.61700  Biso   1.000  C
  C143     1.0000 0.49800  0.97240  0.88300  Biso   1.000  C
  C144     1.0000 0.50200  0.97240  0.61700  Biso   1.000  C
  H113     1.0000 0.97670  0.46370  0.08670  Biso   1.000  H
  H114     1.0000 0.02330  0.46370  0.41330  Biso   1.000  H
  H115     1.0000 0.47670  0.96370  0.08670  Biso   1.000  H
  H116     1.0000 0.52330  0.96370  0.41330  Biso   1.000  H
  H117     1.0000 0.02330  0.53630  0.91330  Biso   1.000  H
  H118     1.0000 0.97670  0.53630  0.58670  Biso   1.000  H
  H119     1.0000 0.52330  0.03630  0.91330  Biso   1.000  H
  H120     1.0000 0.47670  0.03630  0.58670  Biso   1.000  H
  C145     1.0000 0.98720  0.65410  0.11530  Biso   1.000  C
  C146     1.0000 0.01280  0.65410  0.38470  Biso   1.000  C
  C147     1.0000 0.48720  0.15410  0.11530  Biso   1.000  C
  C148     1.0000 0.51280  0.15410  0.38470  Biso   1.000  C
  C149     1.0000 0.01280  0.34590  0.88470  Biso   1.000  C
  C150     1.0000 0.98720  0.34590  0.61530  Biso   1.000  C
  C151     1.0000 0.51280  0.84590  0.88470  Biso   1.000  C
  C152     1.0000 0.48720  0.84590  0.61530  Biso   1.000  C
  H121     1.0000 0.95230  0.67840  0.08200  Biso   1.000  H
  H122     1.0000 0.04770  0.67840  0.41800  Biso   1.000  H
  H123     1.0000 0.45230  0.17840  0.08200  Biso   1.000  H
  H124     1.0000 0.54770  0.17840  0.41800  Biso   1.000  H
  H125     1.0000 0.04770  0.32160  0.91800  Biso   1.000  H
  H126     1.0000 0.95230  0.32160  0.58200  Biso   1.000  H
  H127     1.0000 0.54770  0.82160  0.91800  Biso   1.000  H
  H128     1.0000 0.45230  0.82160  0.58200  Biso   1.000  H
  C153     1.0000 0.02590  0.74410  0.16460  Biso   1.000  C
  C154     1.0000 0.97410  0.74410  0.33540  Biso   1.000  C
  C155     1.0000 0.52590  0.24410  0.16460  Biso   1.000  C
  C156     1.0000 0.47410  0.24410  0.33540  Biso   1.000  C
  C157     1.0000 0.97410  0.25590  0.83540  Biso   1.000  C
  C158     1.0000 0.02590  0.25590  0.66460  Biso   1.000  C
  C159     1.0000 0.47410  0.75590  0.83540  Biso   1.000  C
  C160     1.0000 0.52590  0.75590  0.66460  Biso   1.000  C
  H129     1.0000 0.01630  0.83050  0.16510  Biso   1.000  H
  H130     1.0000 0.98370  0.83050  0.33490  Biso   1.000  H
  H131     1.0000 0.51630  0.33050  0.16510  Biso   1.000  H
  H132     1.0000 0.48370  0.33050  0.33490  Biso   1.000  H
  H133     1.0000 0.98370  0.16950  0.83490  Biso   1.000  H
  H134     1.0000 0.01630  0.16950  0.66510  Biso   1.000  H
  H135     1.0000 0.48370  0.66950  0.83490  Biso   1.000  H
  H136     1.0000 0.51630  0.66950  0.66510  Biso   1.000  H
  O33      1.0000 0.10349  0.19230  0.13790  Biso   1.000  O
  O34      1.0000 0.89651  0.19230  0.36210  Biso   1.000  O
  O35      1.0000 0.60349  0.69230  0.13790  Biso   1.000  O
  O36      1.0000 0.39651  0.69230  0.36210  Biso   1.000  O
  O37      1.0000 0.89651  0.80770  0.86210  Biso   1.000  O
  O38      1.0000 0.10349  0.80770  0.63790  Biso   1.000  O
  O39      1.0000 0.39651  0.30770  0.86210  Biso   1.000  O
  O40      1.0000 0.60349  0.30770  0.63790  Biso   1.000  O
