data_image0
_cell_length_a       23.472
_cell_length_b       16.398
_cell_length_c       18.803
_cell_angle_alpha    90
_cell_angle_beta     112.3
_cell_angle_gamma    90

_symmetry_space_group_name_H-M    "P 1"
_symmetry_int_tables_number       1

loop_
  _symmetry_equiv_pos_as_xyz
  'x, y, z'

loop_
  _atom_site_label
  _atom_site_occupancy
  _atom_site_fract_x
  _atom_site_fract_y
  _atom_site_fract_z
  _atom_site_thermal_displace_type
  _atom_site_B_iso_or_equiv
  _atom_site_type_symbol
  Cu1      1.0000 0.27745  0.75981  0.18359  Biso   1.000  Cu
  Cu2      1.0000 0.72255  0.75981  0.31641  Biso   1.000  Cu
  Cu3      1.0000 0.77745  0.25981  0.18359  Biso   1.000  Cu
  Cu4      1.0000 0.22255  0.25981  0.31641  Biso   1.000  Cu
  Cu5      1.0000 0.72255  0.24019  0.81641  Biso   1.000  Cu
  Cu6      1.0000 0.27745  0.24019  0.68359  Biso   1.000  Cu
  Cu7      1.0000 0.22255  0.74019  0.81641  Biso   1.000  Cu
  Cu8      1.0000 0.77745  0.74019  0.68359  Biso   1.000  Cu
  Cu9      1.0000 0.27012  0.94172  0.19734  Biso   1.000  Cu
  Cu10     1.0000 0.72988  0.94172  0.30266  Biso   1.000  Cu
  Cu11     1.0000 0.77012  0.44172  0.19734  Biso   1.000  Cu
  Cu12     1.0000 0.22988  0.44172  0.30266  Biso   1.000  Cu
  Cu13     1.0000 0.72988  0.05828  0.80266  Biso   1.000  Cu
  Cu14     1.0000 0.27012  0.05828  0.69734  Biso   1.000  Cu
  Cu15     1.0000 0.22988  0.55828  0.80266  Biso   1.000  Cu
  Cu16     1.0000 0.77012  0.55828  0.69734  Biso   1.000  Cu
  N1       1.0000 0.43300  0.97270  0.40100  Biso   1.000  N
  N2       1.0000 0.56700  0.97270  0.09900  Biso   1.000  N
  N3       1.0000 0.93300  0.47270  0.40100  Biso   1.000  N
  N4       1.0000 0.06700  0.47270  0.09900  Biso   1.000  N
  N5       1.0000 0.56700  0.02730  0.59900  Biso   1.000  N
  N6       1.0000 0.43300  0.02730  0.90100  Biso   1.000  N
  N7       1.0000 0.06700  0.52730  0.59900  Biso   1.000  N
  N8       1.0000 0.93300  0.52730  0.90100  Biso   1.000  N
  C1       1.0000 0.38250  0.97840  0.33560  Biso   1.000  C
  C2       1.0000 0.61750  0.97840  0.16440  Biso   1.000  C
  C3       1.0000 0.88250  0.47840  0.33560  Biso   1.000  C
  C4       1.0000 0.11750  0.47840  0.16440  Biso   1.000  C
  C5       1.0000 0.61750  0.02160  0.66440  Biso   1.000  C
  C6       1.0000 0.38250  0.02160  0.83560  Biso   1.000  C
  C7       1.0000 0.11750  0.52160  0.66440  Biso   1.000  C
  C8       1.0000 0.88250  0.52160  0.83560  Biso   1.000  C
  H1       1.0000 0.36770  0.03120  0.32260  Biso   1.000  H
  H2       1.0000 0.63230  0.03120  0.17740  Biso   1.000  H
  H3       1.0000 0.86770  0.53120  0.32260  Biso   1.000  H
  H4       1.0000 0.13230  0.53120  0.17740  Biso   1.000  H
  H5       1.0000 0.63230  0.96880  0.67740  Biso   1.000  H
  H6       1.0000 0.36770  0.96880  0.82260  Biso   1.000  H
  H7       1.0000 0.13230  0.46880  0.67740  Biso   1.000  H
  H8       1.0000 0.86770  0.46880  0.82260  Biso   1.000  H
  N9       1.0000 0.35090  0.92250  0.28740  Biso   1.000  N
  N10      1.0000 0.64910  0.92250  0.21260  Biso   1.000  N
  N11      1.0000 0.85090  0.42250  0.28740  Biso   1.000  N
  N12      1.0000 0.14910  0.42250  0.21260  Biso   1.000  N
  N13      1.0000 0.64910  0.07750  0.71260  Biso   1.000  N
  N14      1.0000 0.35090  0.07750  0.78740  Biso   1.000  N
  N15      1.0000 0.14910  0.57750  0.71260  Biso   1.000  N
  N16      1.0000 0.85090  0.57750  0.78740  Biso   1.000  N
  C9       1.0000 0.37520  0.84750  0.30950  Biso   1.000  C
  C10      1.0000 0.62480  0.84750  0.19050  Biso   1.000  C
  C11      1.0000 0.87520  0.34750  0.30950  Biso   1.000  C
  C12      1.0000 0.12480  0.34750  0.19050  Biso   1.000  C
  C13      1.0000 0.62480  0.15250  0.69050  Biso   1.000  C
  C14      1.0000 0.37520  0.15250  0.80950  Biso   1.000  C
  C15      1.0000 0.12480  0.65250  0.69050  Biso   1.000  C
  C16      1.0000 0.87520  0.65250  0.80950  Biso   1.000  C
  C17      1.0000 0.42650  0.83220  0.37750  Biso   1.000  C
  C18      1.0000 0.57350  0.83220  0.12250  Biso   1.000  C
  C19      1.0000 0.92650  0.33220  0.37750  Biso   1.000  C
  C20      1.0000 0.07350  0.33220  0.12250  Biso   1.000  C
  C21      1.0000 0.57350  0.16780  0.62250  Biso   1.000  C
  C22      1.0000 0.42650  0.16780  0.87750  Biso   1.000  C
  C23      1.0000 0.07350  0.66780  0.62250  Biso   1.000  C
  C24      1.0000 0.92650  0.66780  0.87750  Biso   1.000  C
  C25      1.0000 0.45520  0.89820  0.42280  Biso   1.000  C
  C26      1.0000 0.54480  0.89820  0.07720  Biso   1.000  C
  C27      1.0000 0.95520  0.39820  0.42280  Biso   1.000  C
  C28      1.0000 0.04480  0.39820  0.07720  Biso   1.000  C
  C29      1.0000 0.54480  0.10180  0.57720  Biso   1.000  C
  C30      1.0000 0.45520  0.10180  0.92280  Biso   1.000  C
  C31      1.0000 0.04480  0.60180  0.57720  Biso   1.000  C
  C32      1.0000 0.95520  0.60180  0.92280  Biso   1.000  C
  N17      1.0000 0.50580  0.88810  0.48630  Biso   1.000  N
  N18      1.0000 0.49420  0.88810  0.01370  Biso   1.000  N
  N19      1.0000 0.00580  0.38810  0.48630  Biso   1.000  N
  N20      1.0000 0.99420  0.38810  0.01370  Biso   1.000  N
  N21      1.0000 0.49420  0.11190  0.51370  Biso   1.000  N
  N22      1.0000 0.50580  0.11190  0.98630  Biso   1.000  N
  N23      1.0000 0.99420  0.61190  0.51370  Biso   1.000  N
  N24      1.0000 0.00580  0.61190  0.98630  Biso   1.000  N
  H9       1.0000 0.52400  0.92980  0.51300  Biso   1.000  H
  H10      1.0000 0.47600  0.92980  0.98700  Biso   1.000  H
  H11      1.0000 0.02400  0.42980  0.51300  Biso   1.000  H
  H12      1.0000 0.97600  0.42980  0.98700  Biso   1.000  H
  H13      1.0000 0.47600  0.07020  0.48700  Biso   1.000  H
  H14      1.0000 0.52400  0.07020  0.01300  Biso   1.000  H
  H15      1.0000 0.97600  0.57020  0.48700  Biso   1.000  H
  H16      1.0000 0.02400  0.57020  0.01300  Biso   1.000  H
  H17      1.0000 0.52010  0.83990  0.50040  Biso   1.000  H
  H18      1.0000 0.47990  0.83990  0.99960  Biso   1.000  H
  H19      1.0000 0.02010  0.33990  0.50040  Biso   1.000  H
  H20      1.0000 0.97990  0.33990  0.99960  Biso   1.000  H
  H21      1.0000 0.47990  0.16010  0.49960  Biso   1.000  H
  H22      1.0000 0.52010  0.16010  0.00040  Biso   1.000  H
  H23      1.0000 0.97990  0.66010  0.49960  Biso   1.000  H
  H24      1.0000 0.02010  0.66010  0.00040  Biso   1.000  H
  N25      1.0000 0.43900  0.74980  0.38140  Biso   1.000  N
  N26      1.0000 0.56100  0.74980  0.11860  Biso   1.000  N
  N27      1.0000 0.93900  0.24980  0.38140  Biso   1.000  N
  N28      1.0000 0.06100  0.24980  0.11860  Biso   1.000  N
  N29      1.0000 0.56100  0.25020  0.61860  Biso   1.000  N
  N30      1.0000 0.43900  0.25020  0.88140  Biso   1.000  N
  N31      1.0000 0.06100  0.75020  0.61860  Biso   1.000  N
  N32      1.0000 0.93900  0.75020  0.88140  Biso   1.000  N
  C33      1.0000 0.39340  0.71830  0.32040  Biso   1.000  C
  C34      1.0000 0.60660  0.71830  0.17960  Biso   1.000  C
  C35      1.0000 0.89340  0.21830  0.32040  Biso   1.000  C
  C36      1.0000 0.10660  0.21830  0.17960  Biso   1.000  C
  C37      1.0000 0.60660  0.28170  0.67960  Biso   1.000  C
  C38      1.0000 0.39340  0.28170  0.82040  Biso   1.000  C
  C39      1.0000 0.10660  0.78170  0.67960  Biso   1.000  C
  C40      1.0000 0.89340  0.78170  0.82040  Biso   1.000  C
  H25      1.0000 0.38900  0.66260  0.31070  Biso   1.000  H
  H26      1.0000 0.61100  0.66260  0.18930  Biso   1.000  H
  H27      1.0000 0.88900  0.16260  0.31070  Biso   1.000  H
  H28      1.0000 0.11100  0.16260  0.18930  Biso   1.000  H
  H29      1.0000 0.61100  0.33740  0.68930  Biso   1.000  H
  H30      1.0000 0.38900  0.33740  0.81070  Biso   1.000  H
  H31      1.0000 0.11100  0.83740  0.68930  Biso   1.000  H
  H32      1.0000 0.88900  0.83740  0.81070  Biso   1.000  H
  N33      1.0000 0.35370  0.77480  0.27330  Biso   1.000  N
  N34      1.0000 0.64630  0.77480  0.22670  Biso   1.000  N
  N35      1.0000 0.85370  0.27480  0.27330  Biso   1.000  N
  N36      1.0000 0.14630  0.27480  0.22670  Biso   1.000  N
  N37      1.0000 0.64630  0.22520  0.72670  Biso   1.000  N
  N38      1.0000 0.35370  0.22520  0.77330  Biso   1.000  N
  N39      1.0000 0.14630  0.72520  0.72670  Biso   1.000  N
  N40      1.0000 0.85370  0.72520  0.77330  Biso   1.000  N
  N41      1.0000 0.07950  0.96930  0.05490  Biso   1.000  N
  N42      1.0000 0.92050  0.96930  0.44510  Biso   1.000  N
  N43      1.0000 0.57950  0.46930  0.05490  Biso   1.000  N
  N44      1.0000 0.42050  0.46930  0.44510  Biso   1.000  N
  N45      1.0000 0.92050  0.03070  0.94510  Biso   1.000  N
  N46      1.0000 0.07950  0.03070  0.55490  Biso   1.000  N
  N47      1.0000 0.42050  0.53070  0.94510  Biso   1.000  N
  N48      1.0000 0.57950  0.53070  0.55490  Biso   1.000  N
  C41      1.0000 0.13880  0.97650  0.10040  Biso   1.000  C
  C42      1.0000 0.86120  0.97650  0.39960  Biso   1.000  C
  C43      1.0000 0.63880  0.47650  0.10040  Biso   1.000  C
  C44      1.0000 0.36120  0.47650  0.39960  Biso   1.000  C
  C45      1.0000 0.86120  0.02350  0.89960  Biso   1.000  C
  C46      1.0000 0.13880  0.02350  0.60040  Biso   1.000  C
  C47      1.0000 0.36120  0.52350  0.89960  Biso   1.000  C
  C48      1.0000 0.63880  0.52350  0.60040  Biso   1.000  C
  H33      1.0000 0.15160  0.02920  0.11730  Biso   1.000  H
  H34      1.0000 0.84840  0.02920  0.38270  Biso   1.000  H
  H35      1.0000 0.65160  0.52920  0.11730  Biso   1.000  H
  H36      1.0000 0.34840  0.52920  0.38270  Biso   1.000  H
  H37      1.0000 0.84840  0.97080  0.88270  Biso   1.000  H
  H38      1.0000 0.15160  0.97080  0.61730  Biso   1.000  H
  H39      1.0000 0.34840  0.47080  0.88270  Biso   1.000  H
  H40      1.0000 0.65160  0.47080  0.61730  Biso   1.000  H
  N49      1.0000 0.18270  0.91930  0.12550  Biso   1.000  N
  N50      1.0000 0.81730  0.91930  0.37450  Biso   1.000  N
  N51      1.0000 0.68270  0.41930  0.12550  Biso   1.000  N
  N52      1.0000 0.31730  0.41930  0.37450  Biso   1.000  N
  N53      1.0000 0.81730  0.08070  0.87450  Biso   1.000  N
  N54      1.0000 0.18270  0.08070  0.62550  Biso   1.000  N
  N55      1.0000 0.31730  0.58070  0.87450  Biso   1.000  N
  N56      1.0000 0.68270  0.58070  0.62550  Biso   1.000  N
  C49      1.0000 0.16090  0.84320  0.09730  Biso   1.000  C
  C50      1.0000 0.83910  0.84320  0.40270  Biso   1.000  C
  C51      1.0000 0.66090  0.34320  0.09730  Biso   1.000  C
  C52      1.0000 0.33910  0.34320  0.40270  Biso   1.000  C
  C53      1.0000 0.83910  0.15680  0.90270  Biso   1.000  C
  C54      1.0000 0.16090  0.15680  0.59730  Biso   1.000  C
  C55      1.0000 0.33910  0.65680  0.90270  Biso   1.000  C
  C56      1.0000 0.66090  0.65680  0.59730  Biso   1.000  C
  C57      1.0000 0.09920  0.82650  0.04950  Biso   1.000  C
  C58      1.0000 0.90080  0.82650  0.45050  Biso   1.000  C
  C59      1.0000 0.59920  0.32650  0.04950  Biso   1.000  C
  C60      1.0000 0.40080  0.32650  0.45050  Biso   1.000  C
  C61      1.0000 0.90080  0.17350  0.95050  Biso   1.000  C
  C62      1.0000 0.09920  0.17350  0.54950  Biso   1.000  C
  C63      1.0000 0.40080  0.67350  0.95050  Biso   1.000  C
  C64      1.0000 0.59920  0.67350  0.54950  Biso   1.000  C
  C65      1.0000 0.05860  0.89300  0.02620  Biso   1.000  C
  C66      1.0000 0.94140  0.89300  0.47380  Biso   1.000  C
  C67      1.0000 0.55860  0.39300  0.02620  Biso   1.000  C
  C68      1.0000 0.44140  0.39300  0.47380  Biso   1.000  C
  C69      1.0000 0.94140  0.10700  0.97380  Biso   1.000  C
  C70      1.0000 0.05860  0.10700  0.52620  Biso   1.000  C
  C71      1.0000 0.44140  0.60700  0.97380  Biso   1.000  C
  C72      1.0000 0.55860  0.60700  0.52620  Biso   1.000  C
  N57      1.0000 0.99930  0.88640  0.97990  Biso   1.000  N
  N58      1.0000 0.00070  0.88640  0.52010  Biso   1.000  N
  N59      1.0000 0.49930  0.38640  0.97990  Biso   1.000  N
  N60      1.0000 0.50070  0.38640  0.52010  Biso   1.000  N
  N61      1.0000 0.00070  0.11360  0.02010  Biso   1.000  N
  N62      1.0000 0.99930  0.11360  0.47990  Biso   1.000  N
  N63      1.0000 0.50070  0.61360  0.02010  Biso   1.000  N
  N64      1.0000 0.49930  0.61360  0.47990  Biso   1.000  N
  H41      1.0000 0.97600  0.92880  0.96920  Biso   1.000  H
  H42      1.0000 0.02400  0.92880  0.53080  Biso   1.000  H
  H43      1.0000 0.47600  0.42880  0.96920  Biso   1.000  H
  H44      1.0000 0.52400  0.42880  0.53080  Biso   1.000  H
  H45      1.0000 0.02400  0.07120  0.03080  Biso   1.000  H
  H46      1.0000 0.97600  0.07120  0.46920  Biso   1.000  H
  H47      1.0000 0.52400  0.57120  0.03080  Biso   1.000  H
  H48      1.0000 0.47600  0.57120  0.46920  Biso   1.000  H
  H49      1.0000 0.98450  0.83980  0.96080  Biso   1.000  H
  H50      1.0000 0.01550  0.83980  0.53920  Biso   1.000  H
  H51      1.0000 0.48450  0.33980  0.96080  Biso   1.000  H
  H52      1.0000 0.51550  0.33980  0.53920  Biso   1.000  H
  H53      1.0000 0.01550  0.16020  0.03920  Biso   1.000  H
  H54      1.0000 0.98450  0.16020  0.46080  Biso   1.000  H
  H55      1.0000 0.51550  0.66020  0.03920  Biso   1.000  H
  H56      1.0000 0.48450  0.66020  0.46080  Biso   1.000  H
  N65      1.0000 0.09290  0.74520  0.03270  Biso   1.000  N
  N66      1.0000 0.90710  0.74520  0.46730  Biso   1.000  N
  N67      1.0000 0.59290  0.24520  0.03270  Biso   1.000  N
  N68      1.0000 0.40710  0.24520  0.46730  Biso   1.000  N
  N69      1.0000 0.90710  0.25480  0.96730  Biso   1.000  N
  N70      1.0000 0.09290  0.25480  0.53270  Biso   1.000  N
  N71      1.0000 0.40710  0.75480  0.96730  Biso   1.000  N
  N72      1.0000 0.59290  0.75480  0.53270  Biso   1.000  N
  C73      1.0000 0.14780  0.71620  0.07070  Biso   1.000  C
  C74      1.0000 0.85220  0.71620  0.42930  Biso   1.000  C
  C75      1.0000 0.64780  0.21620  0.07070  Biso   1.000  C
  C76      1.0000 0.35220  0.21620  0.42930  Biso   1.000  C
  C77      1.0000 0.85220  0.28380  0.92930  Biso   1.000  C
  C78      1.0000 0.14780  0.28380  0.57070  Biso   1.000  C
  C79      1.0000 0.35220  0.78380  0.92930  Biso   1.000  C
  C80      1.0000 0.64780  0.78380  0.57070  Biso   1.000  C
  H57      1.0000 0.15680  0.66090  0.07110  Biso   1.000  H
  H58      1.0000 0.84320  0.66090  0.42890  Biso   1.000  H
  H59      1.0000 0.65680  0.16090  0.07110  Biso   1.000  H
  H60      1.0000 0.34320  0.16090  0.42890  Biso   1.000  H
  H61      1.0000 0.84320  0.33910  0.92890  Biso   1.000  H
  H62      1.0000 0.15680  0.33910  0.57110  Biso   1.000  H
  H63      1.0000 0.34320  0.83910  0.92890  Biso   1.000  H
  H64      1.0000 0.65680  0.83910  0.57110  Biso   1.000  H
  N73      1.0000 0.19170  0.77300  0.11040  Biso   1.000  N
  N74      1.0000 0.80830  0.77300  0.38960  Biso   1.000  N
  N75      1.0000 0.69170  0.27300  0.11040  Biso   1.000  N
  N76      1.0000 0.30830  0.27300  0.38960  Biso   1.000  N
  N77      1.0000 0.80830  0.22700  0.88960  Biso   1.000  N
  N78      1.0000 0.19170  0.22700  0.61040  Biso   1.000  N
  N79      1.0000 0.30830  0.72700  0.88960  Biso   1.000  N
  N80      1.0000 0.69170  0.72700  0.61040  Biso   1.000  N
  N81      1.0000 0.25230  0.50240  0.02780  Biso   1.000  N
  N82      1.0000 0.74770  0.50240  0.47220  Biso   1.000  N
  N83      1.0000 0.75230  0.00240  0.02780  Biso   1.000  N
  N84      1.0000 0.24770  0.00240  0.47220  Biso   1.000  N
  N85      1.0000 0.74770  0.49760  0.97220  Biso   1.000  N
  N86      1.0000 0.25230  0.49760  0.52780  Biso   1.000  N
  N87      1.0000 0.24770  0.99760  0.97220  Biso   1.000  N
  N88      1.0000 0.75230  0.99760  0.52780  Biso   1.000  N
  C81      1.0000 0.24740  0.43480  0.06500  Biso   1.000  C
  C82      1.0000 0.75260  0.43480  0.43500  Biso   1.000  C
  C83      1.0000 0.74740  0.93480  0.06500  Biso   1.000  C
  C84      1.0000 0.25260  0.93480  0.43500  Biso   1.000  C
  C85      1.0000 0.75260  0.56520  0.93500  Biso   1.000  C
  C86      1.0000 0.24740  0.56520  0.56500  Biso   1.000  C
  C87      1.0000 0.25260  0.06520  0.93500  Biso   1.000  C
  C88      1.0000 0.74740  0.06520  0.56500  Biso   1.000  C
  H65      1.0000 0.24140  0.38600  0.03780  Biso   1.000  H
  H66      1.0000 0.75860  0.38600  0.46220  Biso   1.000  H
  H67      1.0000 0.74140  0.88600  0.03780  Biso   1.000  H
  H68      1.0000 0.25860  0.88600  0.46220  Biso   1.000  H
  H69      1.0000 0.75860  0.61400  0.96220  Biso   1.000  H
  H70      1.0000 0.24140  0.61400  0.53780  Biso   1.000  H
  H71      1.0000 0.25860  0.11400  0.96220  Biso   1.000  H
  H72      1.0000 0.74140  0.11400  0.53780  Biso   1.000  H
  N89      1.0000 0.25020  0.43030  0.13610  Biso   1.000  N
  N90      1.0000 0.74980  0.43030  0.36390  Biso   1.000  N
  N91      1.0000 0.75020  0.93030  0.13610  Biso   1.000  N
  N92      1.0000 0.24980  0.93030  0.36390  Biso   1.000  N
  N93      1.0000 0.74980  0.56970  0.86390  Biso   1.000  N
  N94      1.0000 0.25020  0.56970  0.63610  Biso   1.000  N
  N95      1.0000 0.24980  0.06970  0.86390  Biso   1.000  N
  N96      1.0000 0.75020  0.06970  0.63610  Biso   1.000  N
  C89      1.0000 0.25910  0.50600  0.17200  Biso   1.000  C
  C90      1.0000 0.74090  0.50600  0.32800  Biso   1.000  C
  C91      1.0000 0.75910  0.00600  0.17200  Biso   1.000  C
  C92      1.0000 0.24090  0.00600  0.32800  Biso   1.000  C
  C93      1.0000 0.74090  0.49400  0.82800  Biso   1.000  C
  C94      1.0000 0.25910  0.49400  0.67200  Biso   1.000  C
  C95      1.0000 0.24090  0.99400  0.82800  Biso   1.000  C
  C96      1.0000 0.75910  0.99400  0.67200  Biso   1.000  C
  C97      1.0000 0.26740  0.57840  0.13940  Biso   1.000  C
  C98      1.0000 0.73260  0.57840  0.36060  Biso   1.000  C
  C99      1.0000 0.76740  0.07840  0.13940  Biso   1.000  C
  C100     1.0000 0.23260  0.07840  0.36060  Biso   1.000  C
  C101     1.0000 0.73260  0.42160  0.86060  Biso   1.000  C
  C102     1.0000 0.26740  0.42160  0.63940  Biso   1.000  C
  C103     1.0000 0.23260  0.92160  0.86060  Biso   1.000  C
  C104     1.0000 0.76740  0.92160  0.63940  Biso   1.000  C
  C105     1.0000 0.26220  0.57790  0.06370  Biso   1.000  C
  C106     1.0000 0.73780  0.57790  0.43630  Biso   1.000  C
  C107     1.0000 0.76220  0.07790  0.06370  Biso   1.000  C
  C108     1.0000 0.23780  0.07790  0.43630  Biso   1.000  C
  C109     1.0000 0.73780  0.42210  0.93630  Biso   1.000  C
  C110     1.0000 0.26220  0.42210  0.56370  Biso   1.000  C
  C111     1.0000 0.23780  0.92210  0.93630  Biso   1.000  C
  C112     1.0000 0.76220  0.92210  0.56370  Biso   1.000  C
  N97      1.0000 0.26750  0.64370  0.02440  Biso   1.000  N
  N98      1.0000 0.73250  0.64370  0.47560  Biso   1.000  N
  N99      1.0000 0.76750  0.14370  0.02440  Biso   1.000  N
  N100     1.0000 0.23250  0.14370  0.47560  Biso   1.000  N
  N101     1.0000 0.73250  0.35630  0.97560  Biso   1.000  N
  N102     1.0000 0.26750  0.35630  0.52440  Biso   1.000  N
  N103     1.0000 0.23250  0.85630  0.97560  Biso   1.000  N
  N104     1.0000 0.76750  0.85630  0.52440  Biso   1.000  N
  H73      1.0000 0.27460  0.69070  0.04630  Biso   1.000  H
  H74      1.0000 0.72540  0.69070  0.45370  Biso   1.000  H
  H75      1.0000 0.77460  0.19070  0.04630  Biso   1.000  H
  H76      1.0000 0.22540  0.19070  0.45370  Biso   1.000  H
  H77      1.0000 0.72540  0.30930  0.95370  Biso   1.000  H
  H78      1.0000 0.27460  0.30930  0.54630  Biso   1.000  H
  H79      1.0000 0.22540  0.80930  0.95370  Biso   1.000  H
  H80      1.0000 0.77460  0.80930  0.54630  Biso   1.000  H
  H81      1.0000 0.26370  0.63890  0.97730  Biso   1.000  H
  H82      1.0000 0.73630  0.63890  0.52270  Biso   1.000  H
  H83      1.0000 0.76370  0.13890  0.97730  Biso   1.000  H
  H84      1.0000 0.23630  0.13890  0.52270  Biso   1.000  H
  H85      1.0000 0.73630  0.36110  0.02270  Biso   1.000  H
  H86      1.0000 0.26370  0.36110  0.47730  Biso   1.000  H
  H87      1.0000 0.23630  0.86110  0.02270  Biso   1.000  H
  H88      1.0000 0.76370  0.86110  0.47730  Biso   1.000  H
  N105     1.0000 0.27270  0.64050  0.19200  Biso   1.000  N
  N106     1.0000 0.72730  0.64050  0.30800  Biso   1.000  N
  N107     1.0000 0.77270  0.14050  0.19200  Biso   1.000  N
  N108     1.0000 0.22730  0.14050  0.30800  Biso   1.000  N
  N109     1.0000 0.72730  0.35950  0.80800  Biso   1.000  N
  N110     1.0000 0.27270  0.35950  0.69200  Biso   1.000  N
  N111     1.0000 0.22730  0.85950  0.80800  Biso   1.000  N
  N112     1.0000 0.77270  0.85950  0.69200  Biso   1.000  N
  C113     1.0000 0.26350  0.60280  0.24910  Biso   1.000  C
  C114     1.0000 0.73650  0.60280  0.25090  Biso   1.000  C
  C115     1.0000 0.76350  0.10280  0.24910  Biso   1.000  C
  C116     1.0000 0.23650  0.10280  0.25090  Biso   1.000  C
  C117     1.0000 0.73650  0.39720  0.75090  Biso   1.000  C
  C118     1.0000 0.26350  0.39720  0.74910  Biso   1.000  C
  C119     1.0000 0.23650  0.89720  0.75090  Biso   1.000  C
  C120     1.0000 0.76350  0.89720  0.74910  Biso   1.000  C
  H89      1.0000 0.26250  0.63130  0.29140  Biso   1.000  H
  H90      1.0000 0.73750  0.63130  0.20860  Biso   1.000  H
  H91      1.0000 0.76250  0.13130  0.29140  Biso   1.000  H
  H92      1.0000 0.23750  0.13130  0.20860  Biso   1.000  H
  H93      1.0000 0.73750  0.36870  0.70860  Biso   1.000  H
  H94      1.0000 0.26250  0.36870  0.79140  Biso   1.000  H
  H95      1.0000 0.23750  0.86870  0.70860  Biso   1.000  H
  H96      1.0000 0.76250  0.86870  0.79140  Biso   1.000  H
  N113     1.0000 0.25570  0.52060  0.24310  Biso   1.000  N
  N114     1.0000 0.74430  0.52060  0.25690  Biso   1.000  N
  N115     1.0000 0.75570  0.02060  0.24310  Biso   1.000  N
  N116     1.0000 0.24430  0.02060  0.25690  Biso   1.000  N
  N117     1.0000 0.74430  0.47940  0.75690  Biso   1.000  N
  N118     1.0000 0.25570  0.47940  0.74310  Biso   1.000  N
  N119     1.0000 0.24430  0.97940  0.75690  Biso   1.000  N
  N120     1.0000 0.75570  0.97940  0.74310  Biso   1.000  N
  O1       1.0000 0.29480  0.85990  0.14050  Biso   1.000  O
  O2       1.0000 0.70520  0.85990  0.35950  Biso   1.000  O
  O3       1.0000 0.79480  0.35990  0.14050  Biso   1.000  O
  O4       1.0000 0.20520  0.35990  0.35950  Biso   1.000  O
  O5       1.0000 0.70520  0.14010  0.85950  Biso   1.000  O
  O6       1.0000 0.29480  0.14010  0.64050  Biso   1.000  O
  O7       1.0000 0.20520  0.64010  0.85950  Biso   1.000  O
  O8       1.0000 0.79480  0.64010  0.64050  Biso   1.000  O
  O9       1.0000 0.28650  0.04520  0.12770  Biso   1.000  O
  O10      1.0000 0.71350  0.04520  0.37230  Biso   1.000  O
  O11      1.0000 0.78650  0.54520  0.12770  Biso   1.000  O
  O12      1.0000 0.21350  0.54520  0.37230  Biso   1.000  O
  O13      1.0000 0.71350  0.95480  0.87230  Biso   1.000  O
  O14      1.0000 0.28650  0.95480  0.62770  Biso   1.000  O
  O15      1.0000 0.21350  0.45480  0.87230  Biso   1.000  O
  O16      1.0000 0.78650  0.45480  0.62770  Biso   1.000  O
  C121     1.0000 0.16480  0.77350  0.26750  Biso   1.000  C
  C122     1.0000 0.83520  0.77350  0.23250  Biso   1.000  C
  C123     1.0000 0.66480  0.27350  0.26750  Biso   1.000  C
  C124     1.0000 0.33520  0.27350  0.23250  Biso   1.000  C
  C125     1.0000 0.83520  0.22650  0.73250  Biso   1.000  C
  C126     1.0000 0.16480  0.22650  0.76750  Biso   1.000  C
  C127     1.0000 0.33520  0.72650  0.73250  Biso   1.000  C
  C128     1.0000 0.66480  0.72650  0.76750  Biso   1.000  C
  O17      1.0000 0.22920  0.78580  0.28530  Biso   1.000  O
  O18      1.0000 0.77080  0.78580  0.21470  Biso   1.000  O
  O19      1.0000 0.72920  0.28580  0.28530  Biso   1.000  O
  O20      1.0000 0.27080  0.28580  0.21470  Biso   1.000  O
  O21      1.0000 0.77080  0.21420  0.71470  Biso   1.000  O
  O22      1.0000 0.22920  0.21420  0.78530  Biso   1.000  O
  O23      1.0000 0.27080  0.71420  0.71470  Biso   1.000  O
  O24      1.0000 0.72920  0.71420  0.78530  Biso   1.000  O
