data_image0
_cell_length_a       7.0518
_cell_length_b       12.2692
_cell_length_c       13.8583
_cell_angle_alpha    115.726
_cell_angle_beta     93.244
_cell_angle_gamma    98.361

_symmetry_space_group_name_H-M    "P 1"
_symmetry_int_tables_number       1

loop_
  _symmetry_equiv_pos_as_xyz
  'x, y, z'

loop_
  _atom_site_label
  _atom_site_occupancy
  _atom_site_fract_x
  _atom_site_fract_y
  _atom_site_fract_z
  _atom_site_thermal_displace_type
  _atom_site_B_iso_or_equiv
  _atom_site_type_symbol
  Cu1      1.0000 0.31244  0.80418  0.57159  Biso   1.000  Cu
  Cu2      1.0000 0.68756  0.19583  0.42841  Biso   1.000  Cu
  Na1      1.0000 0.34526  0.46357  0.08156  Biso   1.000  Na
  Na2      1.0000 0.65474  0.53643  0.91844  Biso   1.000  Na
  Na3      1.0000 0.13133  0.14646  0.01788  Biso   1.000  Na
  Na4      1.0000 0.86867  0.85354  0.98212  Biso   1.000  Na
  N1       1.0000 0.34080  0.65558  0.44272  Biso   1.000  N
  N2       1.0000 0.65920  0.34442  0.55728  Biso   1.000  N
  N3       1.0000 0.39720  0.65128  0.34876  Biso   1.000  N
  N4       1.0000 0.60280  0.34872  0.65124  Biso   1.000  N
  N5       1.0000 0.38780  0.53686  0.28084  Biso   1.000  N
  N6       1.0000 0.61220  0.46314  0.71916  Biso   1.000  N
  N7       1.0000 0.32810  0.46175  0.32586  Biso   1.000  N
  N8       1.0000 0.67190  0.53825  0.67414  Biso   1.000  N
  N9       1.0000 0.24450  0.49937  0.49936  Biso   1.000  N
  N10      1.0000 0.75550  0.50063  0.50064  Biso   1.000  N
  H1       1.0000 0.21460  0.42150  0.47940  Biso   1.000  H
  H2       1.0000 0.78540  0.57850  0.52060  Biso   1.000  H
  N11      1.0000 0.27610  0.70113  0.64709  Biso   1.000  N
  N12      1.0000 0.72390  0.29887  0.35291  Biso   1.000  N
  N13      1.0000 0.23930  0.74103  0.75103  Biso   1.000  N
  N14      1.0000 0.76070  0.25897  0.24897  Biso   1.000  N
  N15      1.0000 0.17990  0.64510  0.76579  Biso   1.000  N
  N16      1.0000 0.82010  0.35490  0.23421  Biso   1.000  N
  N17      1.0000 0.17310  0.54035  0.67482  Biso   1.000  N
  N18      1.0000 0.82690  0.45965  0.32518  Biso   1.000  N
  N19      1.0000 0.42710  0.95908  0.69892  Biso   1.000  N
  N20      1.0000 0.57290  0.04092  0.30108  Biso   1.000  N
  N21      1.0000 0.51280  0.96804  0.79293  Biso   1.000  N
  N22      1.0000 0.48720  0.03196  0.20707  Biso   1.000  N
  N23      1.0000 0.58050  0.08308  0.85690  Biso   1.000  N
  N24      1.0000 0.41950  0.91692  0.14310  Biso   1.000  N
  N25      1.0000 0.54210  0.15429  0.80868  Biso   1.000  N
  N26      1.0000 0.45790  0.84571  0.19132  Biso   1.000  N
  N27      1.0000 0.38630  0.10961  0.63678  Biso   1.000  N
  N28      1.0000 0.61370  0.89039  0.36322  Biso   1.000  N
  H3       1.0000 0.40780  0.18670  0.65270  Biso   1.000  H
  H4       1.0000 0.59220  0.81330  0.34730  Biso   1.000  H
  N29      1.0000 0.25086  0.90512  0.50052  Biso   1.000  N
  N30      1.0000 0.74914  0.09488  0.49948  Biso   1.000  N
  N31      1.0000 0.15310  0.86172  0.39986  Biso   1.000  N
  N32      1.0000 0.84690  0.13828  0.60014  Biso   1.000  N
  N33      1.0000 0.13940  0.95345  0.37920  Biso   1.000  N
  N34      1.0000 0.86060  0.04655  0.62080  Biso   1.000  N
  N35      1.0000 0.22570  0.06105  0.46443  Biso   1.000  N
  N36      1.0000 0.77430  0.93895  0.53557  Biso   1.000  N
  C1       1.0000 0.30230  0.53806  0.42484  Biso   1.000  C
  C2       1.0000 0.69770  0.46194  0.57516  Biso   1.000  C
  C3       1.0000 0.23210  0.57845  0.60389  Biso   1.000  C
  C4       1.0000 0.76790  0.42155  0.39611  Biso   1.000  C
  C5       1.0000 0.44930  0.07471  0.71219  Biso   1.000  C
  C6       1.0000 0.55070  0.92529  0.28781  Biso   1.000  C
  C7       1.0000 0.29050  0.02733  0.53701  Biso   1.000  C
  C8       1.0000 0.70950  0.97267  0.46299  Biso   1.000  C
  O1       1.0000 0.16537  0.62437  0.10171  Biso   1.000  O
  O2       1.0000 0.83463  0.37563  0.89829  Biso   1.000  O
  H5       1.0000 0.24350  0.69150  0.14100  Biso   1.000  H
  H6       1.0000 0.75650  0.30850  0.85900  Biso   1.000  H
  H7       1.0000 0.09440  0.62340  0.14900  Biso   1.000  H
  H8       1.0000 0.90560  0.37660  0.85100  Biso   1.000  H
  O3       1.0000 0.03677  0.33756  0.05747  Biso   1.000  O
  O4       1.0000 0.96323  0.66244  0.94253  Biso   1.000  O
  H9       1.0000 0.97500  0.35390  0.11150  Biso   1.000  H
  H10      1.0000 0.02500  0.64610  0.88850  Biso   1.000  H
  H11      1.0000 0.97240  0.35400  0.01340  Biso   1.000  H
  H12      1.0000 0.02760  0.64600  0.98660  Biso   1.000  H
  O5       1.0000 0.46880  0.27884  0.05666  Biso   1.000  O
  O6       1.0000 0.53120  0.72116  0.94334  Biso   1.000  O
  H13      1.0000 0.55910  0.30790  0.10940  Biso   1.000  H
  H14      1.0000 0.44090  0.69210  0.89060  Biso   1.000  H
  H15      1.0000 0.51360  0.22690  0.00380  Biso   1.000  H
  H16      1.0000 0.48640  0.77310  0.99620  Biso   1.000  H
  O7       1.0000 0.37106  0.38527  0.89502  Biso   1.000  O
  O8       1.0000 0.62894  0.61473  0.10498  Biso   1.000  O
  H17      1.0000 0.28680  0.37610  0.84440  Biso   1.000  H
  H18      1.0000 0.71320  0.62390  0.15560  Biso   1.000  H
  H19      1.0000 0.39320  0.31240  0.87030  Biso   1.000  H
  H20      1.0000 0.60680  0.68760  0.12970  Biso   1.000  H
  O9       1.0000 0.91610  0.63851  0.25511  Biso   1.000  O
  O10      1.0000 0.08390  0.36149  0.74489  Biso   1.000  O
  H21      1.0000 0.98810  0.70560  0.30040  Biso   1.000  H
  H22      1.0000 0.01190  0.29440  0.69960  Biso   1.000  H
  H23      1.0000 0.89380  0.59270  0.28640  Biso   1.000  H
  H24      1.0000 0.10620  0.40730  0.71360  Biso   1.000  H
  O11      1.0000 0.09110  0.24394  0.42267  Biso   1.000  O
  O12      1.0000 0.90890  0.75606  0.57733  Biso   1.000  O
  H25      1.0000 0.12490  0.22100  0.35990  Biso   1.000  H
  H26      1.0000 0.87510  0.77900  0.64010  Biso   1.000  H
  H27      1.0000 0.13840  0.20420  0.45220  Biso   1.000  H
  H28      1.0000 0.86160  0.79580  0.54780  Biso   1.000  H
  O13      1.0000 0.22310  0.19884  0.21049  Biso   1.000  O
  O14      1.0000 0.77690  0.80116  0.78951  Biso   1.000  O
  H29      1.0000 0.32100  0.16480  0.20680  Biso   1.000  H
  H30      1.0000 0.67900  0.83520  0.79320  Biso   1.000  H
  H31      1.0000 0.27690  0.27450  0.24190  Biso   1.000  H
  H32      1.0000 0.72310  0.72550  0.75810  Biso   1.000  H
  O15      1.0000 0.80150  0.05664  0.03229  Biso   1.000  O
  O16      1.0000 0.19850  0.94336  0.96771  Biso   1.000  O
  H33      1.0000 0.76730  0.09670  0.09390  Biso   1.000  H
  H34      1.0000 0.23270  0.90330  0.90610  Biso   1.000  H
  H35      1.0000 0.74200  0.07200  0.98590  Biso   1.000  H
  H36      1.0000 0.25800  0.92800  0.01410  Biso   1.000  H
  O17      1.0000 0.04970  0.05310  0.82632  Biso   1.000  O
  O18      1.0000 0.95030  0.94690  0.17368  Biso   1.000  O
  H37      1.0000 0.07790  0.12920  0.84220  Biso   1.000  H
  H38      1.0000 0.92210  0.87080  0.15780  Biso   1.000  H
  H39      1.0000 0.99220  0.05570  0.77200  Biso   1.000  H
  H40      1.0000 0.00780  0.94430  0.22800  Biso   1.000  H
