data_image0
_cell_length_a       9.4564
_cell_length_b       18.2679
_cell_length_c       15.7284
_cell_angle_alpha    90
_cell_angle_beta     126.045
_cell_angle_gamma    90

_symmetry_space_group_name_H-M    "P 1"
_symmetry_int_tables_number       1

loop_
  _symmetry_equiv_pos_as_xyz
  'x, y, z'

loop_
  _atom_site_label
  _atom_site_occupancy
  _atom_site_fract_x
  _atom_site_fract_y
  _atom_site_fract_z
  _atom_site_thermal_displace_type
  _atom_site_B_iso_or_equiv
  _atom_site_type_symbol
  Cu1      1.0000 0.54596  0.76740  0.65525  Biso   1.000  Cu
  Cu2      1.0000 0.45404  0.26740  0.84475  Biso   1.000  Cu
  Cu3      1.0000 0.45404  0.23260  0.34475  Biso   1.000  Cu
  Cu4      1.0000 0.54596  0.73260  0.15525  Biso   1.000  Cu
  N1       1.0000 0.41380  0.82253  0.51690  Biso   1.000  N
  N2       1.0000 0.58620  0.32253  0.98310  Biso   1.000  N
  N3       1.0000 0.58620  0.17747  0.48310  Biso   1.000  N
  N4       1.0000 0.41380  0.67747  0.01690  Biso   1.000  N
  N5       1.0000 0.33800  0.70095  0.60054  Biso   1.000  N
  N6       1.0000 0.66200  0.20095  0.89946  Biso   1.000  N
  N7       1.0000 0.66200  0.29905  0.39946  Biso   1.000  N
  N8       1.0000 0.33800  0.79905  0.10054  Biso   1.000  N
  N9       1.0000 0.68930  0.70347  0.78560  Biso   1.000  N
  N10      1.0000 0.31070  0.20347  0.71440  Biso   1.000  N
  N11      1.0000 0.31070  0.29653  0.21440  Biso   1.000  N
  N12      1.0000 0.68930  0.79653  0.28560  Biso   1.000  N
  O1       1.0000 0.42880  0.83956  0.72011  Biso   1.000  O
  O2       1.0000 0.57120  0.33956  0.77989  Biso   1.000  O
  O3       1.0000 0.57120  0.16044  0.27989  Biso   1.000  O
  O4       1.0000 0.42880  0.66044  0.22011  Biso   1.000  O
  O5       1.0000 0.62400  0.89797  0.88977  Biso   1.000  O
  O6       1.0000 0.37600  0.39797  0.61023  Biso   1.000  O
  O7       1.0000 0.37600  0.10203  0.11023  Biso   1.000  O
  O8       1.0000 0.62400  0.60203  0.38977  Biso   1.000  O
  O9       1.0000 0.47840  0.97027  0.73148  Biso   1.000  O
  O10      1.0000 0.52160  0.47027  0.76852  Biso   1.000  O
  O11      1.0000 0.52160  0.02973  0.26852  Biso   1.000  O
  O12      1.0000 0.47840  0.52973  0.23148  Biso   1.000  O
  O13      1.0000 0.89010  0.95426  0.81817  Biso   1.000  O
  O14      1.0000 0.10990  0.45426  0.68183  Biso   1.000  O
  O15      1.0000 0.10990  0.04574  0.18183  Biso   1.000  O
  O16      1.0000 0.89010  0.54574  0.31817  Biso   1.000  O
  H1       1.0000 0.81430  0.92260  0.78800  Biso   1.000  H
  H2       1.0000 0.18570  0.42260  0.71200  Biso   1.000  H
  H3       1.0000 0.18570  0.07740  0.21200  Biso   1.000  H
  H4       1.0000 0.81430  0.57740  0.28800  Biso   1.000  H
  O17      1.0000 0.74610  0.83492  0.71078  Biso   1.000  O
  O18      1.0000 0.25390  0.33492  0.78922  Biso   1.000  O
  O19      1.0000 0.25390  0.16508  0.28922  Biso   1.000  O
  O20      1.0000 0.74610  0.66508  0.21078  Biso   1.000  O
  O21      1.0000 0.88020  0.76956  0.65720  Biso   1.000  O
  O22      1.0000 0.11980  0.26956  0.84280  Biso   1.000  O
  O23      1.0000 0.11980  0.23044  0.34280  Biso   1.000  O
  O24      1.0000 0.88020  0.73044  0.15720  Biso   1.000  O
  O25      1.0000 0.63000  0.66344  0.55608  Biso   1.000  O
  O26      1.0000 0.37000  0.16344  0.94392  Biso   1.000  O
  O27      1.0000 0.37000  0.33656  0.44392  Biso   1.000  O
  O28      1.0000 0.63000  0.83656  0.05608  Biso   1.000  O
  H5       1.0000 0.71050  0.69550  0.58520  Biso   1.000  H
  H6       1.0000 0.28950  0.19550  0.91480  Biso   1.000  H
  H7       1.0000 0.28950  0.30450  0.41480  Biso   1.000  H
  H8       1.0000 0.71050  0.80450  0.08520  Biso   1.000  H
  H9       1.0000 0.61300  0.64960  0.49910  Biso   1.000  H
  H10      1.0000 0.38700  0.14960  0.00090  Biso   1.000  H
  H11      1.0000 0.38700  0.35040  0.50090  Biso   1.000  H
  H12      1.0000 0.61300  0.85040  0.99910  Biso   1.000  H
  S1       1.0000 0.46990  0.90602  0.78161  Biso   1.000  S
  S2       1.0000 0.53010  0.40602  0.71839  Biso   1.000  S
  S3       1.0000 0.53010  0.09398  0.21839  Biso   1.000  S
  S4       1.0000 0.46990  0.59398  0.28161  Biso   1.000  S
  C1       1.0000 0.33520  0.78714  0.42490  Biso   1.000  C
  C2       1.0000 0.66480  0.28714  0.07510  Biso   1.000  C
  C3       1.0000 0.66480  0.21286  0.57510  Biso   1.000  C
  C4       1.0000 0.33520  0.71286  0.92490  Biso   1.000  C
  H13      1.0000 0.33840  0.73630  0.42520  Biso   1.000  H
  H14      1.0000 0.66160  0.23630  0.07480  Biso   1.000  H
  H15      1.0000 0.66160  0.26370  0.57480  Biso   1.000  H
  H16      1.0000 0.33840  0.76370  0.92520  Biso   1.000  H
  C5       1.0000 0.24970  0.82348  0.32970  Biso   1.000  C
  C6       1.0000 0.75030  0.32348  0.17030  Biso   1.000  C
  C7       1.0000 0.75030  0.17652  0.67030  Biso   1.000  C
  C8       1.0000 0.24970  0.67652  0.82970  Biso   1.000  C
  H17      1.0000 0.19490  0.79730  0.26710  Biso   1.000  H
  H18      1.0000 0.80510  0.29730  0.23290  Biso   1.000  H
  H19      1.0000 0.80510  0.20270  0.73290  Biso   1.000  H
  H20      1.0000 0.19490  0.70270  0.76710  Biso   1.000  H
  C9       1.0000 0.24680  0.89900  0.32870  Biso   1.000  C
  C10      1.0000 0.75320  0.39900  0.17130  Biso   1.000  C
  C11      1.0000 0.75320  0.10100  0.67130  Biso   1.000  C
  C12      1.0000 0.24680  0.60100  0.82870  Biso   1.000  C
  H21      1.0000 0.19420  0.92480  0.26600  Biso   1.000  H
  H22      1.0000 0.80580  0.42480  0.23400  Biso   1.000  H
  H23      1.0000 0.80580  0.07520  0.73400  Biso   1.000  H
  H24      1.0000 0.19420  0.57520  0.76600  Biso   1.000  H
  C13      1.0000 0.32410  0.93499  0.42330  Biso   1.000  C
  C14      1.0000 0.67590  0.43499  0.07670  Biso   1.000  C
  C15      1.0000 0.67590  0.06501  0.57670  Biso   1.000  C
  C16      1.0000 0.32410  0.56501  0.92330  Biso   1.000  C
  H25      1.0000 0.32130  0.98580  0.42480  Biso   1.000  H
  H26      1.0000 0.67870  0.48580  0.07520  Biso   1.000  H
  H27      1.0000 0.67870  0.01420  0.57520  Biso   1.000  H
  H28      1.0000 0.32130  0.51420  0.92480  Biso   1.000  H
  C17      1.0000 0.40530  0.89594  0.51530  Biso   1.000  C
  C18      1.0000 0.59470  0.39594  0.98470  Biso   1.000  C
  C19      1.0000 0.59470  0.10406  0.48470  Biso   1.000  C
  C20      1.0000 0.40530  0.60406  0.01530  Biso   1.000  C
  H29      1.0000 0.45590  0.92110  0.57830  Biso   1.000  H
  H30      1.0000 0.54410  0.42110  0.92170  Biso   1.000  H
  H31      1.0000 0.54410  0.07890  0.42170  Biso   1.000  H
  H32      1.0000 0.45590  0.57890  0.07830  Biso   1.000  H
  C21      1.0000 0.17840  0.72957  0.55740  Biso   1.000  C
  C22      1.0000 0.82160  0.22957  0.94260  Biso   1.000  C
  C23      1.0000 0.82160  0.27043  0.44260  Biso   1.000  C
  C24      1.0000 0.17840  0.77043  0.05740  Biso   1.000  C
  H33      1.0000 0.16470  0.78010  0.54910  Biso   1.000  H
  H34      1.0000 0.83530  0.28010  0.95090  Biso   1.000  H
  H35      1.0000 0.83530  0.21990  0.45090  Biso   1.000  H
  H36      1.0000 0.16470  0.71990  0.04910  Biso   1.000  H
  C25      1.0000 0.03470  0.68735  0.52490  Biso   1.000  C
  C26      1.0000 0.96530  0.18735  0.97510  Biso   1.000  C
  C27      1.0000 0.96530  0.31265  0.47510  Biso   1.000  C
  C28      1.0000 0.03470  0.81265  0.02490  Biso   1.000  C
  H37      1.0000 0.92620  0.70900  0.49540  Biso   1.000  H
  H38      1.0000 0.07380  0.20900  0.00460  Biso   1.000  H
  H39      1.0000 0.07380  0.29100  0.50460  Biso   1.000  H
  H40      1.0000 0.92620  0.79100  0.99540  Biso   1.000  H
  C29      1.0000 0.05330  0.61250  0.53640  Biso   1.000  C
  C30      1.0000 0.94670  0.11250  0.96360  Biso   1.000  C
  C31      1.0000 0.94670  0.38750  0.46360  Biso   1.000  C
  C32      1.0000 0.05330  0.88750  0.03640  Biso   1.000  C
  H41      1.0000 0.95790  0.58280  0.51510  Biso   1.000  H
  H42      1.0000 0.04210  0.08280  0.98490  Biso   1.000  H
  H43      1.0000 0.04210  0.41720  0.48490  Biso   1.000  H
  H44      1.0000 0.95790  0.91720  0.01510  Biso   1.000  H
  C33      1.0000 0.21530  0.58259  0.57980  Biso   1.000  C
  C34      1.0000 0.78470  0.08259  0.92020  Biso   1.000  C
  C35      1.0000 0.78470  0.41741  0.42020  Biso   1.000  C
  C36      1.0000 0.21530  0.91741  0.07980  Biso   1.000  C
  H45      1.0000 0.23140  0.53220  0.58850  Biso   1.000  H
  H46      1.0000 0.76860  0.03220  0.91150  Biso   1.000  H
  H47      1.0000 0.76860  0.46780  0.41150  Biso   1.000  H
  H48      1.0000 0.23140  0.96780  0.08850  Biso   1.000  H
  C37      1.0000 0.35340  0.62803  0.61040  Biso   1.000  C
  C38      1.0000 0.64660  0.12803  0.88960  Biso   1.000  C
  C39      1.0000 0.64660  0.37197  0.38960  Biso   1.000  C
  C40      1.0000 0.35340  0.87197  0.11040  Biso   1.000  C
  H49      1.0000 0.46250  0.60720  0.63920  Biso   1.000  H
  H50      1.0000 0.53750  0.10720  0.86080  Biso   1.000  H
  H51      1.0000 0.53750  0.39280  0.36080  Biso   1.000  H
  H52      1.0000 0.46250  0.89280  0.13920  Biso   1.000  H
  C41      1.0000 0.81950  0.66010  0.80420  Biso   1.000  C
  C42      1.0000 0.18050  0.16010  0.69580  Biso   1.000  C
  C43      1.0000 0.18050  0.33990  0.19580  Biso   1.000  C
  C44      1.0000 0.81950  0.83990  0.30420  Biso   1.000  C
  H53      1.0000 0.85610  0.66380  0.76090  Biso   1.000  H
  H54      1.0000 0.14390  0.16380  0.73910  Biso   1.000  H
  H55      1.0000 0.14390  0.33620  0.23910  Biso   1.000  H
  H56      1.0000 0.85610  0.83620  0.26090  Biso   1.000  H
  C45      1.0000 0.90070  0.60990  0.88610  Biso   1.000  C
  C46      1.0000 0.09930  0.10990  0.61390  Biso   1.000  C
  C47      1.0000 0.09930  0.39010  0.11390  Biso   1.000  C
  C48      1.0000 0.90070  0.89010  0.38610  Biso   1.000  C
  H57      1.0000 0.99080  0.58060  0.89740  Biso   1.000  H
  H58      1.0000 0.00920  0.08060  0.60260  Biso   1.000  H
  H59      1.0000 0.00920  0.41940  0.10260  Biso   1.000  H
  H60      1.0000 0.99080  0.91940  0.39740  Biso   1.000  H
  C49      1.0000 0.84760  0.60370  0.95000  Biso   1.000  C
  C50      1.0000 0.15240  0.10370  0.55000  Biso   1.000  C
  C51      1.0000 0.15240  0.39630  0.05000  Biso   1.000  C
  C52      1.0000 0.84760  0.89630  0.45000  Biso   1.000  C
  H61      1.0000 0.90000  0.57020  0.00500  Biso   1.000  H
  H62      1.0000 0.10000  0.07020  0.49500  Biso   1.000  H
  H63      1.0000 0.10000  0.42980  0.99500  Biso   1.000  H
  H64      1.0000 0.90000  0.92980  0.50500  Biso   1.000  H
  C53      1.0000 0.71480  0.64840  0.93100  Biso   1.000  C
  C54      1.0000 0.28520  0.14840  0.56900  Biso   1.000  C
  C55      1.0000 0.28520  0.35160  0.06900  Biso   1.000  C
  C56      1.0000 0.71480  0.85160  0.43100  Biso   1.000  C
  H65      1.0000 0.67630  0.64560  0.97330  Biso   1.000  H
  H66      1.0000 0.32370  0.14560  0.52670  Biso   1.000  H
  H67      1.0000 0.32370  0.35440  0.02670  Biso   1.000  H
  H68      1.0000 0.67630  0.85440  0.47330  Biso   1.000  H
  C57      1.0000 0.63910  0.69752  0.84880  Biso   1.000  C
  C58      1.0000 0.36090  0.19752  0.65120  Biso   1.000  C
  C59      1.0000 0.36090  0.30248  0.15120  Biso   1.000  C
  C60      1.0000 0.63910  0.80248  0.34880  Biso   1.000  C
  H69      1.0000 0.54970  0.72760  0.83690  Biso   1.000  H
  H70      1.0000 0.45030  0.22760  0.66310  Biso   1.000  H
  H71      1.0000 0.45030  0.27240  0.16310  Biso   1.000  H
  H72      1.0000 0.54970  0.77240  0.33690  Biso   1.000  H
  C61      1.0000 0.29200  0.91812  0.78980  Biso   1.000  C
  C62      1.0000 0.70800  0.41812  0.71020  Biso   1.000  C
  C63      1.0000 0.70800  0.08188  0.21020  Biso   1.000  C
  C64      1.0000 0.29200  0.58188  0.28980  Biso   1.000  C
  C65      1.0000 0.15380  0.86994  0.74350  Biso   1.000  C
  C66      1.0000 0.84620  0.36994  0.75650  Biso   1.000  C
  C67      1.0000 0.84620  0.13006  0.25650  Biso   1.000  C
  C68      1.0000 0.15380  0.63006  0.24350  Biso   1.000  C
  H73      1.0000 0.15270  0.83030  0.70590  Biso   1.000  H
  H74      1.0000 0.84730  0.33030  0.79410  Biso   1.000  H
  H75      1.0000 0.84730  0.16970  0.29410  Biso   1.000  H
  H76      1.0000 0.15270  0.66970  0.20590  Biso   1.000  H
  C69      1.0000 0.01510  0.87888  0.75130  Biso   1.000  C
  C70      1.0000 0.98490  0.37888  0.74870  Biso   1.000  C
  C71      1.0000 0.98490  0.12112  0.24870  Biso   1.000  C
  C72      1.0000 0.01510  0.62112  0.25130  Biso   1.000  C
  C73      1.0000 0.01860  0.93975  0.80730  Biso   1.000  C
  C74      1.0000 0.98140  0.43975  0.69270  Biso   1.000  C
  C75      1.0000 0.98140  0.06025  0.19270  Biso   1.000  C
  C76      1.0000 0.01860  0.56025  0.30730  Biso   1.000  C
  C77      1.0000 0.15910  0.98834  0.85470  Biso   1.000  C
  C78      1.0000 0.84090  0.48834  0.64530  Biso   1.000  C
  C79      1.0000 0.84090  0.01166  0.14530  Biso   1.000  C
  C80      1.0000 0.15910  0.51166  0.35470  Biso   1.000  C
  H77      1.0000 0.16150  0.02830  0.89220  Biso   1.000  H
  H78      1.0000 0.83850  0.52830  0.60780  Biso   1.000  H
  H79      1.0000 0.83850  0.97170  0.10780  Biso   1.000  H
  H80      1.0000 0.16150  0.47170  0.39220  Biso   1.000  H
  C81      1.0000 0.29420  0.97743  0.84610  Biso   1.000  C
  C82      1.0000 0.70580  0.47743  0.65390  Biso   1.000  C
  C83      1.0000 0.70580  0.02257  0.15390  Biso   1.000  C
  C84      1.0000 0.29420  0.52257  0.34610  Biso   1.000  C
  H81      1.0000 0.38780  0.00990  0.87820  Biso   1.000  H
  H82      1.0000 0.61220  0.50990  0.62180  Biso   1.000  H
  H83      1.0000 0.61220  0.99010  0.12180  Biso   1.000  H
  H84      1.0000 0.38780  0.49010  0.37820  Biso   1.000  H
  C85      1.0000 0.87210  0.82326  0.70210  Biso   1.000  C
  C86      1.0000 0.12790  0.32326  0.79790  Biso   1.000  C
  C87      1.0000 0.12790  0.17674  0.29790  Biso   1.000  C
  C88      1.0000 0.87210  0.67674  0.20210  Biso   1.000  C
