data_image0
_cell_length_a       16.7364
_cell_length_b       14.2511
_cell_length_c       11.0388
_cell_angle_alpha    90
_cell_angle_beta     117.625
_cell_angle_gamma    90

_symmetry_space_group_name_H-M    "P 1"
_symmetry_int_tables_number       1

loop_
  _symmetry_equiv_pos_as_xyz
  'x, y, z'

loop_
  _atom_site_label
  _atom_site_occupancy
  _atom_site_fract_x
  _atom_site_fract_y
  _atom_site_fract_z
  _atom_site_thermal_displace_type
  _atom_site_B_iso_or_equiv
  _atom_site_type_symbol
  Pt1      1.0000 0.75000  0.25000  0.00000  Biso   1.000  Pt
  Pt2      1.0000 0.25000  0.25000  0.00000  Biso   1.000  Pt
  Pt3      1.0000 0.25000  0.75000  0.00000  Biso   1.000  Pt
  Pt4      1.0000 0.75000  0.75000  0.00000  Biso   1.000  Pt
  Cu1      1.0000 0.50000  0.10340  0.50000  Biso   1.000  Cu
  Cu2      1.0000 0.00000  0.60340  0.50000  Biso   1.000  Cu
  Cu3      1.0000 0.50000  0.89660  0.50000  Biso   1.000  Cu
  Cu4      1.0000 0.00000  0.39660  0.50000  Biso   1.000  Cu
  Cl1      1.0000 0.66800  0.50000  0.28000  Biso   1.000  Cl
  Cl2      1.0000 0.33200  0.50000  0.72000  Biso   1.000  Cl
  Cl3      1.0000 0.16800  0.00000  0.28000  Biso   1.000  Cl
  Cl4      1.0000 0.83200  0.00000  0.72000  Biso   1.000  Cl
  O1       1.0000 0.57910  0.00000  0.51070  Biso   1.000  O
  O2       1.0000 0.42090  0.00000  0.48930  Biso   1.000  O
  O3       1.0000 0.07910  0.50000  0.51070  Biso   1.000  O
  O4       1.0000 0.92090  0.50000  0.48930  Biso   1.000  O
  O5       1.0000 0.59270  0.14630  0.76520  Biso   1.000  O
  O6       1.0000 0.40730  0.14630  0.23480  Biso   1.000  O
  O7       1.0000 0.09270  0.64630  0.76520  Biso   1.000  O
  O8       1.0000 0.90730  0.64630  0.23480  Biso   1.000  O
  O9       1.0000 0.40730  0.85370  0.23480  Biso   1.000  O
  O10      1.0000 0.59270  0.85370  0.76520  Biso   1.000  O
  O11      1.0000 0.90730  0.35370  0.23480  Biso   1.000  O
  O12      1.0000 0.09270  0.35370  0.76520  Biso   1.000  O
  O13      1.0000 0.61500  0.00000  0.28900  Biso   1.000  O
  O14      1.0000 0.38500  0.00000  0.71100  Biso   1.000  O
  O15      1.0000 0.11500  0.50000  0.28900  Biso   1.000  O
  O16      1.0000 0.88500  0.50000  0.71100  Biso   1.000  O
  O17      1.0000 0.52500  0.15300  0.13500  Biso   1.000  O
  O18      1.0000 0.47500  0.15300  0.86500  Biso   1.000  O
  O19      1.0000 0.02500  0.65300  0.13500  Biso   1.000  O
  O20      1.0000 0.97500  0.65300  0.86500  Biso   1.000  O
  O21      1.0000 0.47500  0.84700  0.86500  Biso   1.000  O
  O22      1.0000 0.52500  0.84700  0.13500  Biso   1.000  O
  O23      1.0000 0.97500  0.34700  0.86500  Biso   1.000  O
  O24      1.0000 0.02500  0.34700  0.13500  Biso   1.000  O
  O25      1.0000 0.32500  0.00000  0.05600  Biso   1.000  O
  O26      1.0000 0.67500  0.00000  0.94400  Biso   1.000  O
  O27      1.0000 0.82500  0.50000  0.05600  Biso   1.000  O
  O28      1.0000 0.17500  0.50000  0.94400  Biso   1.000  O
  O29      1.0000 0.50000  0.39700  0.50000  Biso   1.000  O
  O30      1.0000 0.00000  0.89700  0.50000  Biso   1.000  O
  O31      1.0000 0.50000  0.60300  0.50000  Biso   1.000  O
  O32      1.0000 0.00000  0.10300  0.50000  Biso   1.000  O
  O33      1.0000 0.74700  0.50000  0.24000  Biso   1.000  O
  O34      1.0000 0.25300  0.50000  0.76000  Biso   1.000  O
  O35      1.0000 0.24700  0.00000  0.24000  Biso   1.000  O
  O36      1.0000 0.75300  0.00000  0.76000  Biso   1.000  O
  O37      1.0000 0.72400  0.50000  0.42900  Biso   1.000  O
  O38      1.0000 0.27600  0.50000  0.57100  Biso   1.000  O
  O39      1.0000 0.22400  0.00000  0.42900  Biso   1.000  O
  O40      1.0000 0.77600  0.00000  0.57100  Biso   1.000  O
  O41      1.0000 0.62800  0.42000  0.23700  Biso   1.000  O
  O42      1.0000 0.37200  0.42000  0.76300  Biso   1.000  O
  O43      1.0000 0.12800  0.92000  0.23700  Biso   1.000  O
  O44      1.0000 0.87200  0.92000  0.76300  Biso   1.000  O
  O45      1.0000 0.37200  0.58000  0.76300  Biso   1.000  O
  O46      1.0000 0.62800  0.58000  0.23700  Biso   1.000  O
  O47      1.0000 0.87200  0.08000  0.76300  Biso   1.000  O
  O48      1.0000 0.12800  0.08000  0.23700  Biso   1.000  O
  O49      1.0000 0.61100  0.50000  0.34800  Biso   1.000  O
  O50      1.0000 0.38900  0.50000  0.65200  Biso   1.000  O
  O51      1.0000 0.11100  0.00000  0.34800  Biso   1.000  O
  O52      1.0000 0.88900  0.00000  0.65200  Biso   1.000  O
  O53      1.0000 0.59990  0.50000  0.13300  Biso   1.000  O
  O54      1.0000 0.40010  0.50000  0.86700  Biso   1.000  O
  O55      1.0000 0.09990  0.00000  0.13300  Biso   1.000  O
  O56      1.0000 0.90010  0.00000  0.86700  Biso   1.000  O
  O57      1.0000 0.71420  0.58000  0.30600  Biso   1.000  O
  O58      1.0000 0.28580  0.58000  0.69400  Biso   1.000  O
  O59      1.0000 0.21420  0.08000  0.30600  Biso   1.000  O
  O60      1.0000 0.78580  0.08000  0.69400  Biso   1.000  O
  O61      1.0000 0.28580  0.42000  0.69400  Biso   1.000  O
  O62      1.0000 0.71420  0.42000  0.30600  Biso   1.000  O
  O63      1.0000 0.78580  0.92000  0.69400  Biso   1.000  O
  O64      1.0000 0.21420  0.92000  0.30600  Biso   1.000  O
  N1       1.0000 0.70050  0.25520  0.79350  Biso   1.000  N
  N2       1.0000 0.29950  0.25520  0.20650  Biso   1.000  N
  N3       1.0000 0.20050  0.75520  0.79350  Biso   1.000  N
  N4       1.0000 0.79950  0.75520  0.20650  Biso   1.000  N
  N5       1.0000 0.29950  0.74480  0.20650  Biso   1.000  N
  N6       1.0000 0.70050  0.74480  0.79350  Biso   1.000  N
  N7       1.0000 0.79950  0.24480  0.20650  Biso   1.000  N
  N8       1.0000 0.20050  0.24480  0.79350  Biso   1.000  N
  N9       1.0000 0.59760  0.19800  0.57510  Biso   1.000  N
  N10      1.0000 0.40240  0.19800  0.42490  Biso   1.000  N
  N11      1.0000 0.09760  0.69800  0.57510  Biso   1.000  N
  N12      1.0000 0.90240  0.69800  0.42490  Biso   1.000  N
  N13      1.0000 0.40240  0.80200  0.42490  Biso   1.000  N
  N14      1.0000 0.59760  0.80200  0.57510  Biso   1.000  N
  N15      1.0000 0.90240  0.30200  0.42490  Biso   1.000  N
  N16      1.0000 0.09760  0.30200  0.57510  Biso   1.000  N
  N17      1.0000 0.60000  0.25530  0.38900  Biso   1.000  N
  N18      1.0000 0.40000  0.25530  0.61100  Biso   1.000  N
  N19      1.0000 0.10000  0.75530  0.38900  Biso   1.000  N
  N20      1.0000 0.90000  0.75530  0.61100  Biso   1.000  N
  N21      1.0000 0.40000  0.74470  0.61100  Biso   1.000  N
  N22      1.0000 0.60000  0.74470  0.38900  Biso   1.000  N
  N23      1.0000 0.90000  0.24470  0.61100  Biso   1.000  N
  N24      1.0000 0.10000  0.24470  0.38900  Biso   1.000  N
  N25      1.0000 0.79900  0.37600  0.80100  Biso   1.000  N
  N26      1.0000 0.20100  0.37600  0.19900  Biso   1.000  N
  N27      1.0000 0.29900  0.87600  0.80100  Biso   1.000  N
  N28      1.0000 0.70100  0.87600  0.19900  Biso   1.000  N
  N29      1.0000 0.20100  0.62400  0.19900  Biso   1.000  N
  N30      1.0000 0.79900  0.62400  0.80100  Biso   1.000  N
  N31      1.0000 0.70100  0.12400  0.19900  Biso   1.000  N
  N32      1.0000 0.29900  0.12400  0.80100  Biso   1.000  N
  N33      1.0000 0.66280  0.34900  0.99300  Biso   1.000  N
  N34      1.0000 0.33720  0.34900  0.00700  Biso   1.000  N
  N35      1.0000 0.16280  0.84900  0.99300  Biso   1.000  N
  N36      1.0000 0.83720  0.84900  0.00700  Biso   1.000  N
  N37      1.0000 0.33720  0.65100  0.00700  Biso   1.000  N
  N38      1.0000 0.66280  0.65100  0.99300  Biso   1.000  N
  N39      1.0000 0.83720  0.15100  0.00700  Biso   1.000  N
  N40      1.0000 0.16280  0.15100  0.99300  Biso   1.000  N
  C1       1.0000 0.63090  0.19900  0.71330  Biso   1.000  C
  C2       1.0000 0.36910  0.19900  0.28670  Biso   1.000  C
  C3       1.0000 0.13090  0.69900  0.71330  Biso   1.000  C
  C4       1.0000 0.86910  0.69900  0.28670  Biso   1.000  C
  C5       1.0000 0.36910  0.80100  0.28670  Biso   1.000  C
  C6       1.0000 0.63090  0.80100  0.71330  Biso   1.000  C
  C7       1.0000 0.86910  0.30100  0.28670  Biso   1.000  C
  C8       1.0000 0.13090  0.30100  0.71330  Biso   1.000  C
  C9       1.0000 0.63240  0.25580  0.51600  Biso   1.000  C
  C10      1.0000 0.36760  0.25580  0.48400  Biso   1.000  C
  C11      1.0000 0.13240  0.75580  0.51600  Biso   1.000  C
  C12      1.0000 0.86760  0.75580  0.48400  Biso   1.000  C
  C13      1.0000 0.36760  0.74420  0.48400  Biso   1.000  C
  C14      1.0000 0.63240  0.74420  0.51600  Biso   1.000  C
  C15      1.0000 0.86760  0.24420  0.48400  Biso   1.000  C
  C16      1.0000 0.13240  0.24420  0.51600  Biso   1.000  C
  C17      1.0000 0.70270  0.31490  0.59400  Biso   1.000  C
  C18      1.0000 0.29730  0.31490  0.40600  Biso   1.000  C
  C19      1.0000 0.20270  0.81490  0.59400  Biso   1.000  C
  C20      1.0000 0.79730  0.81490  0.40600  Biso   1.000  C
  C21      1.0000 0.29730  0.68510  0.40600  Biso   1.000  C
  C22      1.0000 0.70270  0.68510  0.59400  Biso   1.000  C
  C23      1.0000 0.79730  0.18510  0.40600  Biso   1.000  C
  C24      1.0000 0.20270  0.18510  0.59400  Biso   1.000  C
  C25      1.0000 0.73440  0.31270  0.73300  Biso   1.000  C
  C26      1.0000 0.26560  0.31270  0.26700  Biso   1.000  C
  C27      1.0000 0.23440  0.81270  0.73300  Biso   1.000  C
  C28      1.0000 0.76560  0.81270  0.26700  Biso   1.000  C
  C29      1.0000 0.26560  0.68730  0.26700  Biso   1.000  C
  C30      1.0000 0.73440  0.68730  0.73300  Biso   1.000  C
  C31      1.0000 0.76560  0.18730  0.26700  Biso   1.000  C
  C32      1.0000 0.23440  0.18730  0.73300  Biso   1.000  C
  C33      1.0000 0.58000  0.35800  0.90700  Biso   1.000  C
  C34      1.0000 0.42000  0.35800  0.09300  Biso   1.000  C
  C35      1.0000 0.08000  0.85800  0.90700  Biso   1.000  C
  C36      1.0000 0.92000  0.85800  0.09300  Biso   1.000  C
  C37      1.0000 0.42000  0.64200  0.09300  Biso   1.000  C
  C38      1.0000 0.58000  0.64200  0.90700  Biso   1.000  C
  C39      1.0000 0.92000  0.14200  0.09300  Biso   1.000  C
  C40      1.0000 0.08000  0.14200  0.90700  Biso   1.000  C
