data_image0
_cell_length_a       8.788
_cell_length_b       7.297
_cell_length_c       18.79
_cell_angle_alpha    90
_cell_angle_beta     96.47
_cell_angle_gamma    90

_symmetry_space_group_name_H-M    "P 1"
_symmetry_int_tables_number       1

loop_
  _symmetry_equiv_pos_as_xyz
  'x, y, z'

loop_
  _atom_site_label
  _atom_site_occupancy
  _atom_site_fract_x
  _atom_site_fract_y
  _atom_site_fract_z
  _atom_site_thermal_displace_type
  _atom_site_B_iso_or_equiv
  _atom_site_type_symbol
  Cu1      1.0000 0.84478  0.61545  0.64793  Biso   1.000  Cu
  Cu2      1.0000 0.15522  0.11545  0.85207  Biso   1.000  Cu
  Cu3      1.0000 0.15522  0.38455  0.35207  Biso   1.000  Cu
  Cu4      1.0000 0.84478  0.88455  0.14793  Biso   1.000  Cu
  S1       1.0000 0.79860  0.72430  0.53327  Biso   1.000  S
  S2       1.0000 0.20140  0.22430  0.96673  Biso   1.000  S
  S3       1.0000 0.20140  0.27570  0.46673  Biso   1.000  S
  S4       1.0000 0.79860  0.77570  0.03327  Biso   1.000  S
  O1       1.0000 0.93490  0.49060  0.73680  Biso   1.000  O
  O2       1.0000 0.06510  0.99060  0.76320  Biso   1.000  O
  O3       1.0000 0.06510  0.50940  0.26320  Biso   1.000  O
  O4       1.0000 0.93490  0.00940  0.23680  Biso   1.000  O
  O5       1.0000 0.16180  0.41890  0.79550  Biso   1.000  O
  O6       1.0000 0.83820  0.91890  0.70450  Biso   1.000  O
  O7       1.0000 0.83820  0.58110  0.20450  Biso   1.000  O
  O8       1.0000 0.16180  0.08110  0.29550  Biso   1.000  O
  O9       1.0000 0.63620  0.60410  0.67030  Biso   1.000  O
  O10      1.0000 0.36380  0.10410  0.82970  Biso   1.000  O
  O11      1.0000 0.36380  0.39590  0.32970  Biso   1.000  O
  O12      1.0000 0.63620  0.89590  0.17030  Biso   1.000  O
  O13      1.0000 0.64100  0.32960  0.62090  Biso   1.000  O
  O14      1.0000 0.35900  0.82960  0.87910  Biso   1.000  O
  O15      1.0000 0.35900  0.67040  0.37910  Biso   1.000  O
  O16      1.0000 0.64100  0.17040  0.12090  Biso   1.000  O
  N1       1.0000 0.02680  0.79370  0.45670  Biso   1.000  N
  N2       1.0000 0.97320  0.29370  0.04330  Biso   1.000  N
  N3       1.0000 0.97320  0.20630  0.54330  Biso   1.000  N
  N4       1.0000 0.02680  0.70630  0.95670  Biso   1.000  N
  N5       1.0000 0.10020  0.67810  0.56750  Biso   1.000  N
  N6       1.0000 0.89980  0.17810  0.93250  Biso   1.000  N
  N7       1.0000 0.89980  0.32190  0.43250  Biso   1.000  N
  N8       1.0000 0.10020  0.82190  0.06750  Biso   1.000  N
  N9       1.0000 0.06000  0.61460  0.63120  Biso   1.000  N
  N10      1.0000 0.94000  0.11460  0.86880  Biso   1.000  N
  N11      1.0000 0.94000  0.38540  0.36880  Biso   1.000  N
  N12      1.0000 0.06000  0.88540  0.13120  Biso   1.000  N
  C1       1.0000 0.98610  0.73380  0.51820  Biso   1.000  C
  C2       1.0000 0.01390  0.23380  0.98180  Biso   1.000  C
  C3       1.0000 0.01390  0.26620  0.48180  Biso   1.000  C
  C4       1.0000 0.98610  0.76620  0.01820  Biso   1.000  C
  C5       1.0000 0.15810  0.57200  0.68340  Biso   1.000  C
  C6       1.0000 0.84190  0.07200  0.81660  Biso   1.000  C
  C7       1.0000 0.84190  0.42800  0.31660  Biso   1.000  C
  C8       1.0000 0.15810  0.92800  0.18340  Biso   1.000  C
  C9       1.0000 0.08070  0.48690  0.74480  Biso   1.000  C
  C10      1.0000 0.91930  0.98690  0.75520  Biso   1.000  C
  C11      1.0000 0.91930  0.51310  0.25520  Biso   1.000  C
  C12      1.0000 0.08070  0.01310  0.24480  Biso   1.000  C
  C13      1.0000 0.32740  0.59440  0.68820  Biso   1.000  C
  C14      1.0000 0.67260  0.09440  0.81180  Biso   1.000  C
  C15      1.0000 0.67260  0.40560  0.31180  Biso   1.000  C
  C16      1.0000 0.32740  0.90560  0.18820  Biso   1.000  C
  C17      1.0000 0.40680  0.42460  0.66140  Biso   1.000  C
  C18      1.0000 0.59320  0.92460  0.83860  Biso   1.000  C
  C19      1.0000 0.59320  0.57540  0.33860  Biso   1.000  C
  C20      1.0000 0.40680  0.07540  0.16140  Biso   1.000  C
  C21      1.0000 0.57190  0.45320  0.64980  Biso   1.000  C
  C22      1.0000 0.42810  0.95320  0.85020  Biso   1.000  C
  C23      1.0000 0.42810  0.54680  0.35020  Biso   1.000  C
  C24      1.0000 0.57190  0.04680  0.14980  Biso   1.000  C
  H1       1.0000 0.94790  0.84030  0.41650  Biso   1.000  H
  H2       1.0000 0.05210  0.34030  0.08350  Biso   1.000  H
  H3       1.0000 0.05210  0.15970  0.58350  Biso   1.000  H
  H4       1.0000 0.94790  0.65970  0.91650  Biso   1.000  H
  H5       1.0000 0.14030  0.80820  0.45520  Biso   1.000  H
  H6       1.0000 0.85970  0.30820  0.04480  Biso   1.000  H
  H7       1.0000 0.85970  0.19180  0.54480  Biso   1.000  H
  H8       1.0000 0.14030  0.69180  0.95520  Biso   1.000  H
  H9       1.0000 0.20940  0.68880  0.55640  Biso   1.000  H
  H10      1.0000 0.79060  0.18880  0.94360  Biso   1.000  H
  H11      1.0000 0.79060  0.31120  0.44360  Biso   1.000  H
  H12      1.0000 0.20940  0.81120  0.05640  Biso   1.000  H
  H13      1.0000 0.35130  0.70930  0.66270  Biso   1.000  H
  H14      1.0000 0.64870  0.20930  0.83730  Biso   1.000  H
  H15      1.0000 0.64870  0.29070  0.33730  Biso   1.000  H
  H16      1.0000 0.35130  0.79070  0.16270  Biso   1.000  H
  H17      1.0000 0.37160  0.62130  0.73780  Biso   1.000  H
  H18      1.0000 0.62840  0.12130  0.76220  Biso   1.000  H
  H19      1.0000 0.62840  0.37870  0.26220  Biso   1.000  H
  H20      1.0000 0.37160  0.87870  0.23780  Biso   1.000  H
  H21      1.0000 0.35260  0.38400  0.62070  Biso   1.000  H
  H22      1.0000 0.64740  0.88400  0.87930  Biso   1.000  H
  H23      1.0000 0.64740  0.61600  0.37930  Biso   1.000  H
  H24      1.0000 0.35260  0.11600  0.12070  Biso   1.000  H
  H25      1.0000 0.39950  0.31290  0.68780  Biso   1.000  H
  H26      1.0000 0.60050  0.81290  0.81220  Biso   1.000  H
  H27      1.0000 0.60050  0.68710  0.31220  Biso   1.000  H
  H28      1.0000 0.39950  0.18710  0.18780  Biso   1.000  H
  O17      1.0000 0.19680  0.04270  0.63910  Biso   1.000  O
  O18      1.0000 0.80320  0.54270  0.86090  Biso   1.000  O
  O19      1.0000 0.80320  0.95730  0.36090  Biso   1.000  O
  O20      1.0000 0.19680  0.45730  0.13910  Biso   1.000  O
  H29      1.0000 0.31160  0.03400  0.64550  Biso   1.000  H
  H30      1.0000 0.68840  0.53400  0.85450  Biso   1.000  H
  H31      1.0000 0.68840  0.96600  0.35450  Biso   1.000  H
  H32      1.0000 0.31160  0.46600  0.14550  Biso   1.000  H
  H33      1.0000 0.17780  0.02460  0.67550  Biso   1.000  H
  H34      1.0000 0.82220  0.52460  0.82450  Biso   1.000  H
  H35      1.0000 0.82220  0.97540  0.32450  Biso   1.000  H
  H36      1.0000 0.17780  0.47540  0.17550  Biso   1.000  H
  O21      1.0000 0.48110  0.48200  0.87380  Biso   1.000  O
  O22      1.0000 0.51890  0.98200  0.62620  Biso   1.000  O
  O23      1.0000 0.51890  0.51800  0.12620  Biso   1.000  O
  O24      1.0000 0.48110  0.01800  0.37380  Biso   1.000  O
  H37      1.0000 0.40110  0.43800  0.85450  Biso   1.000  H
  H38      1.0000 0.59890  0.93800  0.64550  Biso   1.000  H
  H39      1.0000 0.59890  0.56200  0.14550  Biso   1.000  H
  H40      1.0000 0.40110  0.06200  0.35450  Biso   1.000  H
  H41      1.0000 0.43920  0.59960  0.87170  Biso   1.000  H
  H42      1.0000 0.56080  0.09960  0.62830  Biso   1.000  H
  H43      1.0000 0.56080  0.40040  0.12830  Biso   1.000  H
  H44      1.0000 0.43920  0.90040  0.37170  Biso   1.000  H
  O25      1.0000 0.61830  0.23730  0.97370  Biso   1.000  O
  O26      1.0000 0.38170  0.73730  0.52630  Biso   1.000  O
  O27      1.0000 0.38170  0.76270  0.02630  Biso   1.000  O
  O28      1.0000 0.61830  0.26270  0.47370  Biso   1.000  O
  H45      1.0000 0.55370  0.32790  0.96130  Biso   1.000  H
  H46      1.0000 0.44630  0.82790  0.53870  Biso   1.000  H
  H47      1.0000 0.44630  0.67210  0.03870  Biso   1.000  H
  H48      1.0000 0.55370  0.17210  0.46130  Biso   1.000  H
  H49      1.0000 0.60790  0.21060  0.01750  Biso   1.000  H
  H50      1.0000 0.39210  0.71060  0.48250  Biso   1.000  H
  H51      1.0000 0.39210  0.78940  0.98250  Biso   1.000  H
  H52      1.0000 0.60790  0.28940  0.51750  Biso   1.000  H
