data_image0
_cell_length_a       23.597
_cell_length_b       26.869
_cell_length_c       11.428
_cell_angle_alpha    90
_cell_angle_beta     90
_cell_angle_gamma    90

_symmetry_space_group_name_H-M    "P 1"
_symmetry_int_tables_number       1

loop_
  _symmetry_equiv_pos_as_xyz
  'x, y, z'

loop_
  _atom_site_label
  _atom_site_occupancy
  _atom_site_fract_x
  _atom_site_fract_y
  _atom_site_fract_z
  _atom_site_thermal_displace_type
  _atom_site_B_iso_or_equiv
  _atom_site_type_symbol
  Cu1      1.0000 0.17311  0.00671  0.50633  Biso   1.000  Cu
  Cu2      1.0000 0.82689  0.99329  0.50633  Biso   1.000  Cu
  Cu3      1.0000 0.42311  0.24329  0.75633  Biso   1.000  Cu
  Cu4      1.0000 0.07689  0.25671  0.75633  Biso   1.000  Cu
  Cu5      1.0000 0.17311  0.50671  0.00633  Biso   1.000  Cu
  Cu6      1.0000 0.82689  0.49329  0.00633  Biso   1.000  Cu
  Cu7      1.0000 0.42311  0.74329  0.25633  Biso   1.000  Cu
  Cu8      1.0000 0.07689  0.75671  0.25633  Biso   1.000  Cu
  Cu9      1.0000 0.67311  0.00671  0.00633  Biso   1.000  Cu
  Cu10     1.0000 0.32689  0.99329  0.00633  Biso   1.000  Cu
  Cu11     1.0000 0.92311  0.24329  0.25633  Biso   1.000  Cu
  Cu12     1.0000 0.57689  0.25671  0.25633  Biso   1.000  Cu
  Cu13     1.0000 0.67311  0.50671  0.50633  Biso   1.000  Cu
  Cu14     1.0000 0.32689  0.49329  0.50633  Biso   1.000  Cu
  Cu15     1.0000 0.92311  0.74329  0.75633  Biso   1.000  Cu
  Cu16     1.0000 0.57689  0.75671  0.75633  Biso   1.000  Cu
  O1       1.0000 0.18210  0.06486  0.60890  Biso   1.000  O
  O2       1.0000 0.81790  0.93514  0.60890  Biso   1.000  O
  O3       1.0000 0.43210  0.18514  0.85890  Biso   1.000  O
  O4       1.0000 0.06790  0.31486  0.85890  Biso   1.000  O
  O5       1.0000 0.18210  0.56486  0.10890  Biso   1.000  O
  O6       1.0000 0.81790  0.43514  0.10890  Biso   1.000  O
  O7       1.0000 0.43210  0.68514  0.35890  Biso   1.000  O
  O8       1.0000 0.06790  0.81486  0.35890  Biso   1.000  O
  O9       1.0000 0.68210  0.06486  0.10890  Biso   1.000  O
  O10      1.0000 0.31790  0.93514  0.10890  Biso   1.000  O
  O11      1.0000 0.93210  0.18514  0.35890  Biso   1.000  O
  O12      1.0000 0.56790  0.31486  0.35890  Biso   1.000  O
  O13      1.0000 0.68210  0.56486  0.60890  Biso   1.000  O
  O14      1.0000 0.31790  0.43514  0.60890  Biso   1.000  O
  O15      1.0000 0.93210  0.68514  0.85890  Biso   1.000  O
  O16      1.0000 0.56790  0.81486  0.85890  Biso   1.000  O
  O17      1.0000 0.27205  0.04120  0.61490  Biso   1.000  O
  O18      1.0000 0.72795  0.95880  0.61490  Biso   1.000  O
  O19      1.0000 0.52205  0.20880  0.86490  Biso   1.000  O
  O20      1.0000 0.97795  0.29120  0.86490  Biso   1.000  O
  O21      1.0000 0.27205  0.54120  0.11490  Biso   1.000  O
  O22      1.0000 0.72795  0.45880  0.11490  Biso   1.000  O
  O23      1.0000 0.52205  0.70880  0.36490  Biso   1.000  O
  O24      1.0000 0.97795  0.79120  0.36490  Biso   1.000  O
  O25      1.0000 0.77205  0.04120  0.11490  Biso   1.000  O
  O26      1.0000 0.22795  0.95880  0.11490  Biso   1.000  O
  O27      1.0000 0.02205  0.20880  0.36490  Biso   1.000  O
  O28      1.0000 0.47795  0.29120  0.36490  Biso   1.000  O
  O29      1.0000 0.77205  0.54120  0.61490  Biso   1.000  O
  O30      1.0000 0.22795  0.45880  0.61490  Biso   1.000  O
  O31      1.0000 0.02205  0.70880  0.86490  Biso   1.000  O
  O32      1.0000 0.47795  0.79120  0.86490  Biso   1.000  O
  O33      1.0000 0.23980  0.04199  0.90270  Biso   1.000  O
  O34      1.0000 0.76020  0.95801  0.90270  Biso   1.000  O
  O35      1.0000 0.48980  0.20801  0.15270  Biso   1.000  O
  O36      1.0000 0.01020  0.29199  0.15270  Biso   1.000  O
  O37      1.0000 0.23980  0.54199  0.40270  Biso   1.000  O
  O38      1.0000 0.76020  0.45801  0.40270  Biso   1.000  O
  O39      1.0000 0.48980  0.70801  0.65270  Biso   1.000  O
  O40      1.0000 0.01020  0.79199  0.65270  Biso   1.000  O
  O41      1.0000 0.73980  0.04199  0.40270  Biso   1.000  O
  O42      1.0000 0.26020  0.95801  0.40270  Biso   1.000  O
  O43      1.0000 0.98980  0.20801  0.65270  Biso   1.000  O
  O44      1.0000 0.51020  0.29199  0.65270  Biso   1.000  O
  O45      1.0000 0.73980  0.54199  0.90270  Biso   1.000  O
  O46      1.0000 0.26020  0.45801  0.90270  Biso   1.000  O
  O47      1.0000 0.98980  0.70801  0.15270  Biso   1.000  O
  O48      1.0000 0.51020  0.79199  0.15270  Biso   1.000  O
  O49      1.0000 0.33292  0.05194  0.90490  Biso   1.000  O
  O50      1.0000 0.66708  0.94806  0.90490  Biso   1.000  O
  O51      1.0000 0.58292  0.19806  0.15490  Biso   1.000  O
  O52      1.0000 0.91708  0.30194  0.15490  Biso   1.000  O
  O53      1.0000 0.33292  0.55194  0.40490  Biso   1.000  O
  O54      1.0000 0.66708  0.44806  0.40490  Biso   1.000  O
  O55      1.0000 0.58292  0.69806  0.65490  Biso   1.000  O
  O56      1.0000 0.91708  0.80194  0.65490  Biso   1.000  O
  O57      1.0000 0.83292  0.05194  0.40490  Biso   1.000  O
  O58      1.0000 0.16708  0.94806  0.40490  Biso   1.000  O
  O59      1.0000 0.08292  0.19806  0.65490  Biso   1.000  O
  O60      1.0000 0.41708  0.30194  0.65490  Biso   1.000  O
  O61      1.0000 0.83292  0.55194  0.90490  Biso   1.000  O
  O62      1.0000 0.16708  0.44806  0.90490  Biso   1.000  O
  O63      1.0000 0.08292  0.69806  0.15490  Biso   1.000  O
  O64      1.0000 0.41708  0.80194  0.15490  Biso   1.000  O
  O65      1.0000 0.25000  0.25000  0.64870  Biso   1.000  O
  O66      1.0000 0.75000  0.75000  0.64870  Biso   1.000  O
  O67      1.0000 0.50000  0.00000  0.89870  Biso   1.000  O
  O68      1.0000 0.00000  0.50000  0.89870  Biso   1.000  O
  O69      1.0000 0.25000  0.75000  0.14870  Biso   1.000  O
  O70      1.0000 0.75000  0.25000  0.14870  Biso   1.000  O
  O71      1.0000 0.50000  0.50000  0.39870  Biso   1.000  O
  O72      1.0000 0.00000  0.00000  0.39870  Biso   1.000  O
  N1       1.0000 0.15387  0.96121  0.64250  Biso   1.000  N
  N2       1.0000 0.84613  0.03879  0.64250  Biso   1.000  N
  N3       1.0000 0.40387  0.28879  0.89250  Biso   1.000  N
  N4       1.0000 0.09613  0.21121  0.89250  Biso   1.000  N
  N5       1.0000 0.15387  0.46121  0.14250  Biso   1.000  N
  N6       1.0000 0.84613  0.53879  0.14250  Biso   1.000  N
  N7       1.0000 0.40387  0.78879  0.39250  Biso   1.000  N
  N8       1.0000 0.09613  0.71121  0.39250  Biso   1.000  N
  N9       1.0000 0.65387  0.96121  0.14250  Biso   1.000  N
  N10      1.0000 0.34613  0.03879  0.14250  Biso   1.000  N
  N11      1.0000 0.90387  0.28879  0.39250  Biso   1.000  N
  N12      1.0000 0.59613  0.21121  0.39250  Biso   1.000  N
  N13      1.0000 0.65387  0.46121  0.64250  Biso   1.000  N
  N14      1.0000 0.34613  0.53879  0.64250  Biso   1.000  N
  N15      1.0000 0.90387  0.78879  0.89250  Biso   1.000  N
  N16      1.0000 0.59613  0.71121  0.89250  Biso   1.000  N
  N17      1.0000 0.08832  0.80351  0.11940  Biso   1.000  N
  N18      1.0000 0.91168  0.19649  0.11940  Biso   1.000  N
  N19      1.0000 0.33832  0.44649  0.36940  Biso   1.000  N
  N20      1.0000 0.16168  0.05351  0.36940  Biso   1.000  N
  N21      1.0000 0.08832  0.30351  0.61940  Biso   1.000  N
  N22      1.0000 0.91168  0.69649  0.61940  Biso   1.000  N
  N23      1.0000 0.33832  0.94649  0.86940  Biso   1.000  N
  N24      1.0000 0.16168  0.55351  0.86940  Biso   1.000  N
  N25      1.0000 0.58832  0.80351  0.61940  Biso   1.000  N
  N26      1.0000 0.41168  0.19649  0.61940  Biso   1.000  N
  N27      1.0000 0.83832  0.44649  0.86940  Biso   1.000  N
  N28      1.0000 0.66168  0.05351  0.86940  Biso   1.000  N
  N29      1.0000 0.58832  0.30351  0.11940  Biso   1.000  N
  N30      1.0000 0.41168  0.69649  0.11940  Biso   1.000  N
  N31      1.0000 0.83832  0.94649  0.36940  Biso   1.000  N
  N32      1.0000 0.66168  0.55351  0.36940  Biso   1.000  N
  C1       1.0000 0.17270  0.97033  0.74980  Biso   1.000  C
  C2       1.0000 0.82730  0.02967  0.74980  Biso   1.000  C
  C3       1.0000 0.42270  0.27967  0.99980  Biso   1.000  C
  C4       1.0000 0.07730  0.22033  0.99980  Biso   1.000  C
  C5       1.0000 0.17270  0.47033  0.24980  Biso   1.000  C
  C6       1.0000 0.82730  0.52967  0.24980  Biso   1.000  C
  C7       1.0000 0.42270  0.77967  0.49980  Biso   1.000  C
  C8       1.0000 0.07730  0.72033  0.49980  Biso   1.000  C
  C9       1.0000 0.67270  0.97033  0.24980  Biso   1.000  C
  C10      1.0000 0.32730  0.02967  0.24980  Biso   1.000  C
  C11      1.0000 0.92270  0.27967  0.49980  Biso   1.000  C
  C12      1.0000 0.57730  0.22033  0.49980  Biso   1.000  C
  C13      1.0000 0.67270  0.47033  0.74980  Biso   1.000  C
  C14      1.0000 0.32730  0.52967  0.74980  Biso   1.000  C
  C15      1.0000 0.92270  0.77967  0.99980  Biso   1.000  C
  C16      1.0000 0.57730  0.72033  0.99980  Biso   1.000  C
  H1       1.0000 0.19500  0.99840  0.76140  Biso   1.000  H
  H2       1.0000 0.80500  0.00160  0.76140  Biso   1.000  H
  H3       1.0000 0.44500  0.25160  0.01140  Biso   1.000  H
  H4       1.0000 0.05500  0.24840  0.01140  Biso   1.000  H
  H5       1.0000 0.19500  0.49840  0.26140  Biso   1.000  H
  H6       1.0000 0.80500  0.50160  0.26140  Biso   1.000  H
  H7       1.0000 0.44500  0.75160  0.51140  Biso   1.000  H
  H8       1.0000 0.05500  0.74840  0.51140  Biso   1.000  H
  H9       1.0000 0.69500  0.99840  0.26140  Biso   1.000  H
  H10      1.0000 0.30500  0.00160  0.26140  Biso   1.000  H
  H11      1.0000 0.94500  0.25160  0.51140  Biso   1.000  H
  H12      1.0000 0.55500  0.24840  0.51140  Biso   1.000  H
  H13      1.0000 0.69500  0.49840  0.76140  Biso   1.000  H
  H14      1.0000 0.30500  0.50160  0.76140  Biso   1.000  H
  H15      1.0000 0.94500  0.75160  0.01140  Biso   1.000  H
  H16      1.0000 0.55500  0.74840  0.01140  Biso   1.000  H
  C17      1.0000 0.16100  0.94058  0.84470  Biso   1.000  C
  C18      1.0000 0.83900  0.05942  0.84470  Biso   1.000  C
  C19      1.0000 0.41100  0.30942  0.09470  Biso   1.000  C
  C20      1.0000 0.08900  0.19058  0.09470  Biso   1.000  C
  C21      1.0000 0.16100  0.44058  0.34470  Biso   1.000  C
  C22      1.0000 0.83900  0.55942  0.34470  Biso   1.000  C
  C23      1.0000 0.41100  0.80942  0.59470  Biso   1.000  C
  C24      1.0000 0.08900  0.69058  0.59470  Biso   1.000  C
  C25      1.0000 0.66100  0.94058  0.34470  Biso   1.000  C
  C26      1.0000 0.33900  0.05942  0.34470  Biso   1.000  C
  C27      1.0000 0.91100  0.30942  0.59470  Biso   1.000  C
  C28      1.0000 0.58900  0.19058  0.59470  Biso   1.000  C
  C29      1.0000 0.66100  0.44058  0.84470  Biso   1.000  C
  C30      1.0000 0.33900  0.55942  0.84470  Biso   1.000  C
  C31      1.0000 0.91100  0.80942  0.09470  Biso   1.000  C
  C32      1.0000 0.58900  0.69058  0.09470  Biso   1.000  C
  H17      1.0000 0.17610  0.94800  0.91780  Biso   1.000  H
  H18      1.0000 0.82390  0.05200  0.91780  Biso   1.000  H
  H19      1.0000 0.42610  0.30200  0.16780  Biso   1.000  H
  H20      1.0000 0.07390  0.19800  0.16780  Biso   1.000  H
  H21      1.0000 0.17610  0.44800  0.41780  Biso   1.000  H
  H22      1.0000 0.82390  0.55200  0.41780  Biso   1.000  H
  H23      1.0000 0.42610  0.80200  0.66780  Biso   1.000  H
  H24      1.0000 0.07390  0.69800  0.66780  Biso   1.000  H
  H25      1.0000 0.67610  0.94800  0.41780  Biso   1.000  H
  H26      1.0000 0.32390  0.05200  0.41780  Biso   1.000  H
  H27      1.0000 0.92610  0.30200  0.66780  Biso   1.000  H
  H28      1.0000 0.57390  0.19800  0.66780  Biso   1.000  H
  H29      1.0000 0.67610  0.44800  0.91780  Biso   1.000  H
  H30      1.0000 0.32390  0.55200  0.91780  Biso   1.000  H
  H31      1.0000 0.92610  0.80200  0.16780  Biso   1.000  H
  H32      1.0000 0.57390  0.69800  0.16780  Biso   1.000  H
  C33      1.0000 0.12626  0.89910  0.82990  Biso   1.000  C
  C34      1.0000 0.87374  0.10090  0.82990  Biso   1.000  C
  C35      1.0000 0.37626  0.35090  0.07990  Biso   1.000  C
  C36      1.0000 0.12374  0.14910  0.07990  Biso   1.000  C
  C37      1.0000 0.12626  0.39910  0.32990  Biso   1.000  C
  C38      1.0000 0.87374  0.60090  0.32990  Biso   1.000  C
  C39      1.0000 0.37626  0.85090  0.57990  Biso   1.000  C
  C40      1.0000 0.12374  0.64910  0.57990  Biso   1.000  C
  C41      1.0000 0.62626  0.89910  0.32990  Biso   1.000  C
  C42      1.0000 0.37374  0.10090  0.32990  Biso   1.000  C
  C43      1.0000 0.87626  0.35090  0.57990  Biso   1.000  C
  C44      1.0000 0.62374  0.14910  0.57990  Biso   1.000  C
  C45      1.0000 0.62626  0.39910  0.82990  Biso   1.000  C
  C46      1.0000 0.37374  0.60090  0.82990  Biso   1.000  C
  C47      1.0000 0.87626  0.85090  0.07990  Biso   1.000  C
  C48      1.0000 0.62374  0.64910  0.07990  Biso   1.000  C
  C49      1.0000 0.10670  0.88954  0.71900  Biso   1.000  C
  C50      1.0000 0.89330  0.11046  0.71900  Biso   1.000  C
  C51      1.0000 0.35670  0.36046  0.96900  Biso   1.000  C
  C52      1.0000 0.14330  0.13954  0.96900  Biso   1.000  C
  C53      1.0000 0.10670  0.38954  0.21900  Biso   1.000  C
  C54      1.0000 0.89330  0.61046  0.21900  Biso   1.000  C
  C55      1.0000 0.35670  0.86046  0.46900  Biso   1.000  C
  C56      1.0000 0.14330  0.63954  0.46900  Biso   1.000  C
  C57      1.0000 0.60670  0.88954  0.21900  Biso   1.000  C
  C58      1.0000 0.39330  0.11046  0.21900  Biso   1.000  C
  C59      1.0000 0.85670  0.36046  0.46900  Biso   1.000  C
  C60      1.0000 0.64330  0.13954  0.46900  Biso   1.000  C
  C61      1.0000 0.60670  0.38954  0.71900  Biso   1.000  C
  C62      1.0000 0.39330  0.61046  0.71900  Biso   1.000  C
  C63      1.0000 0.85670  0.86046  0.96900  Biso   1.000  C
  C64      1.0000 0.64330  0.63954  0.96900  Biso   1.000  C
  H33      1.0000 0.08340  0.86230  0.70540  Biso   1.000  H
  H34      1.0000 0.91660  0.13770  0.70540  Biso   1.000  H
  H35      1.0000 0.33340  0.38770  0.95540  Biso   1.000  H
  H36      1.0000 0.16660  0.11230  0.95540  Biso   1.000  H
  H37      1.0000 0.08340  0.36230  0.20540  Biso   1.000  H
  H38      1.0000 0.91660  0.63770  0.20540  Biso   1.000  H
  H39      1.0000 0.33340  0.88770  0.45540  Biso   1.000  H
  H40      1.0000 0.16660  0.61230  0.45540  Biso   1.000  H
  H41      1.0000 0.58340  0.86230  0.20540  Biso   1.000  H
  H42      1.0000 0.41660  0.13770  0.20540  Biso   1.000  H
  H43      1.0000 0.83340  0.38770  0.45540  Biso   1.000  H
  H44      1.0000 0.66660  0.11230  0.45540  Biso   1.000  H
  H45      1.0000 0.58340  0.36230  0.70540  Biso   1.000  H
  H46      1.0000 0.41660  0.63770  0.70540  Biso   1.000  H
  H47      1.0000 0.83340  0.88770  0.95540  Biso   1.000  H
  H48      1.0000 0.66660  0.61230  0.95540  Biso   1.000  H
  C65      1.0000 0.12185  0.92072  0.62720  Biso   1.000  C
  C66      1.0000 0.87815  0.07928  0.62720  Biso   1.000  C
  C67      1.0000 0.37185  0.32928  0.87720  Biso   1.000  C
  C68      1.0000 0.12815  0.17072  0.87720  Biso   1.000  C
  C69      1.0000 0.12185  0.42072  0.12720  Biso   1.000  C
  C70      1.0000 0.87815  0.57928  0.12720  Biso   1.000  C
  C71      1.0000 0.37185  0.82928  0.37720  Biso   1.000  C
  C72      1.0000 0.12815  0.67072  0.37720  Biso   1.000  C
  C73      1.0000 0.62185  0.92072  0.12720  Biso   1.000  C
  C74      1.0000 0.37815  0.07928  0.12720  Biso   1.000  C
  C75      1.0000 0.87185  0.32928  0.37720  Biso   1.000  C
  C76      1.0000 0.62815  0.17072  0.37720  Biso   1.000  C
  C77      1.0000 0.62185  0.42072  0.62720  Biso   1.000  C
  C78      1.0000 0.37815  0.57928  0.62720  Biso   1.000  C
  C79      1.0000 0.87185  0.82928  0.87720  Biso   1.000  C
  C80      1.0000 0.62815  0.67072  0.87720  Biso   1.000  C
  H49      1.0000 0.10920  0.91310  0.55220  Biso   1.000  H
  H50      1.0000 0.89080  0.08690  0.55220  Biso   1.000  H
  H51      1.0000 0.35920  0.33690  0.80220  Biso   1.000  H
  H52      1.0000 0.14080  0.16310  0.80220  Biso   1.000  H
  H53      1.0000 0.10920  0.41310  0.05220  Biso   1.000  H
  H54      1.0000 0.89080  0.58690  0.05220  Biso   1.000  H
  H55      1.0000 0.35920  0.83690  0.30220  Biso   1.000  H
  H56      1.0000 0.14080  0.66310  0.30220  Biso   1.000  H
  H57      1.0000 0.60920  0.91310  0.05220  Biso   1.000  H
  H58      1.0000 0.39080  0.08690  0.05220  Biso   1.000  H
  H59      1.0000 0.85920  0.33690  0.30220  Biso   1.000  H
  H60      1.0000 0.64080  0.16310  0.30220  Biso   1.000  H
  H61      1.0000 0.60920  0.41310  0.55220  Biso   1.000  H
  H62      1.0000 0.39080  0.58690  0.55220  Biso   1.000  H
  H63      1.0000 0.85920  0.83690  0.80220  Biso   1.000  H
  H64      1.0000 0.64080  0.66310  0.80220  Biso   1.000  H
  C81      1.0000 0.10674  0.85016  0.13700  Biso   1.000  C
  C82      1.0000 0.89326  0.14984  0.13700  Biso   1.000  C
  C83      1.0000 0.35674  0.39984  0.38700  Biso   1.000  C
  C84      1.0000 0.14326  0.10016  0.38700  Biso   1.000  C
  C85      1.0000 0.10674  0.35016  0.63700  Biso   1.000  C
  C86      1.0000 0.89326  0.64984  0.63700  Biso   1.000  C
  C87      1.0000 0.35674  0.89984  0.88700  Biso   1.000  C
  C88      1.0000 0.14326  0.60016  0.88700  Biso   1.000  C
  C89      1.0000 0.60674  0.85016  0.63700  Biso   1.000  C
  C90      1.0000 0.39326  0.14984  0.63700  Biso   1.000  C
  C91      1.0000 0.85674  0.39984  0.88700  Biso   1.000  C
  C92      1.0000 0.64326  0.10016  0.88700  Biso   1.000  C
  C93      1.0000 0.60674  0.35016  0.13700  Biso   1.000  C
  C94      1.0000 0.39326  0.64984  0.13700  Biso   1.000  C
  C95      1.0000 0.85674  0.89984  0.38700  Biso   1.000  C
  C96      1.0000 0.64326  0.60016  0.38700  Biso   1.000  C
  H65      1.0000 0.11160  0.86150  0.21320  Biso   1.000  H
  H66      1.0000 0.88840  0.13850  0.21320  Biso   1.000  H
  H67      1.0000 0.36160  0.38850  0.46320  Biso   1.000  H
  H68      1.0000 0.13840  0.11150  0.46320  Biso   1.000  H
  H69      1.0000 0.11160  0.36150  0.71320  Biso   1.000  H
  H70      1.0000 0.88840  0.63850  0.71320  Biso   1.000  H
  H71      1.0000 0.36160  0.88850  0.96320  Biso   1.000  H
  H72      1.0000 0.13840  0.61150  0.96320  Biso   1.000  H
  H73      1.0000 0.61160  0.86150  0.71320  Biso   1.000  H
  H74      1.0000 0.38840  0.13850  0.71320  Biso   1.000  H
  H75      1.0000 0.86160  0.38850  0.96320  Biso   1.000  H
  H76      1.0000 0.63840  0.11150  0.96320  Biso   1.000  H
  H77      1.0000 0.61160  0.36150  0.21320  Biso   1.000  H
  H78      1.0000 0.38840  0.63850  0.21320  Biso   1.000  H
  H79      1.0000 0.86160  0.88850  0.46320  Biso   1.000  H
  H80      1.0000 0.63840  0.61150  0.46320  Biso   1.000  H
  C97      1.0000 0.11863  0.88185  0.04490  Biso   1.000  C
  C98      1.0000 0.88137  0.11815  0.04490  Biso   1.000  C
  C99      1.0000 0.36863  0.36815  0.29490  Biso   1.000  C
  C100     1.0000 0.13137  0.13185  0.29490  Biso   1.000  C
  C101     1.0000 0.11863  0.38185  0.54490  Biso   1.000  C
  C102     1.0000 0.88137  0.61815  0.54490  Biso   1.000  C
  C103     1.0000 0.36863  0.86815  0.79490  Biso   1.000  C
  C104     1.0000 0.13137  0.63185  0.79490  Biso   1.000  C
  C105     1.0000 0.61863  0.88185  0.54490  Biso   1.000  C
  C106     1.0000 0.38137  0.11815  0.54490  Biso   1.000  C
  C107     1.0000 0.86863  0.36815  0.79490  Biso   1.000  C
  C108     1.0000 0.63137  0.13185  0.79490  Biso   1.000  C
  C109     1.0000 0.61863  0.38185  0.04490  Biso   1.000  C
  C110     1.0000 0.38137  0.61815  0.04490  Biso   1.000  C
  C111     1.0000 0.86863  0.86815  0.29490  Biso   1.000  C
  C112     1.0000 0.63137  0.63185  0.29490  Biso   1.000  C
  H81      1.0000 0.13120  0.91400  0.06020  Biso   1.000  H
  H82      1.0000 0.86880  0.08600  0.06020  Biso   1.000  H
  H83      1.0000 0.38120  0.33600  0.31020  Biso   1.000  H
  H84      1.0000 0.11880  0.16400  0.31020  Biso   1.000  H
  H85      1.0000 0.13120  0.41400  0.56020  Biso   1.000  H
  H86      1.0000 0.86880  0.58600  0.56020  Biso   1.000  H
  H87      1.0000 0.38120  0.83600  0.81020  Biso   1.000  H
  H88      1.0000 0.11880  0.66400  0.81020  Biso   1.000  H
  H89      1.0000 0.63120  0.91400  0.56020  Biso   1.000  H
  H90      1.0000 0.36880  0.08600  0.56020  Biso   1.000  H
  H91      1.0000 0.88120  0.33600  0.81020  Biso   1.000  H
  H92      1.0000 0.61880  0.16400  0.81020  Biso   1.000  H
  H93      1.0000 0.63120  0.41400  0.06020  Biso   1.000  H
  H94      1.0000 0.36880  0.58600  0.06020  Biso   1.000  H
  H95      1.0000 0.88120  0.83600  0.31020  Biso   1.000  H
  H96      1.0000 0.61880  0.66400  0.31020  Biso   1.000  H
  C113     1.0000 0.11203  0.86623  0.93040  Biso   1.000  C
  C114     1.0000 0.88797  0.13377  0.93040  Biso   1.000  C
  C115     1.0000 0.36203  0.38377  0.18040  Biso   1.000  C
  C116     1.0000 0.13797  0.11623  0.18040  Biso   1.000  C
  C117     1.0000 0.11203  0.36623  0.43040  Biso   1.000  C
  C118     1.0000 0.88797  0.63377  0.43040  Biso   1.000  C
  C119     1.0000 0.36203  0.88377  0.68040  Biso   1.000  C
  C120     1.0000 0.13797  0.61623  0.68040  Biso   1.000  C
  C121     1.0000 0.61203  0.86623  0.43040  Biso   1.000  C
  C122     1.0000 0.38797  0.13377  0.43040  Biso   1.000  C
  C123     1.0000 0.86203  0.38377  0.68040  Biso   1.000  C
  C124     1.0000 0.63797  0.11623  0.68040  Biso   1.000  C
  C125     1.0000 0.61203  0.36623  0.93040  Biso   1.000  C
  C126     1.0000 0.38797  0.63377  0.93040  Biso   1.000  C
  C127     1.0000 0.86203  0.88377  0.18040  Biso   1.000  C
  C128     1.0000 0.63797  0.61623  0.18040  Biso   1.000  C
  C129     1.0000 0.09220  0.81861  0.91350  Biso   1.000  C
  C130     1.0000 0.90780  0.18139  0.91350  Biso   1.000  C
  C131     1.0000 0.34220  0.43139  0.16350  Biso   1.000  C
  C132     1.0000 0.15780  0.06861  0.16350  Biso   1.000  C
  C133     1.0000 0.09220  0.31861  0.41350  Biso   1.000  C
  C134     1.0000 0.90780  0.68139  0.41350  Biso   1.000  C
  C135     1.0000 0.34220  0.93139  0.66350  Biso   1.000  C
  C136     1.0000 0.15780  0.56861  0.66350  Biso   1.000  C
  C137     1.0000 0.59220  0.81861  0.41350  Biso   1.000  C
  C138     1.0000 0.40780  0.18139  0.41350  Biso   1.000  C
  C139     1.0000 0.84220  0.43139  0.66350  Biso   1.000  C
  C140     1.0000 0.65780  0.06861  0.66350  Biso   1.000  C
  C141     1.0000 0.59220  0.31861  0.91350  Biso   1.000  C
  C142     1.0000 0.40780  0.68139  0.91350  Biso   1.000  C
  C143     1.0000 0.84220  0.93139  0.16350  Biso   1.000  C
  C144     1.0000 0.65780  0.56861  0.16350  Biso   1.000  C
  H97      1.0000 0.08620  0.80670  0.83810  Biso   1.000  H
  H98      1.0000 0.91380  0.19330  0.83810  Biso   1.000  H
  H99      1.0000 0.33620  0.44330  0.08810  Biso   1.000  H
  H100     1.0000 0.16380  0.05670  0.08810  Biso   1.000  H
  H101     1.0000 0.08620  0.30670  0.33810  Biso   1.000  H
  H102     1.0000 0.91380  0.69330  0.33810  Biso   1.000  H
  H103     1.0000 0.33620  0.94330  0.58810  Biso   1.000  H
  H104     1.0000 0.16380  0.55670  0.58810  Biso   1.000  H
  H105     1.0000 0.58620  0.80670  0.33810  Biso   1.000  H
  H106     1.0000 0.41380  0.19330  0.33810  Biso   1.000  H
  H107     1.0000 0.83620  0.44330  0.58810  Biso   1.000  H
  H108     1.0000 0.66380  0.05670  0.58810  Biso   1.000  H
  H109     1.0000 0.58620  0.30670  0.83810  Biso   1.000  H
  H110     1.0000 0.41380  0.69330  0.83810  Biso   1.000  H
  H111     1.0000 0.83620  0.94330  0.08810  Biso   1.000  H
  H112     1.0000 0.66380  0.55670  0.08810  Biso   1.000  H
  C145     1.0000 0.08144  0.78863  0.00880  Biso   1.000  C
  C146     1.0000 0.91856  0.21137  0.00880  Biso   1.000  C
  C147     1.0000 0.33144  0.46137  0.25880  Biso   1.000  C
  C148     1.0000 0.16856  0.03863  0.25880  Biso   1.000  C
  C149     1.0000 0.08144  0.28863  0.50880  Biso   1.000  C
  C150     1.0000 0.91856  0.71137  0.50880  Biso   1.000  C
  C151     1.0000 0.33144  0.96137  0.75880  Biso   1.000  C
  C152     1.0000 0.16856  0.53863  0.75880  Biso   1.000  C
  C153     1.0000 0.58144  0.78863  0.50880  Biso   1.000  C
  C154     1.0000 0.41856  0.21137  0.50880  Biso   1.000  C
  C155     1.0000 0.83144  0.46137  0.75880  Biso   1.000  C
  C156     1.0000 0.66856  0.03863  0.75880  Biso   1.000  C
  C157     1.0000 0.58144  0.28863  0.00880  Biso   1.000  C
  C158     1.0000 0.41856  0.71137  0.00880  Biso   1.000  C
  C159     1.0000 0.83144  0.96137  0.25880  Biso   1.000  C
  C160     1.0000 0.66856  0.53863  0.25880  Biso   1.000  C
  H113     1.0000 0.06870  0.75640  0.99540  Biso   1.000  H
  H114     1.0000 0.93130  0.24360  0.99540  Biso   1.000  H
  H115     1.0000 0.31870  0.49360  0.24540  Biso   1.000  H
  H116     1.0000 0.18130  0.00640  0.24540  Biso   1.000  H
  H117     1.0000 0.06870  0.25640  0.49540  Biso   1.000  H
  H118     1.0000 0.93130  0.74360  0.49540  Biso   1.000  H
  H119     1.0000 0.31870  0.99360  0.74540  Biso   1.000  H
  H120     1.0000 0.18130  0.50640  0.74540  Biso   1.000  H
  H121     1.0000 0.56870  0.75640  0.49540  Biso   1.000  H
  H122     1.0000 0.43130  0.24360  0.49540  Biso   1.000  H
  H123     1.0000 0.81870  0.49360  0.74540  Biso   1.000  H
  H124     1.0000 0.68130  0.00640  0.74540  Biso   1.000  H
  H125     1.0000 0.56870  0.25640  0.99540  Biso   1.000  H
  H126     1.0000 0.43130  0.74360  0.99540  Biso   1.000  H
  H127     1.0000 0.81870  0.99360  0.24540  Biso   1.000  H
  H128     1.0000 0.68130  0.50640  0.24540  Biso   1.000  H
  C161     1.0000 0.23873  0.16339  0.65430  Biso   1.000  C
  C162     1.0000 0.76127  0.83661  0.65430  Biso   1.000  C
  C163     1.0000 0.48873  0.08661  0.90430  Biso   1.000  C
  C164     1.0000 0.01127  0.41339  0.90430  Biso   1.000  C
  C165     1.0000 0.23873  0.66339  0.15430  Biso   1.000  C
  C166     1.0000 0.76127  0.33661  0.15430  Biso   1.000  C
  C167     1.0000 0.48873  0.58661  0.40430  Biso   1.000  C
  C168     1.0000 0.01127  0.91339  0.40430  Biso   1.000  C
  C169     1.0000 0.73873  0.16339  0.15430  Biso   1.000  C
  C170     1.0000 0.26127  0.83661  0.15430  Biso   1.000  C
  C171     1.0000 0.98873  0.08661  0.40430  Biso   1.000  C
  C172     1.0000 0.51127  0.41339  0.40430  Biso   1.000  C
  C173     1.0000 0.73873  0.66339  0.65430  Biso   1.000  C
  C174     1.0000 0.26127  0.33661  0.65430  Biso   1.000  C
  C175     1.0000 0.98873  0.58661  0.90430  Biso   1.000  C
  C176     1.0000 0.51127  0.91339  0.90430  Biso   1.000  C
  H129     1.0000 0.21910  0.16570  0.58390  Biso   1.000  H
  H130     1.0000 0.78090  0.83430  0.58390  Biso   1.000  H
  H131     1.0000 0.46910  0.08430  0.83390  Biso   1.000  H
  H132     1.0000 0.03090  0.41570  0.83390  Biso   1.000  H
  H133     1.0000 0.21910  0.66570  0.08390  Biso   1.000  H
  H134     1.0000 0.78090  0.33430  0.08390  Biso   1.000  H
  H135     1.0000 0.46910  0.58430  0.33390  Biso   1.000  H
  H136     1.0000 0.03090  0.91570  0.33390  Biso   1.000  H
  H137     1.0000 0.71910  0.16570  0.08390  Biso   1.000  H
  H138     1.0000 0.28090  0.83430  0.08390  Biso   1.000  H
  H139     1.0000 0.96910  0.08430  0.33390  Biso   1.000  H
  H140     1.0000 0.53090  0.41570  0.33390  Biso   1.000  H
  H141     1.0000 0.71910  0.66570  0.58390  Biso   1.000  H
  H142     1.0000 0.28090  0.33430  0.58390  Biso   1.000  H
  H143     1.0000 0.96910  0.58430  0.83390  Biso   1.000  H
  H144     1.0000 0.53090  0.91570  0.83390  Biso   1.000  H
  C177     1.0000 0.24873  0.11715  0.70600  Biso   1.000  C
  C178     1.0000 0.75127  0.88285  0.70600  Biso   1.000  C
  C179     1.0000 0.49873  0.13285  0.95600  Biso   1.000  C
  C180     1.0000 0.00127  0.36715  0.95600  Biso   1.000  C
  C181     1.0000 0.24873  0.61715  0.20600  Biso   1.000  C
  C182     1.0000 0.75127  0.38285  0.20600  Biso   1.000  C
  C183     1.0000 0.49873  0.63285  0.45600  Biso   1.000  C
  C184     1.0000 0.00127  0.86715  0.45600  Biso   1.000  C
  C185     1.0000 0.74873  0.11715  0.20600  Biso   1.000  C
  C186     1.0000 0.25127  0.88285  0.20600  Biso   1.000  C
  C187     1.0000 0.99873  0.13285  0.45600  Biso   1.000  C
  C188     1.0000 0.50127  0.36715  0.45600  Biso   1.000  C
  C189     1.0000 0.74873  0.61715  0.70600  Biso   1.000  C
  C190     1.0000 0.25127  0.38285  0.70600  Biso   1.000  C
  C191     1.0000 0.99873  0.63285  0.95600  Biso   1.000  C
  C192     1.0000 0.50127  0.86715  0.95600  Biso   1.000  C
  C193     1.0000 0.27696  0.11433  0.81370  Biso   1.000  C
  C194     1.0000 0.72304  0.88567  0.81370  Biso   1.000  C
  C195     1.0000 0.52696  0.13567  0.06370  Biso   1.000  C
  C196     1.0000 0.97304  0.36433  0.06370  Biso   1.000  C
  C197     1.0000 0.27696  0.61433  0.31370  Biso   1.000  C
  C198     1.0000 0.72304  0.38567  0.31370  Biso   1.000  C
  C199     1.0000 0.52696  0.63567  0.56370  Biso   1.000  C
  C200     1.0000 0.97304  0.86433  0.56370  Biso   1.000  C
  C201     1.0000 0.77696  0.11433  0.31370  Biso   1.000  C
  C202     1.0000 0.22304  0.88567  0.31370  Biso   1.000  C
  C203     1.0000 0.02696  0.13567  0.56370  Biso   1.000  C
  C204     1.0000 0.47304  0.36433  0.56370  Biso   1.000  C
  C205     1.0000 0.77696  0.61433  0.81370  Biso   1.000  C
  C206     1.0000 0.22304  0.38567  0.81370  Biso   1.000  C
  C207     1.0000 0.02696  0.63567  0.06370  Biso   1.000  C
  C208     1.0000 0.47304  0.86433  0.06370  Biso   1.000  C
  C209     1.0000 0.29648  0.15773  0.86580  Biso   1.000  C
  C210     1.0000 0.70352  0.84227  0.86580  Biso   1.000  C
  C211     1.0000 0.54648  0.09227  0.11580  Biso   1.000  C
  C212     1.0000 0.95352  0.40773  0.11580  Biso   1.000  C
  C213     1.0000 0.29648  0.65773  0.36580  Biso   1.000  C
  C214     1.0000 0.70352  0.34227  0.36580  Biso   1.000  C
  C215     1.0000 0.54648  0.59227  0.61580  Biso   1.000  C
  C216     1.0000 0.95352  0.90773  0.61580  Biso   1.000  C
  C217     1.0000 0.79648  0.15773  0.36580  Biso   1.000  C
  C218     1.0000 0.20352  0.84227  0.36580  Biso   1.000  C
  C219     1.0000 0.04648  0.09227  0.61580  Biso   1.000  C
  C220     1.0000 0.45352  0.40773  0.61580  Biso   1.000  C
  C221     1.0000 0.79648  0.65773  0.86580  Biso   1.000  C
  C222     1.0000 0.20352  0.34227  0.86580  Biso   1.000  C
  C223     1.0000 0.04648  0.59227  0.11580  Biso   1.000  C
  C224     1.0000 0.45352  0.90773  0.11580  Biso   1.000  C
  H145     1.0000 0.31580  0.15600  0.93660  Biso   1.000  H
  H146     1.0000 0.68420  0.84400  0.93660  Biso   1.000  H
  H147     1.0000 0.56580  0.09400  0.18660  Biso   1.000  H
  H148     1.0000 0.93420  0.40600  0.18660  Biso   1.000  H
  H149     1.0000 0.31580  0.65600  0.43660  Biso   1.000  H
  H150     1.0000 0.68420  0.34400  0.43660  Biso   1.000  H
  H151     1.0000 0.56580  0.59400  0.68660  Biso   1.000  H
  H152     1.0000 0.93420  0.90600  0.68660  Biso   1.000  H
  H153     1.0000 0.81580  0.15600  0.43660  Biso   1.000  H
  H154     1.0000 0.18420  0.84400  0.43660  Biso   1.000  H
  H155     1.0000 0.06580  0.09400  0.68660  Biso   1.000  H
  H156     1.0000 0.43420  0.40600  0.68660  Biso   1.000  H
  H157     1.0000 0.81580  0.65600  0.93660  Biso   1.000  H
  H158     1.0000 0.18420  0.34400  0.93660  Biso   1.000  H
  H159     1.0000 0.06580  0.59400  0.18660  Biso   1.000  H
  H160     1.0000 0.43420  0.90600  0.18660  Biso   1.000  H
  C225     1.0000 0.28759  0.20362  0.81380  Biso   1.000  C
  C226     1.0000 0.71241  0.79638  0.81380  Biso   1.000  C
  C227     1.0000 0.53759  0.04638  0.06380  Biso   1.000  C
  C228     1.0000 0.96241  0.45362  0.06380  Biso   1.000  C
  C229     1.0000 0.28759  0.70362  0.31380  Biso   1.000  C
  C230     1.0000 0.71241  0.29638  0.31380  Biso   1.000  C
  C231     1.0000 0.53759  0.54638  0.56380  Biso   1.000  C
  C232     1.0000 0.96241  0.95362  0.56380  Biso   1.000  C
  C233     1.0000 0.78759  0.20362  0.31380  Biso   1.000  C
  C234     1.0000 0.21241  0.79638  0.31380  Biso   1.000  C
  C235     1.0000 0.03759  0.04638  0.56380  Biso   1.000  C
  C236     1.0000 0.46241  0.45362  0.56380  Biso   1.000  C
  C237     1.0000 0.78759  0.70362  0.81380  Biso   1.000  C
  C238     1.0000 0.21241  0.29638  0.81380  Biso   1.000  C
  C239     1.0000 0.03759  0.54638  0.06380  Biso   1.000  C
  C240     1.0000 0.46241  0.95362  0.06380  Biso   1.000  C
  H161     1.0000 0.30110  0.23250  0.84880  Biso   1.000  H
  H162     1.0000 0.69890  0.76750  0.84880  Biso   1.000  H
  H163     1.0000 0.55110  0.01750  0.09880  Biso   1.000  H
  H164     1.0000 0.94890  0.48250  0.09880  Biso   1.000  H
  H165     1.0000 0.30110  0.73250  0.34880  Biso   1.000  H
  H166     1.0000 0.69890  0.26750  0.34880  Biso   1.000  H
  H167     1.0000 0.55110  0.51750  0.59880  Biso   1.000  H
  H168     1.0000 0.94890  0.98250  0.59880  Biso   1.000  H
  H169     1.0000 0.80110  0.23250  0.34880  Biso   1.000  H
  H170     1.0000 0.19890  0.76750  0.34880  Biso   1.000  H
  H171     1.0000 0.05110  0.01750  0.59880  Biso   1.000  H
  H172     1.0000 0.44890  0.48250  0.59880  Biso   1.000  H
  H173     1.0000 0.80110  0.73250  0.84880  Biso   1.000  H
  H174     1.0000 0.19890  0.26750  0.84880  Biso   1.000  H
  H175     1.0000 0.05110  0.51750  0.09880  Biso   1.000  H
  H176     1.0000 0.44890  0.98250  0.09880  Biso   1.000  H
  C241     1.0000 0.25858  0.20585  0.70990  Biso   1.000  C
  C242     1.0000 0.74142  0.79415  0.70990  Biso   1.000  C
  C243     1.0000 0.50858  0.04415  0.95990  Biso   1.000  C
  C244     1.0000 0.99142  0.45585  0.95990  Biso   1.000  C
  C245     1.0000 0.25858  0.70585  0.20990  Biso   1.000  C
  C246     1.0000 0.74142  0.29415  0.20990  Biso   1.000  C
  C247     1.0000 0.50858  0.54415  0.45990  Biso   1.000  C
  C248     1.0000 0.99142  0.95585  0.45990  Biso   1.000  C
  C249     1.0000 0.75858  0.20585  0.20990  Biso   1.000  C
  C250     1.0000 0.24142  0.79415  0.20990  Biso   1.000  C
  C251     1.0000 0.00858  0.04415  0.45990  Biso   1.000  C
  C252     1.0000 0.49142  0.45585  0.45990  Biso   1.000  C
  C253     1.0000 0.75858  0.70585  0.70990  Biso   1.000  C
  C254     1.0000 0.24142  0.29415  0.70990  Biso   1.000  C
  C255     1.0000 0.00858  0.54415  0.95990  Biso   1.000  C
  C256     1.0000 0.49142  0.95585  0.95990  Biso   1.000  C
  C257     1.0000 0.23387  0.07069  0.63880  Biso   1.000  C
  C258     1.0000 0.76613  0.92931  0.63880  Biso   1.000  C
  C259     1.0000 0.48387  0.17931  0.88880  Biso   1.000  C
  C260     1.0000 0.01613  0.32069  0.88880  Biso   1.000  C
  C261     1.0000 0.23387  0.57069  0.13880  Biso   1.000  C
  C262     1.0000 0.76613  0.42931  0.13880  Biso   1.000  C
  C263     1.0000 0.48387  0.67931  0.38880  Biso   1.000  C
  C264     1.0000 0.01613  0.82069  0.38880  Biso   1.000  C
  C265     1.0000 0.73387  0.07069  0.13880  Biso   1.000  C
  C266     1.0000 0.26613  0.92931  0.13880  Biso   1.000  C
  C267     1.0000 0.98387  0.17931  0.38880  Biso   1.000  C
  C268     1.0000 0.51613  0.32069  0.38880  Biso   1.000  C
  C269     1.0000 0.73387  0.57069  0.63880  Biso   1.000  C
  C270     1.0000 0.26613  0.42931  0.63880  Biso   1.000  C
  C271     1.0000 0.98387  0.67931  0.88880  Biso   1.000  C
  C272     1.0000 0.51613  0.82069  0.88880  Biso   1.000  C
  C273     1.0000 0.28260  0.06559  0.87750  Biso   1.000  C
  C274     1.0000 0.71740  0.93441  0.87750  Biso   1.000  C
  C275     1.0000 0.53260  0.18441  0.12750  Biso   1.000  C
  C276     1.0000 0.96740  0.31559  0.12750  Biso   1.000  C
  C277     1.0000 0.28260  0.56559  0.37750  Biso   1.000  C
  C278     1.0000 0.71740  0.43441  0.37750  Biso   1.000  C
  C279     1.0000 0.53260  0.68441  0.62750  Biso   1.000  C
  C280     1.0000 0.96740  0.81559  0.62750  Biso   1.000  C
  C281     1.0000 0.78260  0.06559  0.37750  Biso   1.000  C
  C282     1.0000 0.21740  0.93441  0.37750  Biso   1.000  C
  C283     1.0000 0.03260  0.18441  0.62750  Biso   1.000  C
  C284     1.0000 0.46740  0.31559  0.62750  Biso   1.000  C
  C285     1.0000 0.78260  0.56559  0.87750  Biso   1.000  C
  C286     1.0000 0.21740  0.43441  0.87750  Biso   1.000  C
  C287     1.0000 0.03260  0.68441  0.12750  Biso   1.000  C
  C288     1.0000 0.46740  0.81559  0.12750  Biso   1.000  C
