data_image0
_cell_length_a       12.6075
_cell_length_b       12.6075
_cell_length_c       9.1944
_cell_angle_alpha    90
_cell_angle_beta     90
_cell_angle_gamma    90

_symmetry_space_group_name_H-M    "P 1"
_symmetry_int_tables_number       1

loop_
  _symmetry_equiv_pos_as_xyz
  'x, y, z'

loop_
  _atom_site_label
  _atom_site_occupancy
  _atom_site_fract_x
  _atom_site_fract_y
  _atom_site_fract_z
  _atom_site_thermal_displace_type
  _atom_site_B_iso_or_equiv
  _atom_site_type_symbol
  Cu1      1.0000 0.10489  0.24928  0.02723  Biso   1.000  Cu
  Cu2      1.0000 0.89511  0.75072  0.02723  Biso   1.000  Cu
  Cu3      1.0000 0.24928  0.89511  0.97277  Biso   1.000  Cu
  Cu4      1.0000 0.75072  0.10489  0.97277  Biso   1.000  Cu
  Cu5      1.0000 0.39511  0.74928  0.47277  Biso   1.000  Cu
  Cu6      1.0000 0.60489  0.25072  0.47277  Biso   1.000  Cu
  Cu7      1.0000 0.25072  0.39511  0.52723  Biso   1.000  Cu
  Cu8      1.0000 0.74928  0.60489  0.52723  Biso   1.000  Cu
  C1       1.0000 0.94330  0.41840  0.02490  Biso   1.000  C
  C2       1.0000 0.05670  0.58160  0.02490  Biso   1.000  C
  C3       1.0000 0.41840  0.05670  0.97510  Biso   1.000  C
  C4       1.0000 0.58160  0.94330  0.97510  Biso   1.000  C
  C5       1.0000 0.55670  0.91840  0.47510  Biso   1.000  C
  C6       1.0000 0.44330  0.08160  0.47510  Biso   1.000  C
  C7       1.0000 0.08160  0.55670  0.52490  Biso   1.000  C
  C8       1.0000 0.91840  0.44330  0.52490  Biso   1.000  C
  H1       1.0000 0.89590  0.36190  0.02470  Biso   1.000  H
  H2       1.0000 0.10410  0.63810  0.02470  Biso   1.000  H
  H3       1.0000 0.36190  0.10410  0.97530  Biso   1.000  H
  H4       1.0000 0.63810  0.89590  0.97530  Biso   1.000  H
  H5       1.0000 0.60410  0.86190  0.47530  Biso   1.000  H
  H6       1.0000 0.39590  0.13810  0.47530  Biso   1.000  H
  H7       1.0000 0.13810  0.60410  0.52470  Biso   1.000  H
  H8       1.0000 0.86190  0.39590  0.52470  Biso   1.000  H
  C9       1.0000 0.90280  0.52020  0.02620  Biso   1.000  C
  C10      1.0000 0.09720  0.47980  0.02620  Biso   1.000  C
  C11      1.0000 0.52020  0.09720  0.97380  Biso   1.000  C
  C12      1.0000 0.47980  0.90280  0.97380  Biso   1.000  C
  C13      1.0000 0.59720  0.02020  0.47380  Biso   1.000  C
  C14      1.0000 0.40280  0.97980  0.47380  Biso   1.000  C
  C15      1.0000 0.97980  0.59720  0.52620  Biso   1.000  C
  C16      1.0000 0.02020  0.40280  0.52620  Biso   1.000  C
  H9       1.0000 0.82950  0.52860  0.02890  Biso   1.000  H
  H10      1.0000 0.17050  0.47140  0.02890  Biso   1.000  H
  H11      1.0000 0.52860  0.17050  0.97110  Biso   1.000  H
  H12      1.0000 0.47140  0.82950  0.97110  Biso   1.000  H
  H13      1.0000 0.67050  0.02860  0.47110  Biso   1.000  H
  H14      1.0000 0.32950  0.97140  0.47110  Biso   1.000  H
  H15      1.0000 0.97140  0.67050  0.52890  Biso   1.000  H
  H16      1.0000 0.02860  0.32950  0.52890  Biso   1.000  H
  C17      1.0000 0.94920  0.16840  0.84550  Biso   1.000  C
  C18      1.0000 0.05080  0.83160  0.84550  Biso   1.000  C
  C19      1.0000 0.16840  0.05080  0.15450  Biso   1.000  C
  C20      1.0000 0.83160  0.94920  0.15450  Biso   1.000  C
  C21      1.0000 0.55080  0.66840  0.65450  Biso   1.000  C
  C22      1.0000 0.44920  0.33160  0.65450  Biso   1.000  C
  C23      1.0000 0.33160  0.55080  0.34550  Biso   1.000  C
  C24      1.0000 0.66840  0.44920  0.34550  Biso   1.000  C
  C25      1.0000 0.90300  0.13060  0.70270  Biso   1.000  C
  C26      1.0000 0.09700  0.86940  0.70270  Biso   1.000  C
  C27      1.0000 0.13060  0.09700  0.29730  Biso   1.000  C
  C28      1.0000 0.86940  0.90300  0.29730  Biso   1.000  C
  C29      1.0000 0.59700  0.63060  0.79730  Biso   1.000  C
  C30      1.0000 0.40300  0.36940  0.79730  Biso   1.000  C
  C31      1.0000 0.36940  0.59700  0.20270  Biso   1.000  C
  C32      1.0000 0.63060  0.40300  0.20270  Biso   1.000  C
  H17      1.0000 0.94650  0.15790  0.62410  Biso   1.000  H
  H18      1.0000 0.05350  0.84210  0.62410  Biso   1.000  H
  H19      1.0000 0.15790  0.05350  0.37590  Biso   1.000  H
  H20      1.0000 0.84210  0.94650  0.37590  Biso   1.000  H
  H21      1.0000 0.55350  0.65790  0.87590  Biso   1.000  H
  H22      1.0000 0.44650  0.34210  0.87590  Biso   1.000  H
  H23      1.0000 0.34210  0.55350  0.12410  Biso   1.000  H
  H24      1.0000 0.65790  0.44650  0.12410  Biso   1.000  H
  H25      1.0000 0.90750  0.05380  0.69970  Biso   1.000  H
  H26      1.0000 0.09250  0.94620  0.69970  Biso   1.000  H
  H27      1.0000 0.05380  0.09250  0.30030  Biso   1.000  H
  H28      1.0000 0.94620  0.90750  0.30030  Biso   1.000  H
  H29      1.0000 0.59250  0.55380  0.80030  Biso   1.000  H
  H30      1.0000 0.40750  0.44620  0.80030  Biso   1.000  H
  H31      1.0000 0.44620  0.59250  0.19970  Biso   1.000  H
  H32      1.0000 0.55380  0.40750  0.19970  Biso   1.000  H
  C33      1.0000 0.78940  0.16260  0.67530  Biso   1.000  C
  C34      1.0000 0.21060  0.83740  0.67530  Biso   1.000  C
  C35      1.0000 0.16260  0.21060  0.32470  Biso   1.000  C
  C36      1.0000 0.83740  0.78940  0.32470  Biso   1.000  C
  C37      1.0000 0.71060  0.66260  0.82470  Biso   1.000  C
  C38      1.0000 0.28940  0.33740  0.82470  Biso   1.000  C
  C39      1.0000 0.33740  0.71060  0.17530  Biso   1.000  C
  C40      1.0000 0.66260  0.28940  0.17530  Biso   1.000  C
  N1       1.0000 0.04060  0.39820  0.02390  Biso   1.000  N
  N2       1.0000 0.95940  0.60180  0.02390  Biso   1.000  N
  N3       1.0000 0.39820  0.95940  0.97610  Biso   1.000  N
  N4       1.0000 0.60180  0.04060  0.97610  Biso   1.000  N
  N5       1.0000 0.45940  0.89820  0.47610  Biso   1.000  N
  N6       1.0000 0.54060  0.10180  0.47610  Biso   1.000  N
  N7       1.0000 0.10180  0.45940  0.52390  Biso   1.000  N
  N8       1.0000 0.89820  0.54060  0.52390  Biso   1.000  N
  O1       1.0000 0.03830  0.21300  0.84170  Biso   1.000  O
  O2       1.0000 0.96170  0.78700  0.84170  Biso   1.000  O
  O3       1.0000 0.21300  0.96170  0.15830  Biso   1.000  O
  O4       1.0000 0.78700  0.03830  0.15830  Biso   1.000  O
  O5       1.0000 0.46170  0.71300  0.65830  Biso   1.000  O
  O6       1.0000 0.53830  0.28700  0.65830  Biso   1.000  O
  O7       1.0000 0.28700  0.46170  0.34170  Biso   1.000  O
  O8       1.0000 0.71300  0.53830  0.34170  Biso   1.000  O
  O9       1.0000 0.76510  0.19790  0.55310  Biso   1.000  O
  O10      1.0000 0.23490  0.80210  0.55310  Biso   1.000  O
  O11      1.0000 0.19790  0.23490  0.44690  Biso   1.000  O
  O12      1.0000 0.80210  0.76510  0.44690  Biso   1.000  O
  O13      1.0000 0.73490  0.69790  0.94690  Biso   1.000  O
  O14      1.0000 0.26510  0.30210  0.94690  Biso   1.000  O
  O15      1.0000 0.30210  0.73490  0.05310  Biso   1.000  O
  O16      1.0000 0.69790  0.26510  0.05310  Biso   1.000  O
  O17      1.0000 0.89800  0.15590  0.96260  Biso   1.000  O
  O18      1.0000 0.10200  0.84410  0.96260  Biso   1.000  O
  O19      1.0000 0.15590  0.10200  0.03740  Biso   1.000  O
  O20      1.0000 0.84410  0.89800  0.03740  Biso   1.000  O
  O21      1.0000 0.60200  0.65590  0.53740  Biso   1.000  O
  O22      1.0000 0.39800  0.34410  0.53740  Biso   1.000  O
  O23      1.0000 0.34410  0.60200  0.46260  Biso   1.000  O
  O24      1.0000 0.65590  0.39800  0.46260  Biso   1.000  O
  O25      1.0000 0.72200  0.15030  0.77650  Biso   1.000  O
  O26      1.0000 0.27800  0.84970  0.77650  Biso   1.000  O
  O27      1.0000 0.15030  0.27800  0.22350  Biso   1.000  O
  O28      1.0000 0.84970  0.72200  0.22350  Biso   1.000  O
  O29      1.0000 0.77800  0.65030  0.72350  Biso   1.000  O
  O30      1.0000 0.22200  0.34970  0.72350  Biso   1.000  O
  O31      1.0000 0.34970  0.77800  0.27650  Biso   1.000  O
  O32      1.0000 0.65030  0.22200  0.27650  Biso   1.000  O
  O33      1.0000 0.90110  0.22310  0.31060  Biso   1.000  O
  O34      1.0000 0.09890  0.77690  0.31060  Biso   1.000  O
  O35      1.0000 0.22310  0.09890  0.68940  Biso   1.000  O
  O36      1.0000 0.77690  0.90110  0.68940  Biso   1.000  O
  O37      1.0000 0.59890  0.72310  0.18940  Biso   1.000  O
  O38      1.0000 0.40110  0.27690  0.18940  Biso   1.000  O
  O39      1.0000 0.27690  0.59890  0.81060  Biso   1.000  O
  O40      1.0000 0.72310  0.40110  0.81060  Biso   1.000  O
