data_image0
_cell_length_a       12.5982
_cell_length_b       12.5982
_cell_length_c       9.195
_cell_angle_alpha    90
_cell_angle_beta     90
_cell_angle_gamma    90

_symmetry_space_group_name_H-M    "P 1"
_symmetry_int_tables_number       1

loop_
  _symmetry_equiv_pos_as_xyz
  'x, y, z'

loop_
  _atom_site_label
  _atom_site_occupancy
  _atom_site_fract_x
  _atom_site_fract_y
  _atom_site_fract_z
  _atom_site_thermal_displace_type
  _atom_site_B_iso_or_equiv
  _atom_site_type_symbol
  Cu1      1.0000 0.24938  0.10497  0.97263  Biso   1.000  Cu
  Cu2      1.0000 0.75062  0.89503  0.97263  Biso   1.000  Cu
  Cu3      1.0000 0.10497  0.75062  0.02737  Biso   1.000  Cu
  Cu4      1.0000 0.89503  0.24938  0.02737  Biso   1.000  Cu
  Cu5      1.0000 0.25062  0.60497  0.52737  Biso   1.000  Cu
  Cu6      1.0000 0.74938  0.39503  0.52737  Biso   1.000  Cu
  Cu7      1.0000 0.39503  0.25062  0.47263  Biso   1.000  Cu
  Cu8      1.0000 0.60497  0.74938  0.47263  Biso   1.000  Cu
  O1       1.0000 0.34450  0.39860  0.46250  Biso   1.000  O
  O2       1.0000 0.65550  0.60140  0.46250  Biso   1.000  O
  O3       1.0000 0.39860  0.65550  0.53750  Biso   1.000  O
  O4       1.0000 0.60140  0.34450  0.53750  Biso   1.000  O
  O5       1.0000 0.15550  0.89860  0.03750  Biso   1.000  O
  O6       1.0000 0.84450  0.10140  0.03750  Biso   1.000  O
  O7       1.0000 0.10140  0.15550  0.96250  Biso   1.000  O
  O8       1.0000 0.89860  0.84450  0.96250  Biso   1.000  O
  O9       1.0000 0.28800  0.53780  0.34200  Biso   1.000  O
  O10      1.0000 0.71200  0.46220  0.34200  Biso   1.000  O
  O11      1.0000 0.53780  0.71200  0.65800  Biso   1.000  O
  O12      1.0000 0.46220  0.28800  0.65800  Biso   1.000  O
  O13      1.0000 0.21200  0.03780  0.15800  Biso   1.000  O
  O14      1.0000 0.78800  0.96220  0.15800  Biso   1.000  O
  O15      1.0000 0.96220  0.21200  0.84200  Biso   1.000  O
  O16      1.0000 0.03780  0.78800  0.84200  Biso   1.000  O
  O17      1.0000 0.30180  0.26530  0.05320  Biso   1.000  O
  O18      1.0000 0.69820  0.73470  0.05320  Biso   1.000  O
  O19      1.0000 0.26530  0.69820  0.94680  Biso   1.000  O
  O20      1.0000 0.73470  0.30180  0.94680  Biso   1.000  O
  O21      1.0000 0.19820  0.76530  0.44680  Biso   1.000  O
  O22      1.0000 0.80180  0.23470  0.44680  Biso   1.000  O
  O23      1.0000 0.23470  0.19820  0.55320  Biso   1.000  O
  O24      1.0000 0.76530  0.80180  0.55320  Biso   1.000  O
  O25      1.0000 0.27820  0.15190  0.77600  Biso   1.000  O
  O26      1.0000 0.72180  0.84810  0.77600  Biso   1.000  O
  O27      1.0000 0.15190  0.72180  0.22400  Biso   1.000  O
  O28      1.0000 0.84810  0.27820  0.22400  Biso   1.000  O
  O29      1.0000 0.22180  0.65190  0.72400  Biso   1.000  O
  O30      1.0000 0.77820  0.34810  0.72400  Biso   1.000  O
  O31      1.0000 0.34810  0.22180  0.27600  Biso   1.000  O
  O32      1.0000 0.65190  0.77820  0.27600  Biso   1.000  O
  N1       1.0000 0.60250  0.95790  0.97600  Biso   1.000  N
  N2       1.0000 0.39750  0.04210  0.97600  Biso   1.000  N
  N3       1.0000 0.95790  0.39750  0.02400  Biso   1.000  N
  N4       1.0000 0.04210  0.60250  0.02400  Biso   1.000  N
  N5       1.0000 0.89750  0.45790  0.52400  Biso   1.000  N
  N6       1.0000 0.10250  0.54210  0.52400  Biso   1.000  N
  N7       1.0000 0.54210  0.89750  0.47600  Biso   1.000  N
  N8       1.0000 0.45790  0.10250  0.47600  Biso   1.000  N
  C1       1.0000 0.33200  0.44870  0.34430  Biso   1.000  C
  C2       1.0000 0.66800  0.55130  0.34430  Biso   1.000  C
  C3       1.0000 0.44870  0.66800  0.65570  Biso   1.000  C
  C4       1.0000 0.55130  0.33200  0.65570  Biso   1.000  C
  C5       1.0000 0.16800  0.94870  0.15570  Biso   1.000  C
  C6       1.0000 0.83200  0.05130  0.15570  Biso   1.000  C
  C7       1.0000 0.05130  0.16800  0.84430  Biso   1.000  C
  C8       1.0000 0.94870  0.83200  0.84430  Biso   1.000  C
  C9       1.0000 0.37010  0.40300  0.20380  Biso   1.000  C
  C10      1.0000 0.62990  0.59700  0.20380  Biso   1.000  C
  C11      1.0000 0.40300  0.62990  0.79620  Biso   1.000  C
  C12      1.0000 0.59700  0.37010  0.79620  Biso   1.000  C
  C13      1.0000 0.12990  0.90300  0.29620  Biso   1.000  C
  C14      1.0000 0.87010  0.09700  0.29620  Biso   1.000  C
  C15      1.0000 0.09700  0.12990  0.70380  Biso   1.000  C
  C16      1.0000 0.90300  0.87010  0.70380  Biso   1.000  C
  H1       1.0000 0.44700  0.40670  0.20180  Biso   1.000  H
  H2       1.0000 0.55300  0.59330  0.20180  Biso   1.000  H
  H3       1.0000 0.40670  0.55300  0.79820  Biso   1.000  H
  H4       1.0000 0.59330  0.44700  0.79820  Biso   1.000  H
  H5       1.0000 0.05300  0.90670  0.29820  Biso   1.000  H
  H6       1.0000 0.94700  0.09330  0.29820  Biso   1.000  H
  H7       1.0000 0.09330  0.05300  0.70180  Biso   1.000  H
  H8       1.0000 0.90670  0.94700  0.70180  Biso   1.000  H
  H9       1.0000 0.34370  0.44670  0.12480  Biso   1.000  H
  H10      1.0000 0.65630  0.55330  0.12480  Biso   1.000  H
  H11      1.0000 0.44670  0.65630  0.87520  Biso   1.000  H
  H12      1.0000 0.55330  0.34370  0.87520  Biso   1.000  H
  H13      1.0000 0.15630  0.94670  0.37520  Biso   1.000  H
  H14      1.0000 0.84370  0.05330  0.37520  Biso   1.000  H
  H15      1.0000 0.05330  0.15630  0.62480  Biso   1.000  H
  H16      1.0000 0.94670  0.84370  0.62480  Biso   1.000  H
  C17      1.0000 0.33670  0.28940  0.17700  Biso   1.000  C
  C18      1.0000 0.66330  0.71060  0.17700  Biso   1.000  C
  C19      1.0000 0.28940  0.66330  0.82300  Biso   1.000  C
  C20      1.0000 0.71060  0.33670  0.82300  Biso   1.000  C
  C21      1.0000 0.16330  0.78940  0.32300  Biso   1.000  C
  C22      1.0000 0.83670  0.21060  0.32300  Biso   1.000  C
  C23      1.0000 0.21060  0.16330  0.67700  Biso   1.000  C
  C24      1.0000 0.78940  0.83670  0.67700  Biso   1.000  C
  C25      1.0000 0.58010  0.05330  0.98100  Biso   1.000  C
  C26      1.0000 0.41990  0.94670  0.98100  Biso   1.000  C
  C27      1.0000 0.05330  0.41990  0.01900  Biso   1.000  C
  C28      1.0000 0.94670  0.58010  0.01900  Biso   1.000  C
  C29      1.0000 0.91990  0.55330  0.51900  Biso   1.000  C
  C30      1.0000 0.08010  0.44670  0.51900  Biso   1.000  C
  C31      1.0000 0.44670  0.91990  0.48100  Biso   1.000  C
  C32      1.0000 0.55330  0.08010  0.48100  Biso   1.000  C
  H17      1.0000 0.63550  0.10110  0.99480  Biso   1.000  H
  H18      1.0000 0.36450  0.89890  0.99480  Biso   1.000  H
  H19      1.0000 0.10110  0.36450  0.00520  Biso   1.000  H
  H20      1.0000 0.89890  0.63550  0.00520  Biso   1.000  H
  H21      1.0000 0.86450  0.60110  0.50520  Biso   1.000  H
  H22      1.0000 0.13550  0.39890  0.50520  Biso   1.000  H
  H23      1.0000 0.39890  0.86450  0.49480  Biso   1.000  H
  H24      1.0000 0.60110  0.13550  0.49480  Biso   1.000  H
  C33      1.0000 0.47840  0.09470  0.96660  Biso   1.000  C
  C34      1.0000 0.52160  0.90530  0.96660  Biso   1.000  C
  C35      1.0000 0.09470  0.52160  0.03340  Biso   1.000  C
  C36      1.0000 0.90530  0.47840  0.03340  Biso   1.000  C
  C37      1.0000 0.02160  0.59470  0.53340  Biso   1.000  C
  C38      1.0000 0.97840  0.40530  0.53340  Biso   1.000  C
  C39      1.0000 0.40530  0.02160  0.46660  Biso   1.000  C
  C40      1.0000 0.59470  0.97840  0.46660  Biso   1.000  C
  H25      1.0000 0.52840  0.83300  0.94880  Biso   1.000  H
  H26      1.0000 0.47160  0.16700  0.94880  Biso   1.000  H
  H27      1.0000 0.83300  0.47160  0.05120  Biso   1.000  H
  H28      1.0000 0.16700  0.52840  0.05120  Biso   1.000  H
  H29      1.0000 0.97160  0.33300  0.55120  Biso   1.000  H
  H30      1.0000 0.02840  0.66700  0.55120  Biso   1.000  H
  H31      1.0000 0.66700  0.97160  0.44880  Biso   1.000  H
  H32      1.0000 0.33300  0.02840  0.44880  Biso   1.000  H
  O33      1.0000 0.40250  0.72200  0.18950  Biso   1.000  O
  O34      1.0000 0.59750  0.27800  0.18950  Biso   1.000  O
  O35      1.0000 0.72200  0.59750  0.81050  Biso   1.000  O
  O36      1.0000 0.27800  0.40250  0.81050  Biso   1.000  O
  O37      1.0000 0.09750  0.22200  0.31050  Biso   1.000  O
  O38      1.0000 0.90250  0.77800  0.31050  Biso   1.000  O
  O39      1.0000 0.77800  0.09750  0.68950  Biso   1.000  O
  O40      1.0000 0.22200  0.90250  0.68950  Biso   1.000  O
  H33      1.0000 0.36100  0.69200  0.24100  Biso   1.000  H
  H34      1.0000 0.63900  0.30800  0.24100  Biso   1.000  H
  H35      1.0000 0.69200  0.63900  0.75900  Biso   1.000  H
  H36      1.0000 0.30800  0.36100  0.75900  Biso   1.000  H
  H37      1.0000 0.13900  0.19200  0.25900  Biso   1.000  H
  H38      1.0000 0.86100  0.80800  0.25900  Biso   1.000  H
  H39      1.0000 0.80800  0.13900  0.74100  Biso   1.000  H
  H40      1.0000 0.19200  0.86100  0.74100  Biso   1.000  H
  H41      1.0000 0.37000  0.74600  0.15800  Biso   1.000  H
  H42      1.0000 0.63000  0.25400  0.15800  Biso   1.000  H
  H43      1.0000 0.74600  0.63000  0.84200  Biso   1.000  H
  H44      1.0000 0.25400  0.37000  0.84200  Biso   1.000  H
  H45      1.0000 0.13000  0.24600  0.34200  Biso   1.000  H
  H46      1.0000 0.87000  0.75400  0.34200  Biso   1.000  H
  H47      1.0000 0.75400  0.13000  0.65800  Biso   1.000  H
  H48      1.0000 0.24600  0.87000  0.65800  Biso   1.000  H
