data_image0
_cell_length_a       12.59
_cell_length_b       12.59
_cell_length_c       9.188
_cell_angle_alpha    90
_cell_angle_beta     90
_cell_angle_gamma    90

_symmetry_space_group_name_H-M    "P 1"
_symmetry_int_tables_number       1

loop_
  _symmetry_equiv_pos_as_xyz
  'x, y, z'

loop_
  _atom_site_label
  _atom_site_occupancy
  _atom_site_fract_x
  _atom_site_fract_y
  _atom_site_fract_z
  _atom_site_thermal_displace_type
  _atom_site_B_iso_or_equiv
  _atom_site_type_symbol
  Cu1      1.0000 0.60493  0.25070  0.02721  Biso   1.000  Cu
  Cu2      1.0000 0.39507  0.74930  0.02721  Biso   1.000  Cu
  Cu3      1.0000 0.25070  0.39507  0.97279  Biso   1.000  Cu
  Cu4      1.0000 0.74930  0.60493  0.97279  Biso   1.000  Cu
  Cu5      1.0000 0.89507  0.75070  0.47279  Biso   1.000  Cu
  Cu6      1.0000 0.10493  0.24930  0.47279  Biso   1.000  Cu
  Cu7      1.0000 0.24930  0.89507  0.52721  Biso   1.000  Cu
  Cu8      1.0000 0.75070  0.10493  0.52721  Biso   1.000  Cu
  C1       1.0000 0.66880  0.44820  0.15510  Biso   1.000  C
  C2       1.0000 0.33120  0.55180  0.15510  Biso   1.000  C
  C3       1.0000 0.44820  0.33120  0.84490  Biso   1.000  C
  C4       1.0000 0.55180  0.66880  0.84490  Biso   1.000  C
  C5       1.0000 0.83120  0.94820  0.34490  Biso   1.000  C
  C6       1.0000 0.16880  0.05180  0.34490  Biso   1.000  C
  C7       1.0000 0.05180  0.83120  0.65510  Biso   1.000  C
  C8       1.0000 0.94820  0.16880  0.65510  Biso   1.000  C
  C9       1.0000 0.63050  0.40370  0.29780  Biso   1.000  C
  C10      1.0000 0.36950  0.59630  0.29780  Biso   1.000  C
  C11      1.0000 0.40370  0.36950  0.70220  Biso   1.000  C
  C12      1.0000 0.59630  0.63050  0.70220  Biso   1.000  C
  C13      1.0000 0.86950  0.90370  0.20220  Biso   1.000  C
  C14      1.0000 0.13050  0.09630  0.20220  Biso   1.000  C
  C15      1.0000 0.09630  0.86950  0.79780  Biso   1.000  C
  C16      1.0000 0.90370  0.13050  0.79780  Biso   1.000  C
  C17      1.0000 0.66290  0.28880  0.32420  Biso   1.000  C
  C18      1.0000 0.33710  0.71120  0.32420  Biso   1.000  C
  C19      1.0000 0.28880  0.33710  0.67580  Biso   1.000  C
  C20      1.0000 0.71120  0.66290  0.67580  Biso   1.000  C
  C21      1.0000 0.83710  0.78880  0.17580  Biso   1.000  C
  C22      1.0000 0.16290  0.21120  0.17580  Biso   1.000  C
  C23      1.0000 0.21120  0.83710  0.82420  Biso   1.000  C
  C24      1.0000 0.78880  0.16290  0.82420  Biso   1.000  C
  C25      1.0000 0.59670  0.02100  0.03200  Biso   1.000  C
  C26      1.0000 0.40330  0.97900  0.03200  Biso   1.000  C
  C27      1.0000 0.02100  0.40330  0.96800  Biso   1.000  C
  C28      1.0000 0.97900  0.59670  0.96800  Biso   1.000  C
  C29      1.0000 0.90330  0.52100  0.46800  Biso   1.000  C
  C30      1.0000 0.09670  0.47900  0.46800  Biso   1.000  C
  C31      1.0000 0.47900  0.90330  0.53200  Biso   1.000  C
  C32      1.0000 0.52100  0.09670  0.53200  Biso   1.000  C
  H1       1.0000 0.66940  0.02950  0.04600  Biso   1.000  H
  H2       1.0000 0.33060  0.97050  0.04600  Biso   1.000  H
  H3       1.0000 0.02950  0.33060  0.95400  Biso   1.000  H
  H4       1.0000 0.97050  0.66940  0.95400  Biso   1.000  H
  H5       1.0000 0.83060  0.52950  0.45400  Biso   1.000  H
  H6       1.0000 0.16940  0.47050  0.45400  Biso   1.000  H
  H7       1.0000 0.47050  0.83060  0.54600  Biso   1.000  H
  H8       1.0000 0.52950  0.16940  0.54600  Biso   1.000  H
  C33      1.0000 0.55610  0.91760  0.02210  Biso   1.000  C
  C34      1.0000 0.44390  0.08240  0.02210  Biso   1.000  C
  C35      1.0000 0.91760  0.44390  0.97790  Biso   1.000  C
  C36      1.0000 0.08240  0.55610  0.97790  Biso   1.000  C
  C37      1.0000 0.94390  0.41760  0.47790  Biso   1.000  C
  C38      1.0000 0.05610  0.58240  0.47790  Biso   1.000  C
  C39      1.0000 0.58240  0.94390  0.52210  Biso   1.000  C
  C40      1.0000 0.41760  0.05610  0.52210  Biso   1.000  C
  H9       1.0000 0.60360  0.86140  0.01350  Biso   1.000  H
  H10      1.0000 0.39640  0.13860  0.01350  Biso   1.000  H
  H11      1.0000 0.86140  0.39640  0.98650  Biso   1.000  H
  H12      1.0000 0.13860  0.60360  0.98650  Biso   1.000  H
  H13      1.0000 0.89640  0.36140  0.48650  Biso   1.000  H
  H14      1.0000 0.10360  0.63860  0.48650  Biso   1.000  H
  H15      1.0000 0.63860  0.89640  0.51350  Biso   1.000  H
  H16      1.0000 0.36140  0.10360  0.51350  Biso   1.000  H
  N1       1.0000 0.54050  0.10220  0.02390  Biso   1.000  N
  N2       1.0000 0.45950  0.89780  0.02390  Biso   1.000  N
  N3       1.0000 0.10220  0.45950  0.97610  Biso   1.000  N
  N4       1.0000 0.89780  0.54050  0.97610  Biso   1.000  N
  N5       1.0000 0.95950  0.60220  0.47610  Biso   1.000  N
  N6       1.0000 0.04050  0.39780  0.47610  Biso   1.000  N
  N7       1.0000 0.39780  0.95950  0.52390  Biso   1.000  N
  N8       1.0000 0.60220  0.04050  0.52390  Biso   1.000  N
  O1       1.0000 0.65590  0.39800  0.03720  Biso   1.000  O
  O2       1.0000 0.34410  0.60200  0.03720  Biso   1.000  O
  O3       1.0000 0.39800  0.34410  0.96280  Biso   1.000  O
  O4       1.0000 0.60200  0.65590  0.96280  Biso   1.000  O
  O5       1.0000 0.84410  0.89800  0.46280  Biso   1.000  O
  O6       1.0000 0.15590  0.10200  0.46280  Biso   1.000  O
  O7       1.0000 0.10200  0.84410  0.53720  Biso   1.000  O
  O8       1.0000 0.89800  0.15590  0.53720  Biso   1.000  O
  O9       1.0000 0.71250  0.53820  0.15820  Biso   1.000  O
  O10      1.0000 0.28750  0.46180  0.15820  Biso   1.000  O
  O11      1.0000 0.53820  0.28750  0.84180  Biso   1.000  O
  O12      1.0000 0.46180  0.71250  0.84180  Biso   1.000  O
  O13      1.0000 0.78750  0.03820  0.34180  Biso   1.000  O
  O14      1.0000 0.21250  0.96180  0.34180  Biso   1.000  O
  O15      1.0000 0.96180  0.78750  0.65820  Biso   1.000  O
  O16      1.0000 0.03820  0.21250  0.65820  Biso   1.000  O
  O17      1.0000 0.65100  0.22210  0.22370  Biso   1.000  O
  O18      1.0000 0.34900  0.77790  0.22370  Biso   1.000  O
  O19      1.0000 0.22210  0.34900  0.77630  Biso   1.000  O
  O20      1.0000 0.77790  0.65100  0.77630  Biso   1.000  O
  O21      1.0000 0.84900  0.72210  0.27630  Biso   1.000  O
  O22      1.0000 0.15100  0.27790  0.27630  Biso   1.000  O
  O23      1.0000 0.27790  0.84900  0.72370  Biso   1.000  O
  O24      1.0000 0.72210  0.15100  0.72370  Biso   1.000  O
  O25      1.0000 0.69780  0.26530  0.44710  Biso   1.000  O
  O26      1.0000 0.30220  0.73470  0.44710  Biso   1.000  O
  O27      1.0000 0.26530  0.30220  0.55290  Biso   1.000  O
  O28      1.0000 0.73470  0.69780  0.55290  Biso   1.000  O
  O29      1.0000 0.80220  0.76530  0.05290  Biso   1.000  O
  O30      1.0000 0.19780  0.23470  0.05290  Biso   1.000  O
  O31      1.0000 0.23470  0.80220  0.94710  Biso   1.000  O
  O32      1.0000 0.76530  0.19780  0.94710  Biso   1.000  O
  O33      1.0000 0.72210  0.40140  0.68920  Biso   1.000  O
  O34      1.0000 0.27790  0.59860  0.68920  Biso   1.000  O
  O35      1.0000 0.40140  0.27790  0.31080  Biso   1.000  O
  O36      1.0000 0.59860  0.72210  0.31080  Biso   1.000  O
  O37      1.0000 0.77790  0.90140  0.81080  Biso   1.000  O
  O38      1.0000 0.22210  0.09860  0.81080  Biso   1.000  O
  O39      1.0000 0.09860  0.77790  0.18920  Biso   1.000  O
  O40      1.0000 0.90140  0.22210  0.18920  Biso   1.000  O
  H17      1.0000 0.54500  0.39500  0.29300  Biso   1.000  H
  H18      1.0000 0.45500  0.60500  0.29300  Biso   1.000  H
  H19      1.0000 0.39500  0.45500  0.70700  Biso   1.000  H
  H20      1.0000 0.60500  0.54500  0.70700  Biso   1.000  H
  H21      1.0000 0.95500  0.89500  0.20700  Biso   1.000  H
  H22      1.0000 0.04500  0.10500  0.20700  Biso   1.000  H
  H23      1.0000 0.10500  0.95500  0.79300  Biso   1.000  H
  H24      1.0000 0.89500  0.04500  0.79300  Biso   1.000  H
  H25      1.0000 0.72100  0.34200  0.61500  Biso   1.000  H
  H26      1.0000 0.27900  0.65800  0.61500  Biso   1.000  H
  H27      1.0000 0.34200  0.27900  0.38500  Biso   1.000  H
  H28      1.0000 0.65800  0.72100  0.38500  Biso   1.000  H
  H29      1.0000 0.77900  0.84200  0.88500  Biso   1.000  H
  H30      1.0000 0.22100  0.15800  0.88500  Biso   1.000  H
  H31      1.0000 0.15800  0.77900  0.11500  Biso   1.000  H
  H32      1.0000 0.84200  0.22100  0.11500  Biso   1.000  H
  H33      1.0000 0.79400  0.38000  0.72200  Biso   1.000  H
  H34      1.0000 0.20600  0.62000  0.72200  Biso   1.000  H
  H35      1.0000 0.38000  0.20600  0.27800  Biso   1.000  H
  H36      1.0000 0.62000  0.79400  0.27800  Biso   1.000  H
  H37      1.0000 0.70600  0.88000  0.77800  Biso   1.000  H
  H38      1.0000 0.29400  0.12000  0.77800  Biso   1.000  H
  H39      1.0000 0.12000  0.70600  0.22200  Biso   1.000  H
  H40      1.0000 0.88000  0.29400  0.22200  Biso   1.000  H
  H41      1.0000 0.64600  0.43700  0.35600  Biso   1.000  H
  H42      1.0000 0.35400  0.56300  0.35600  Biso   1.000  H
  H43      1.0000 0.43700  0.35400  0.64400  Biso   1.000  H
  H44      1.0000 0.56300  0.64600  0.64400  Biso   1.000  H
  H45      1.0000 0.85400  0.93700  0.14400  Biso   1.000  H
  H46      1.0000 0.14600  0.06300  0.14400  Biso   1.000  H
  H47      1.0000 0.06300  0.85400  0.85600  Biso   1.000  H
  H48      1.0000 0.93700  0.14600  0.85600  Biso   1.000  H
