data_image0
_cell_length_a       9
_cell_length_b       10.842
_cell_length_c       11.281
_cell_angle_alpha    90
_cell_angle_beta     90
_cell_angle_gamma    90

_symmetry_space_group_name_H-M    "P 1"
_symmetry_int_tables_number       1

loop_
  _symmetry_equiv_pos_as_xyz
  'x, y, z'

loop_
  _atom_site_label
  _atom_site_occupancy
  _atom_site_fract_x
  _atom_site_fract_y
  _atom_site_fract_z
  _atom_site_thermal_displace_type
  _atom_site_B_iso_or_equiv
  _atom_site_type_symbol
  Cu1      1.0000 0.49743  0.75998  0.39256  Biso   1.000  Cu
  Cu2      1.0000 0.00257  0.24002  0.89256  Biso   1.000  Cu
  Cu3      1.0000 0.50257  0.25998  0.10744  Biso   1.000  Cu
  Cu4      1.0000 0.99743  0.74002  0.60744  Biso   1.000  Cu
  O1       1.0000 0.30120  0.75050  0.46960  Biso   1.000  O
  O2       1.0000 0.19880  0.24950  0.96960  Biso   1.000  O
  O3       1.0000 0.69880  0.25050  0.03040  Biso   1.000  O
  O4       1.0000 0.80120  0.74950  0.53040  Biso   1.000  O
  O5       1.0000 0.07860  0.83780  0.47480  Biso   1.000  O
  O6       1.0000 0.42140  0.16220  0.97480  Biso   1.000  O
  O7       1.0000 0.92140  0.33780  0.02520  Biso   1.000  O
  O8       1.0000 0.57860  0.66220  0.52520  Biso   1.000  O
  O9       1.0000 0.45480  0.08530  0.23870  Biso   1.000  O
  O10      1.0000 0.04520  0.91470  0.73870  Biso   1.000  O
  O11      1.0000 0.54520  0.58530  0.26130  Biso   1.000  O
  O12      1.0000 0.95480  0.41470  0.76130  Biso   1.000  O
  N1       1.0000 0.67930  0.81730  0.30830  Biso   1.000  N
  N2       1.0000 0.82070  0.18270  0.80830  Biso   1.000  N
  N3       1.0000 0.32070  0.31730  0.19170  Biso   1.000  N
  N4       1.0000 0.17930  0.68270  0.69170  Biso   1.000  N
  H1       1.0000 0.75630  0.81910  0.35910  Biso   1.000  H
  H2       1.0000 0.74370  0.18090  0.85910  Biso   1.000  H
  H3       1.0000 0.24370  0.31910  0.14090  Biso   1.000  H
  H4       1.0000 0.25630  0.68090  0.64090  Biso   1.000  H
  H5       1.0000 0.70160  0.76430  0.24950  Biso   1.000  H
  H6       1.0000 0.79840  0.23570  0.74950  Biso   1.000  H
  H7       1.0000 0.29840  0.26430  0.25050  Biso   1.000  H
  H8       1.0000 0.20160  0.73570  0.75050  Biso   1.000  H
  N5       1.0000 0.40300  0.88710  0.30120  Biso   1.000  N
  N6       1.0000 0.09700  0.11290  0.80120  Biso   1.000  N
  N7       1.0000 0.59700  0.38710  0.19880  Biso   1.000  N
  N8       1.0000 0.90300  0.61290  0.69880  Biso   1.000  N
  C1       1.0000 0.65510  0.94160  0.25850  Biso   1.000  C
  C2       1.0000 0.84490  0.05840  0.75850  Biso   1.000  C
  C3       1.0000 0.34490  0.44160  0.24150  Biso   1.000  C
  C4       1.0000 0.15510  0.55840  0.74150  Biso   1.000  C
  H9       1.0000 0.71060  0.00020  0.30770  Biso   1.000  H
  H10      1.0000 0.78940  0.99980  0.80770  Biso   1.000  H
  H11      1.0000 0.28940  0.50020  0.19230  Biso   1.000  H
  H12      1.0000 0.21060  0.49980  0.69230  Biso   1.000  H
  C5       1.0000 0.49090  0.97730  0.26500  Biso   1.000  C
  C6       1.0000 0.00910  0.02270  0.76500  Biso   1.000  C
  C7       1.0000 0.50910  0.47730  0.23500  Biso   1.000  C
  C8       1.0000 0.99090  0.52270  0.73500  Biso   1.000  C
  C9       1.0000 0.24620  0.90840  0.32630  Biso   1.000  C
  C10      1.0000 0.25380  0.09160  0.82630  Biso   1.000  C
  C11      1.0000 0.75380  0.40840  0.17370  Biso   1.000  C
  C12      1.0000 0.74620  0.59160  0.67370  Biso   1.000  C
  H13      1.0000 0.23220  0.99510  0.34840  Biso   1.000  H
  H14      1.0000 0.26780  0.00490  0.84840  Biso   1.000  H
  H15      1.0000 0.76780  0.49510  0.15160  Biso   1.000  H
  H16      1.0000 0.73220  0.50490  0.65160  Biso   1.000  H
  C13      1.0000 0.20620  0.82750  0.43120  Biso   1.000  C
  C14      1.0000 0.29380  0.17250  0.93120  Biso   1.000  C
  C15      1.0000 0.79380  0.32750  0.06880  Biso   1.000  C
  C16      1.0000 0.70620  0.67250  0.56880  Biso   1.000  C
  C17      1.0000 0.71420  0.95240  0.13250  Biso   1.000  C
  C18      1.0000 0.78580  0.04760  0.63250  Biso   1.000  C
  C19      1.0000 0.28580  0.45240  0.36750  Biso   1.000  C
  C20      1.0000 0.21420  0.54760  0.86750  Biso   1.000  C
  H17      1.0000 0.82010  0.94240  0.13300  Biso   1.000  H
  H18      1.0000 0.67990  0.05760  0.63300  Biso   1.000  H
  H19      1.0000 0.17990  0.44240  0.36700  Biso   1.000  H
  H20      1.0000 0.32010  0.55760  0.86700  Biso   1.000  H
  H21      1.0000 0.68950  0.03210  0.10110  Biso   1.000  H
  H22      1.0000 0.81050  0.96790  0.60110  Biso   1.000  H
  H23      1.0000 0.31050  0.53210  0.39890  Biso   1.000  H
  H24      1.0000 0.18950  0.46790  0.89890  Biso   1.000  H
  H25      1.0000 0.67010  0.88950  0.08400  Biso   1.000  H
  H26      1.0000 0.82990  0.11050  0.58400  Biso   1.000  H
  H27      1.0000 0.32990  0.38950  0.41600  Biso   1.000  H
  H28      1.0000 0.17010  0.61050  0.91600  Biso   1.000  H
  C21      1.0000 0.14040  0.87660  0.22220  Biso   1.000  C
  C22      1.0000 0.35960  0.12340  0.72220  Biso   1.000  C
  C23      1.0000 0.85960  0.37660  0.27780  Biso   1.000  C
  C24      1.0000 0.64040  0.62340  0.77780  Biso   1.000  C
  H29      1.0000 0.03870  0.89010  0.25050  Biso   1.000  H
  H30      1.0000 0.46130  0.10990  0.75050  Biso   1.000  H
  H31      1.0000 0.96130  0.39010  0.24950  Biso   1.000  H
  H32      1.0000 0.53870  0.60990  0.74950  Biso   1.000  H
  C25      1.0000 0.16380  0.96110  0.11710  Biso   1.000  C
  C26      1.0000 0.33620  0.03890  0.61710  Biso   1.000  C
  C27      1.0000 0.83620  0.46110  0.38290  Biso   1.000  C
  C28      1.0000 0.66380  0.53890  0.88290  Biso   1.000  C
  H33      1.0000 0.14780  0.04500  0.14100  Biso   1.000  H
  H34      1.0000 0.35220  0.95500  0.64100  Biso   1.000  H
  H35      1.0000 0.85220  0.54500  0.35900  Biso   1.000  H
  H36      1.0000 0.64780  0.45500  0.85900  Biso   1.000  H
  H37      1.0000 0.09490  0.93990  0.05540  Biso   1.000  H
  H38      1.0000 0.40510  0.06010  0.55540  Biso   1.000  H
  H39      1.0000 0.90510  0.43990  0.44460  Biso   1.000  H
  H40      1.0000 0.59490  0.56010  0.94460  Biso   1.000  H
  H41      1.0000 0.26350  0.95190  0.08830  Biso   1.000  H
  H42      1.0000 0.23650  0.04810  0.58830  Biso   1.000  H
  H43      1.0000 0.73650  0.45190  0.41170  Biso   1.000  H
  H44      1.0000 0.76350  0.54810  0.91170  Biso   1.000  H
  C29      1.0000 0.15190  0.74060  0.18610  Biso   1.000  C
  C30      1.0000 0.34810  0.25940  0.68610  Biso   1.000  C
  C31      1.0000 0.84810  0.24060  0.31390  Biso   1.000  C
  C32      1.0000 0.65190  0.75940  0.81390  Biso   1.000  C
  H45      1.0000 0.24020  0.72960  0.13790  Biso   1.000  H
  H46      1.0000 0.25980  0.27040  0.63790  Biso   1.000  H
  H47      1.0000 0.75980  0.22960  0.36210  Biso   1.000  H
  H48      1.0000 0.74020  0.77040  0.86210  Biso   1.000  H
  H49      1.0000 0.16370  0.69080  0.25700  Biso   1.000  H
  H50      1.0000 0.33630  0.30920  0.75700  Biso   1.000  H
  H51      1.0000 0.83630  0.19080  0.24300  Biso   1.000  H
  H52      1.0000 0.66370  0.80920  0.74300  Biso   1.000  H
  C33      1.0000 0.01860  0.69460  0.11790  Biso   1.000  C
  C34      1.0000 0.48140  0.30540  0.61790  Biso   1.000  C
  C35      1.0000 0.98140  0.19460  0.38210  Biso   1.000  C
  C36      1.0000 0.51860  0.80540  0.88210  Biso   1.000  C
  H53      1.0000 0.93120  0.70270  0.16600  Biso   1.000  H
  H54      1.0000 0.56880  0.29730  0.66600  Biso   1.000  H
  H55      1.0000 0.06880  0.20270  0.33400  Biso   1.000  H
  H56      1.0000 0.43120  0.79730  0.83400  Biso   1.000  H
  H57      1.0000 0.03290  0.60950  0.09740  Biso   1.000  H
  H58      1.0000 0.46710  0.39050  0.59740  Biso   1.000  H
  H59      1.0000 0.96710  0.10950  0.40260  Biso   1.000  H
  H60      1.0000 0.53290  0.89050  0.90260  Biso   1.000  H
  H61      1.0000 0.00700  0.74250  0.04690  Biso   1.000  H
  H62      1.0000 0.49300  0.25750  0.54690  Biso   1.000  H
  H63      1.0000 0.99300  0.24250  0.45310  Biso   1.000  H
  H64      1.0000 0.50700  0.75750  0.95310  Biso   1.000  H
