data_image0
_cell_length_a       8.794
_cell_length_b       20.841
_cell_length_c       5.358
_cell_angle_alpha    90
_cell_angle_beta     90
_cell_angle_gamma    90

_symmetry_space_group_name_H-M    "P 1"
_symmetry_int_tables_number       1

loop_
  _symmetry_equiv_pos_as_xyz
  'x, y, z'

loop_
  _atom_site_label
  _atom_site_occupancy
  _atom_site_fract_x
  _atom_site_fract_y
  _atom_site_fract_z
  _atom_site_thermal_displace_type
  _atom_site_B_iso_or_equiv
  _atom_site_type_symbol
  Cu1      1.0000 0.95457  0.18359  0.04510  Biso   1.000  Cu
  Cu2      1.0000 0.45457  0.31641  0.95490  Biso   1.000  Cu
  Cu3      1.0000 0.04543  0.81641  0.04510  Biso   1.000  Cu
  Cu4      1.0000 0.54543  0.68359  0.95490  Biso   1.000  Cu
  O1       1.0000 0.13650  0.24239  0.01700  Biso   1.000  O
  O2       1.0000 0.63650  0.25761  0.98300  Biso   1.000  O
  O3       1.0000 0.86350  0.75761  0.01700  Biso   1.000  O
  O4       1.0000 0.36350  0.74239  0.98300  Biso   1.000  O
  O5       1.0000 0.35360  0.26538  0.21020  Biso   1.000  O
  O6       1.0000 0.85360  0.23462  0.78980  Biso   1.000  O
  O7       1.0000 0.64640  0.73462  0.21020  Biso   1.000  O
  O8       1.0000 0.14640  0.76538  0.78980  Biso   1.000  O
  O9       1.0000 0.02410  0.11253  0.72760  Biso   1.000  O
  O10      1.0000 0.52410  0.38747  0.27240  Biso   1.000  O
  O11      1.0000 0.97590  0.88747  0.72760  Biso   1.000  O
  O12      1.0000 0.47590  0.61253  0.27240  Biso   1.000  O
  O13      1.0000 0.47510  0.16219  0.46180  Biso   1.000  O
  O14      1.0000 0.97510  0.33781  0.53820  Biso   1.000  O
  O15      1.0000 0.52490  0.83781  0.46180  Biso   1.000  O
  O16      1.0000 0.02490  0.66219  0.53820  Biso   1.000  O
  H1       1.0000 0.46360  0.19790  0.47130  Biso   1.000  H
  H2       1.0000 0.96360  0.30210  0.52870  Biso   1.000  H
  H3       1.0000 0.53640  0.80210  0.47130  Biso   1.000  H
  H4       1.0000 0.03640  0.69790  0.52870  Biso   1.000  H
  N1       1.0000 0.79010  0.12401  0.16780  Biso   1.000  N
  N2       1.0000 0.29010  0.37599  0.83220  Biso   1.000  N
  N3       1.0000 0.20990  0.87599  0.16780  Biso   1.000  N
  N4       1.0000 0.70990  0.62401  0.83220  Biso   1.000  N
  H5       1.0000 0.69860  0.14270  0.14860  Biso   1.000  H
  H6       1.0000 0.19860  0.35730  0.85140  Biso   1.000  H
  H7       1.0000 0.30140  0.85730  0.14860  Biso   1.000  H
  H8       1.0000 0.80140  0.64270  0.85140  Biso   1.000  H
  H9       1.0000 0.79100  0.08760  0.07730  Biso   1.000  H
  H10      1.0000 0.29100  0.41240  0.92270  Biso   1.000  H
  H11      1.0000 0.20900  0.91240  0.07730  Biso   1.000  H
  H12      1.0000 0.70900  0.58760  0.92270  Biso   1.000  H
  N5       1.0000 0.05760  0.15409  0.33420  Biso   1.000  N
  N6       1.0000 0.55760  0.34591  0.66580  Biso   1.000  N
  N7       1.0000 0.94240  0.84591  0.33420  Biso   1.000  N
  N8       1.0000 0.44240  0.65409  0.66580  Biso   1.000  N
  C1       1.0000 0.81510  0.10863  0.43460  Biso   1.000  C
  C2       1.0000 0.31510  0.39137  0.56540  Biso   1.000  C
  C3       1.0000 0.18490  0.89137  0.43460  Biso   1.000  C
  C4       1.0000 0.68490  0.60863  0.56540  Biso   1.000  C
  H13      1.0000 0.74860  0.13710  0.53130  Biso   1.000  H
  H14      1.0000 0.24860  0.36290  0.46870  Biso   1.000  H
  H15      1.0000 0.25140  0.86290  0.53130  Biso   1.000  H
  H16      1.0000 0.75140  0.63710  0.46870  Biso   1.000  H
  C5       1.0000 0.97960  0.12484  0.50910  Biso   1.000  C
  C6       1.0000 0.47960  0.37516  0.49090  Biso   1.000  C
  C7       1.0000 0.02040  0.87516  0.50910  Biso   1.000  C
  C8       1.0000 0.52040  0.62484  0.49090  Biso   1.000  C
  C9       1.0000 0.20450  0.18254  0.38660  Biso   1.000  C
  C10      1.0000 0.70450  0.31746  0.61340  Biso   1.000  C
  C11      1.0000 0.79550  0.81746  0.38660  Biso   1.000  C
  C12      1.0000 0.29550  0.68254  0.61340  Biso   1.000  C
  H17      1.0000 0.20170  0.20250  0.55220  Biso   1.000  H
  H18      1.0000 0.70170  0.29750  0.44780  Biso   1.000  H
  H19      1.0000 0.79830  0.79750  0.55220  Biso   1.000  H
  H20      1.0000 0.29830  0.70250  0.44780  Biso   1.000  H
  C13      1.0000 0.23070  0.23440  0.19090  Biso   1.000  C
  C14      1.0000 0.73070  0.26560  0.80910  Biso   1.000  C
  C15      1.0000 0.76930  0.76560  0.19090  Biso   1.000  C
  C16      1.0000 0.26930  0.73440  0.80910  Biso   1.000  C
  C17      1.0000 0.76890  0.03970  0.49820  Biso   1.000  C
  C18      1.0000 0.26890  0.46030  0.50180  Biso   1.000  C
  C19      1.0000 0.23110  0.96030  0.49820  Biso   1.000  C
  C20      1.0000 0.73110  0.53970  0.50180  Biso   1.000  C
  H21      1.0000 0.77810  0.03300  0.67490  Biso   1.000  H
  H22      1.0000 0.27810  0.46700  0.32510  Biso   1.000  H
  H23      1.0000 0.22190  0.96700  0.67490  Biso   1.000  H
  H24      1.0000 0.72190  0.53300  0.32510  Biso   1.000  H
  H25      1.0000 0.83410  0.01030  0.41160  Biso   1.000  H
  H26      1.0000 0.33410  0.48970  0.58840  Biso   1.000  H
  H27      1.0000 0.16590  0.98970  0.41160  Biso   1.000  H
  H28      1.0000 0.66590  0.51030  0.58840  Biso   1.000  H
  H29      1.0000 0.66540  0.03260  0.44810  Biso   1.000  H
  H30      1.0000 0.16540  0.46740  0.55190  Biso   1.000  H
  H31      1.0000 0.33460  0.96740  0.44810  Biso   1.000  H
  H32      1.0000 0.83460  0.53260  0.55190  Biso   1.000  H
  C21      1.0000 0.33670  0.13371  0.37760  Biso   1.000  C
  C22      1.0000 0.83670  0.36629  0.62240  Biso   1.000  C
  C23      1.0000 0.66330  0.86629  0.37760  Biso   1.000  C
  C24      1.0000 0.16330  0.63371  0.62240  Biso   1.000  C
  H33      1.0000 0.31170  0.09880  0.49300  Biso   1.000  H
  H34      1.0000 0.81170  0.40120  0.50700  Biso   1.000  H
  H35      1.0000 0.68830  0.90120  0.49300  Biso   1.000  H
  H36      1.0000 0.18830  0.59880  0.50700  Biso   1.000  H
  C25      1.0000 0.35840  0.10430  0.12010  Biso   1.000  C
  C26      1.0000 0.85840  0.39570  0.87990  Biso   1.000  C
  C27      1.0000 0.64160  0.89570  0.12010  Biso   1.000  C
  C28      1.0000 0.14160  0.60430  0.87990  Biso   1.000  C
  H37      1.0000 0.26580  0.08390  0.06840  Biso   1.000  H
  H38      1.0000 0.76580  0.41610  0.93160  Biso   1.000  H
  H39      1.0000 0.73420  0.91610  0.06840  Biso   1.000  H
  H40      1.0000 0.23420  0.58390  0.93160  Biso   1.000  H
  H41      1.0000 0.43860  0.07310  0.12640  Biso   1.000  H
  H42      1.0000 0.93860  0.42690  0.87360  Biso   1.000  H
  H43      1.0000 0.56140  0.92690  0.12640  Biso   1.000  H
  H44      1.0000 0.06140  0.57310  0.87360  Biso   1.000  H
  H45      1.0000 0.38470  0.13740  0.00310  Biso   1.000  H
  H46      1.0000 0.88470  0.36260  0.99690  Biso   1.000  H
  H47      1.0000 0.61530  0.86260  0.00310  Biso   1.000  H
  H48      1.0000 0.11530  0.63740  0.99690  Biso   1.000  H
  O17      1.0000 0.00000  0.00000  0.00920  Biso   1.000  O
  O18      1.0000 0.50000  0.50000  0.99080  Biso   1.000  O
  H49      1.0000 0.02030  0.02890  0.92310  Biso   1.000  H
  H50      1.0000 0.52030  0.47110  0.07690  Biso   1.000  H
  H51      1.0000 0.97970  0.97110  0.92310  Biso   1.000  H
  H52      1.0000 0.47970  0.52890  0.07690  Biso   1.000  H
