data_image0
_cell_length_a       9.014
_cell_length_b       27.094
_cell_length_c       5.541
_cell_angle_alpha    90
_cell_angle_beta     90
_cell_angle_gamma    90

_symmetry_space_group_name_H-M    "P 1"
_symmetry_int_tables_number       1

loop_
  _symmetry_equiv_pos_as_xyz
  'x, y, z'

loop_
  _atom_site_label
  _atom_site_occupancy
  _atom_site_fract_x
  _atom_site_fract_y
  _atom_site_fract_z
  _atom_site_thermal_displace_type
  _atom_site_B_iso_or_equiv
  _atom_site_type_symbol
  Cu1      1.0000 0.76172  0.29867  0.55012  Biso   1.000  Cu
  Cu2      1.0000 0.23828  0.70133  0.55012  Biso   1.000  Cu
  Cu3      1.0000 0.26172  0.20133  0.44988  Biso   1.000  Cu
  Cu4      1.0000 0.73828  0.79867  0.44988  Biso   1.000  Cu
  O1       1.0000 0.58270  0.25485  0.51840  Biso   1.000  O
  O2       1.0000 0.41730  0.74515  0.51840  Biso   1.000  O
  O3       1.0000 0.08270  0.24515  0.48160  Biso   1.000  O
  O4       1.0000 0.91730  0.75485  0.48160  Biso   1.000  O
  O5       1.0000 0.37010  0.23776  0.70150  Biso   1.000  O
  O6       1.0000 0.62990  0.76224  0.70150  Biso   1.000  O
  O7       1.0000 0.87010  0.26224  0.29850  Biso   1.000  O
  O8       1.0000 0.12990  0.73776  0.29850  Biso   1.000  O
  O9       1.0000 0.70650  0.35088  0.22160  Biso   1.000  O
  O10      1.0000 0.29350  0.64912  0.22160  Biso   1.000  O
  O11      1.0000 0.20650  0.14912  0.77840  Biso   1.000  O
  O12      1.0000 0.79350  0.85088  0.77840  Biso   1.000  O
  O13      1.0000 0.22140  0.47813  0.37120  Biso   1.000  O
  O14      1.0000 0.77860  0.52187  0.37120  Biso   1.000  O
  O15      1.0000 0.72140  0.02187  0.62880  Biso   1.000  O
  O16      1.0000 0.27860  0.97813  0.62880  Biso   1.000  O
  H1       1.0000 0.25300  0.50580  0.40000  Biso   1.000  H
  H2       1.0000 0.74700  0.49420  0.40000  Biso   1.000  H
  H3       1.0000 0.75300  0.99420  0.60000  Biso   1.000  H
  H4       1.0000 0.24700  0.00580  0.60000  Biso   1.000  H
  N1       1.0000 0.91370  0.34792  0.65840  Biso   1.000  N
  N2       1.0000 0.08630  0.65208  0.65840  Biso   1.000  N
  N3       1.0000 0.41370  0.15208  0.34160  Biso   1.000  N
  N4       1.0000 0.58630  0.84792  0.34160  Biso   1.000  N
  H5       1.0000 0.00500  0.33530  0.63540  Biso   1.000  H
  H6       1.0000 0.99500  0.66470  0.63540  Biso   1.000  H
  H7       1.0000 0.50500  0.16470  0.36460  Biso   1.000  H
  H8       1.0000 0.49500  0.83530  0.36460  Biso   1.000  H
  H9       1.0000 0.90580  0.37540  0.56800  Biso   1.000  H
  H10      1.0000 0.09420  0.62460  0.56800  Biso   1.000  H
  H11      1.0000 0.40580  0.12460  0.43200  Biso   1.000  H
  H12      1.0000 0.59420  0.87540  0.43200  Biso   1.000  H
  N5       1.0000 0.66920  0.31658  0.84580  Biso   1.000  N
  N6       1.0000 0.33080  0.68342  0.84580  Biso   1.000  N
  N7       1.0000 0.16920  0.18342  0.15420  Biso   1.000  N
  N8       1.0000 0.83080  0.81658  0.15420  Biso   1.000  N
  C1       1.0000 0.89520  0.36115  0.91830  Biso   1.000  C
  C2       1.0000 0.10480  0.63885  0.91830  Biso   1.000  C
  C3       1.0000 0.39520  0.13885  0.08170  Biso   1.000  C
  C4       1.0000 0.60480  0.86115  0.08170  Biso   1.000  C
  H13      1.0000 0.97130  0.34290  0.00790  Biso   1.000  H
  H14      1.0000 0.02870  0.65710  0.00790  Biso   1.000  H
  H15      1.0000 0.47130  0.15710  0.99210  Biso   1.000  H
  H16      1.0000 0.52870  0.84290  0.99210  Biso   1.000  H
  C5       1.0000 0.74500  0.34231  0.00690  Biso   1.000  C
  C6       1.0000 0.25500  0.65769  0.00690  Biso   1.000  C
  C7       1.0000 0.24500  0.15769  0.99310  Biso   1.000  C
  C8       1.0000 0.75500  0.84231  0.99310  Biso   1.000  C
  C9       1.0000 0.53260  0.29014  0.91080  Biso   1.000  C
  C10      1.0000 0.46740  0.70986  0.91080  Biso   1.000  C
  C11      1.0000 0.03260  0.20986  0.08920  Biso   1.000  C
  C12      1.0000 0.96740  0.79014  0.08920  Biso   1.000  C
  H17      1.0000 0.55710  0.26770  0.04380  Biso   1.000  H
  H18      1.0000 0.44290  0.73230  0.04380  Biso   1.000  H
  H19      1.0000 0.05710  0.23230  0.95620  Biso   1.000  H
  H20      1.0000 0.94290  0.76770  0.95620  Biso   1.000  H
  C13      1.0000 0.49300  0.25848  0.69420  Biso   1.000  C
  C14      1.0000 0.50700  0.74152  0.69420  Biso   1.000  C
  C15      1.0000 0.99300  0.24152  0.30580  Biso   1.000  C
  C16      1.0000 0.00700  0.75848  0.30580  Biso   1.000  C
  C17      1.0000 0.92300  0.41588  0.96450  Biso   1.000  C
  C18      1.0000 0.07700  0.58412  0.96450  Biso   1.000  C
  C19      1.0000 0.42300  0.08412  0.03550  Biso   1.000  C
  C20      1.0000 0.57700  0.91588  0.03550  Biso   1.000  C
  H21      1.0000 0.90470  0.42320  0.13150  Biso   1.000  H
  H22      1.0000 0.09530  0.57680  0.13150  Biso   1.000  H
  H23      1.0000 0.40470  0.07680  0.86850  Biso   1.000  H
  H24      1.0000 0.59530  0.92320  0.86850  Biso   1.000  H
  H25      1.0000 0.85760  0.43520  0.86560  Biso   1.000  H
  H26      1.0000 0.14240  0.56480  0.86560  Biso   1.000  H
  H27      1.0000 0.35760  0.06480  0.13440  Biso   1.000  H
  H28      1.0000 0.64240  0.93520  0.13440  Biso   1.000  H
  H29      1.0000 0.02400  0.42370  0.92570  Biso   1.000  H
  H30      1.0000 0.97600  0.57630  0.92570  Biso   1.000  H
  H31      1.0000 0.52400  0.07630  0.07430  Biso   1.000  H
  H32      1.0000 0.47600  0.92370  0.07430  Biso   1.000  H
  C21      1.0000 0.40380  0.32259  0.99530  Biso   1.000  C
  C22      1.0000 0.59620  0.67741  0.99530  Biso   1.000  C
  C23      1.0000 0.90380  0.17741  0.00470  Biso   1.000  C
  C24      1.0000 0.09620  0.82259  0.00470  Biso   1.000  C
  H33      1.0000 0.31770  0.30170  0.01910  Biso   1.000  H
  H34      1.0000 0.68230  0.69830  0.01910  Biso   1.000  H
  H35      1.0000 0.81770  0.19830  0.98090  Biso   1.000  H
  H36      1.0000 0.18230  0.80170  0.98090  Biso   1.000  H
  H37      1.0000 0.42970  0.33650  0.15100  Biso   1.000  H
  H38      1.0000 0.57030  0.66350  0.15100  Biso   1.000  H
  H39      1.0000 0.92970  0.16350  0.84900  Biso   1.000  H
  H40      1.0000 0.07030  0.83650  0.84900  Biso   1.000  H
  C25      1.0000 0.35980  0.36479  0.82780  Biso   1.000  C
  C26      1.0000 0.64020  0.63521  0.82780  Biso   1.000  C
  C27      1.0000 0.85980  0.13521  0.17220  Biso   1.000  C
  C28      1.0000 0.14020  0.86479  0.17220  Biso   1.000  C
  C29      1.0000 0.28630  0.35590  0.61610  Biso   1.000  C
  C30      1.0000 0.71370  0.64410  0.61610  Biso   1.000  C
  C31      1.0000 0.78630  0.14410  0.38390  Biso   1.000  C
  C32      1.0000 0.21370  0.85590  0.38390  Biso   1.000  C
  H41      1.0000 0.26540  0.32340  0.57270  Biso   1.000  H
  H42      1.0000 0.73460  0.67660  0.57270  Biso   1.000  H
  H43      1.0000 0.76540  0.17660  0.42730  Biso   1.000  H
  H44      1.0000 0.23460  0.82340  0.42730  Biso   1.000  H
  C33      1.0000 0.24160  0.39420  0.46310  Biso   1.000  C
  C34      1.0000 0.75840  0.60580  0.46310  Biso   1.000  C
  C35      1.0000 0.74160  0.10580  0.53690  Biso   1.000  C
  C36      1.0000 0.25840  0.89420  0.53690  Biso   1.000  C
  H45      1.0000 0.19410  0.38720  0.31810  Biso   1.000  H
  H46      1.0000 0.80590  0.61280  0.31810  Biso   1.000  H
  H47      1.0000 0.69410  0.11280  0.68190  Biso   1.000  H
  H48      1.0000 0.30590  0.88720  0.68190  Biso   1.000  H
  C37      1.0000 0.26850  0.44170  0.52880  Biso   1.000  C
  C38      1.0000 0.73150  0.55830  0.52880  Biso   1.000  C
  C39      1.0000 0.76850  0.05830  0.47120  Biso   1.000  C
  C40      1.0000 0.23150  0.94170  0.47120  Biso   1.000  C
  C41      1.0000 0.33800  0.45150  0.74360  Biso   1.000  C
  C42      1.0000 0.66200  0.54850  0.74360  Biso   1.000  C
  C43      1.0000 0.83800  0.04850  0.25640  Biso   1.000  C
  C44      1.0000 0.16200  0.95150  0.25640  Biso   1.000  C
  H49      1.0000 0.35300  0.48410  0.79050  Biso   1.000  H
  H50      1.0000 0.64700  0.51590  0.79050  Biso   1.000  H
  H51      1.0000 0.85300  0.01590  0.20950  Biso   1.000  H
  H52      1.0000 0.14700  0.98410  0.20950  Biso   1.000  H
  C45      1.0000 0.38570  0.41385  0.89050  Biso   1.000  C
  C46      1.0000 0.61430  0.58615  0.89050  Biso   1.000  C
  C47      1.0000 0.88570  0.08615  0.10950  Biso   1.000  C
  C48      1.0000 0.11430  0.91385  0.10950  Biso   1.000  C
  H53      1.0000 0.43560  0.42120  0.03290  Biso   1.000  H
  H54      1.0000 0.56440  0.57880  0.03290  Biso   1.000  H
  H55      1.0000 0.93560  0.07880  0.96710  Biso   1.000  H
  H56      1.0000 0.06440  0.92120  0.96710  Biso   1.000  H
  O17      1.0000 0.65770  0.43247  0.47000  Biso   1.000  O
  O18      1.0000 0.34230  0.56753  0.47000  Biso   1.000  O
  O19      1.0000 0.15770  0.06753  0.53000  Biso   1.000  O
  O20      1.0000 0.84230  0.93247  0.53000  Biso   1.000  O
