data_image0
_cell_length_a       4.7153
_cell_length_b       14.432
_cell_length_c       17.623
_cell_angle_alpha    70.972
_cell_angle_beta     88.635
_cell_angle_gamma    85.609

_symmetry_space_group_name_H-M    "P 1"
_symmetry_int_tables_number       1

loop_
  _symmetry_equiv_pos_as_xyz
  'x, y, z'

loop_
  _atom_site_label
  _atom_site_occupancy
  _atom_site_fract_x
  _atom_site_fract_y
  _atom_site_fract_z
  _atom_site_thermal_displace_type
  _atom_site_B_iso_or_equiv
  _atom_site_type_symbol
  Br1      1.0000 0.96537  0.72626  0.21943  Biso   1.000  Br
  Br2      1.0000 0.03463  0.27374  0.78057  Biso   1.000  Br
  Br3      1.0000 0.56569  0.14418  0.32323  Biso   1.000  Br
  Br4      1.0000 0.43431  0.85582  0.67677  Biso   1.000  Br
  C1       1.0000 0.63840  0.70490  0.08970  Biso   1.000  C
  C2       1.0000 0.36160  0.29510  0.91030  Biso   1.000  C
  C3       1.0000 0.44750  0.75690  0.02940  Biso   1.000  C
  C4       1.0000 0.55250  0.24310  0.97060  Biso   1.000  C
  H1       1.0000 0.36380  0.72900  0.99550  Biso   1.000  H
  H2       1.0000 0.63620  0.27100  0.00450  Biso   1.000  H
  C5       1.0000 0.60580  0.86430  0.10070  Biso   1.000  C
  C6       1.0000 0.39420  0.13570  0.89930  Biso   1.000  C
  H3       1.0000 0.64630  0.91450  0.12020  Biso   1.000  H
  H4       1.0000 0.35370  0.08550  0.87980  Biso   1.000  H
  C7       1.0000 0.71560  0.77030  0.12920  Biso   1.000  C
  C8       1.0000 0.28440  0.22970  0.87080  Biso   1.000  C
  C9       1.0000 0.90920  0.19750  0.17760  Biso   1.000  C
  C10      1.0000 0.09080  0.80250  0.82240  Biso   1.000  C
  C11      1.0000 0.80990  0.12300  0.24100  Biso   1.000  C
  C12      1.0000 0.19010  0.87700  0.75900  Biso   1.000  C
  C13      1.0000 0.88750  0.03140  0.24050  Biso   1.000  C
  C14      1.0000 0.11250  0.96860  0.75950  Biso   1.000  C
  H5       1.0000 0.83080  0.97460  0.27880  Biso   1.000  H
  H6       1.0000 0.16920  0.02540  0.72120  Biso   1.000  H
  C15      1.0000 0.06920  0.15540  0.13050  Biso   1.000  C
  C16      1.0000 0.93080  0.84460  0.86950  Biso   1.000  C
  H7       1.0000 0.15680  0.19240  0.08370  Biso   1.000  H
  H8       1.0000 0.84320  0.80760  0.91630  Biso   1.000  H
  C17      1.0000 0.31970  0.52000  0.34230  Biso   1.000  C
  C18      1.0000 0.68030  0.48000  0.65770  Biso   1.000  C
  H9       1.0000 0.45350  0.55740  0.30880  Biso   1.000  H
  H10      1.0000 0.54650  0.44260  0.69120  Biso   1.000  H
  C19      1.0000 0.23520  0.54320  0.41130  Biso   1.000  C
  C20      1.0000 0.76480  0.45680  0.58870  Biso   1.000  C
  H11      1.0000 0.30740  0.59630  0.42120  Biso   1.000  H
  H12      1.0000 0.69260  0.40370  0.57880  Biso   1.000  H
  C21      1.0000 0.04800  0.48820  0.46360  Biso   1.000  C
  C22      1.0000 0.95200  0.51180  0.53640  Biso   1.000  C
  C23      1.0000 0.94340  0.41270  0.44280  Biso   1.000  C
  C24      1.0000 0.05660  0.58730  0.55720  Biso   1.000  C
  H13      1.0000 0.81180  0.37320  0.47550  Biso   1.000  H
  H14      1.0000 0.18820  0.62680  0.52450  Biso   1.000  H
  C25      1.0000 0.03760  0.39670  0.37260  Biso   1.000  C
  C26      1.0000 0.96240  0.60330  0.62740  Biso   1.000  C
  H15      1.0000 0.96560  0.34520  0.36000  Biso   1.000  H
  H16      1.0000 0.03440  0.65480  0.64000  Biso   1.000  H
  Cu1      1.0000 0.33625  0.42073  0.22284  Biso   1.000  Cu
  Cu2      1.0000 0.66375  0.57927  0.77716  Biso   1.000  Cu
  Cu3      1.0000 0.24906  0.47526  0.05274  Biso   1.000  Cu
  Cu4      1.0000 0.75094  0.52474  0.94726  Biso   1.000  Cu
  N1       1.0000 0.22160  0.44920  0.32260  Biso   1.000  N
  N2       1.0000 0.77840  0.55080  0.67740  Biso   1.000  N
  O1       1.0000 0.03810  0.55170  0.11050  Biso   1.000  O
  O2       1.0000 0.96190  0.44830  0.88950  Biso   1.000  O
  O3       1.0000 0.57570  0.55500  0.04070  Biso   1.000  O
  O4       1.0000 0.42430  0.44500  0.95930  Biso   1.000  O
  O5       1.0000 0.58640  0.52780  0.19210  Biso   1.000  O
  O6       1.0000 0.41360  0.47220  0.80790  Biso   1.000  O
  O7       1.0000 0.99180  0.37260  0.07860  Biso   1.000  O
  O8       1.0000 0.00820  0.62740  0.92140  Biso   1.000  O
  O9       1.0000 0.01210  0.34420  0.22870  Biso   1.000  O
  O10      1.0000 0.98790  0.65580  0.77130  Biso   1.000  O
  O11      1.0000 0.54280  0.35300  0.15970  Biso   1.000  O
  O12      1.0000 0.45720  0.64700  0.84030  Biso   1.000  O
  P1       1.0000 0.71680  0.57642  0.11116  Biso   1.000  P
  P2       1.0000 0.28320  0.42358  0.88884  Biso   1.000  P
  P3       1.0000 0.86470  0.32584  0.16033  Biso   1.000  P
  P4       1.0000 0.13530  0.67416  0.83967  Biso   1.000  P
  S1       1.0000 0.38220  0.87627  0.02362  Biso   1.000  S
  S2       1.0000 0.61780  0.12373  0.97638  Biso   1.000  S
  S3       1.0000 0.09660  0.03191  0.16297  Biso   1.000  S
  S4       1.0000 0.90340  0.96809  0.83703  Biso   1.000  S
  O13      1.0000 0.47300  0.78300  0.40410  Biso   1.000  O
  O14      1.0000 0.52700  0.21700  0.59590  Biso   1.000  O
  H17      1.0000 0.39000  0.83750  0.41890  Biso   1.000  H
  H18      1.0000 0.61000  0.16250  0.58110  Biso   1.000  H
  H19      1.0000 0.57710  0.80710  0.35500  Biso   1.000  H
  H20      1.0000 0.42290  0.19290  0.64500  Biso   1.000  H
  O15      1.0000 0.99600  0.85880  0.46490  Biso   1.000  O
  O16      1.0000 0.00400  0.14120  0.53510  Biso   1.000  O
  H21      1.0000 0.84230  0.83270  0.46290  Biso   1.000  H
  H22      1.0000 0.15770  0.16730  0.53710  Biso   1.000  H
  H23      1.0000 0.11940  0.84260  0.43460  Biso   1.000  H
  H24      1.0000 0.88060  0.15740  0.56540  Biso   1.000  H
  O17      1.0000 0.50000  0.00000  0.50000  Biso   1.000  O
  H25      1.0000 0.62520  0.96140  0.48810  Biso   1.000  H
  H26      1.0000 0.37480  0.03860  0.51190  Biso   1.000  H
  H27      1.0000 0.38290  0.02360  0.46140  Biso   1.000  H
  H28      1.0000 0.61710  0.97640  0.53860  Biso   1.000  H
