data_image0
_cell_length_a       13.578
_cell_length_b       7.587
_cell_length_c       7.956
_cell_angle_alpha    90
_cell_angle_beta     99.822
_cell_angle_gamma    90

_symmetry_space_group_name_H-M    "P 1"
_symmetry_int_tables_number       1

loop_
  _symmetry_equiv_pos_as_xyz
  'x, y, z'

loop_
  _atom_site_label
  _atom_site_occupancy
  _atom_site_fract_x
  _atom_site_fract_y
  _atom_site_fract_z
  _atom_site_thermal_displace_type
  _atom_site_B_iso_or_equiv
  _atom_site_type_symbol
  Br1      1.0000 0.17442  0.40162  0.42235  Biso   1.000  Br
  Br2      1.0000 0.82558  0.90162  0.07765  Biso   1.000  Br
  Br3      1.0000 0.82558  0.59838  0.57765  Biso   1.000  Br
  Br4      1.0000 0.17442  0.09838  0.92235  Biso   1.000  Br
  C1       1.0000 0.25860  0.75420  0.43650  Biso   1.000  C
  C2       1.0000 0.74140  0.25420  0.06350  Biso   1.000  C
  C3       1.0000 0.74140  0.24580  0.56350  Biso   1.000  C
  C4       1.0000 0.25860  0.74580  0.93650  Biso   1.000  C
  C5       1.0000 0.17180  0.65210  0.41920  Biso   1.000  C
  C6       1.0000 0.82820  0.15210  0.08080  Biso   1.000  C
  C7       1.0000 0.82820  0.34790  0.58080  Biso   1.000  C
  C8       1.0000 0.17180  0.84790  0.91920  Biso   1.000  C
  C9       1.0000 0.08420  0.73690  0.40280  Biso   1.000  C
  C10      1.0000 0.91580  0.23690  0.09720  Biso   1.000  C
  C11      1.0000 0.91580  0.26310  0.59720  Biso   1.000  C
  C12      1.0000 0.08420  0.76310  0.90280  Biso   1.000  C
  H1       1.0000 0.02190  0.68350  0.39420  Biso   1.000  H
  H2       1.0000 0.97810  0.18350  0.10580  Biso   1.000  H
  H3       1.0000 0.97810  0.31650  0.60580  Biso   1.000  H
  H4       1.0000 0.02190  0.81650  0.89420  Biso   1.000  H
  C13      1.0000 0.23390  0.92920  0.42740  Biso   1.000  C
  C14      1.0000 0.76610  0.42920  0.07260  Biso   1.000  C
  C15      1.0000 0.76610  0.07080  0.57260  Biso   1.000  C
  C16      1.0000 0.23390  0.57080  0.92740  Biso   1.000  C
  H5       1.0000 0.27980  0.02100  0.43480  Biso   1.000  H
  H6       1.0000 0.72020  0.52100  0.06520  Biso   1.000  H
  H7       1.0000 0.72020  0.97900  0.56520  Biso   1.000  H
  H8       1.0000 0.27980  0.47900  0.93480  Biso   1.000  H
  Cu1      1.0000 0.50025  0.99680  0.69128  Biso   1.000  Cu
  Cu2      1.0000 0.49975  0.49680  0.80872  Biso   1.000  Cu
  Cu3      1.0000 0.49975  0.00320  0.30872  Biso   1.000  Cu
  Cu4      1.0000 0.50025  0.50320  0.19128  Biso   1.000  Cu
  O1       1.0000 0.40350  0.58110  0.62890  Biso   1.000  O
  O2       1.0000 0.59650  0.08110  0.87110  Biso   1.000  O
  O3       1.0000 0.59650  0.41890  0.37110  Biso   1.000  O
  O4       1.0000 0.40350  0.91890  0.12890  Biso   1.000  O
  O5       1.0000 0.44980  0.85830  0.48360  Biso   1.000  O
  O6       1.0000 0.55020  0.35830  0.01640  Biso   1.000  O
  O7       1.0000 0.55020  0.14170  0.51640  Biso   1.000  O
  O8       1.0000 0.44980  0.64170  0.98360  Biso   1.000  O
  O9       1.0000 0.40030  0.58130  0.30880  Biso   1.000  O
  O10      1.0000 0.59970  0.08130  0.19120  Biso   1.000  O
  O11      1.0000 0.59970  0.41870  0.69120  Biso   1.000  O
  O12      1.0000 0.40030  0.91870  0.80880  Biso   1.000  O
  O13      1.0000 0.62780  0.75000  0.77880  Biso   1.000  O
  O14      1.0000 0.37220  0.25000  0.72120  Biso   1.000  O
  O15      1.0000 0.37220  0.25000  0.22120  Biso   1.000  O
  O16      1.0000 0.62780  0.75000  0.27880  Biso   1.000  O
  H9       1.0000 0.64280  0.85450  0.75400  Biso   1.000  H
  H10      1.0000 0.35720  0.35450  0.74600  Biso   1.000  H
  H11      1.0000 0.35720  0.14550  0.24600  Biso   1.000  H
  H12      1.0000 0.64280  0.64550  0.25400  Biso   1.000  H
  H13      1.0000 0.66940  0.71380  0.86390  Biso   1.000  H
  H14      1.0000 0.33060  0.21380  0.63610  Biso   1.000  H
  H15      1.0000 0.33060  0.28620  0.13610  Biso   1.000  H
  H16      1.0000 0.66940  0.78620  0.36390  Biso   1.000  H
  P1       1.0000 0.38630  0.68660  0.46640  Biso   1.000  P
  P2       1.0000 0.61370  0.18660  0.03360  Biso   1.000  P
  P3       1.0000 0.61370  0.31340  0.53360  Biso   1.000  P
  P4       1.0000 0.38630  0.81340  0.96640  Biso   1.000  P
  S1       1.0000 0.10510  0.95630  0.40020  Biso   1.000  S
  S2       1.0000 0.89490  0.45630  0.09980  Biso   1.000  S
  S3       1.0000 0.89490  0.04370  0.59980  Biso   1.000  S
  S4       1.0000 0.10510  0.54370  0.90020  Biso   1.000  S
