data_image0
_cell_length_a       17.604
_cell_length_b       14.926
_cell_length_c       16.292
_cell_angle_alpha    90
_cell_angle_beta     105.311
_cell_angle_gamma    90

_symmetry_space_group_name_H-M    "P 1"
_symmetry_int_tables_number       1

loop_
  _symmetry_equiv_pos_as_xyz
  'x, y, z'

loop_
  _atom_site_label
  _atom_site_occupancy
  _atom_site_fract_x
  _atom_site_fract_y
  _atom_site_fract_z
  _atom_site_thermal_displace_type
  _atom_site_B_iso_or_equiv
  _atom_site_type_symbol
  Pb1      1.0000 0.24069  0.23358  0.22610  Biso   1.000  Pb
  Pb2      1.0000 0.75931  0.73358  0.27390  Biso   1.000  Pb
  Pb3      1.0000 0.75931  0.76642  0.77390  Biso   1.000  Pb
  Pb4      1.0000 0.24069  0.26642  0.72610  Biso   1.000  Pb
  Pb5      1.0000 0.23847  0.24436  0.47707  Biso   1.000  Pb
  Pb6      1.0000 0.76153  0.74436  0.02293  Biso   1.000  Pb
  Pb7      1.0000 0.76153  0.75564  0.52293  Biso   1.000  Pb
  Pb8      1.0000 0.23847  0.25564  0.97707  Biso   1.000  Pb
  I1       1.0000 0.31648  0.09521  0.10967  Biso   1.000  I
  I2       1.0000 0.68352  0.59521  0.39033  Biso   1.000  I
  I3       1.0000 0.68352  0.90479  0.89033  Biso   1.000  I
  I4       1.0000 0.31648  0.40479  0.60967  Biso   1.000  I
  I5       1.0000 0.32834  0.38259  0.13617  Biso   1.000  I
  I6       1.0000 0.67166  0.88259  0.36383  Biso   1.000  I
  I7       1.0000 0.67166  0.61741  0.86383  Biso   1.000  I
  I8       1.0000 0.32834  0.11741  0.63617  Biso   1.000  I
  I9       1.0000 0.09065  0.24928  0.06161  Biso   1.000  I
  I10      1.0000 0.90935  0.74928  0.43839  Biso   1.000  I
  I11      1.0000 0.90935  0.75072  0.93839  Biso   1.000  I
  I12      1.0000 0.09065  0.25072  0.56161  Biso   1.000  I
  I13      1.0000 0.16689  0.08819  0.33723  Biso   1.000  I
  I14      1.0000 0.83311  0.58819  0.16277  Biso   1.000  I
  I15      1.0000 0.83311  0.91181  0.66277  Biso   1.000  I
  I16      1.0000 0.16689  0.41181  0.83723  Biso   1.000  I
  I17      1.0000 0.16276  0.37781  0.31776  Biso   1.000  I
  I18      1.0000 0.83724  0.87781  0.18224  Biso   1.000  I
  I19      1.0000 0.83724  0.62219  0.68224  Biso   1.000  I
  I20      1.0000 0.16276  0.12219  0.81776  Biso   1.000  I
  I21      1.0000 0.38572  0.23693  0.39637  Biso   1.000  I
  I22      1.0000 0.61428  0.73693  0.10363  Biso   1.000  I
  I23      1.0000 0.61428  0.76307  0.60363  Biso   1.000  I
  I24      1.0000 0.38572  0.26307  0.89637  Biso   1.000  I
  Cu1      1.0000 0.75060  0.26115  0.55573  Biso   1.000  Cu
  Cu2      1.0000 0.24940  0.76115  0.94427  Biso   1.000  Cu
  Cu3      1.0000 0.24940  0.73885  0.44427  Biso   1.000  Cu
  Cu4      1.0000 0.75060  0.23885  0.05573  Biso   1.000  Cu
  C1       1.0000 0.67750  0.43790  0.59430  Biso   1.000  C
  C2       1.0000 0.32250  0.93790  0.90570  Biso   1.000  C
  C3       1.0000 0.32250  0.56210  0.40570  Biso   1.000  C
  C4       1.0000 0.67750  0.06210  0.09430  Biso   1.000  C
  H1       1.0000 0.72550  0.46480  0.59590  Biso   1.000  H
  H2       1.0000 0.27450  0.96480  0.90410  Biso   1.000  H
  H3       1.0000 0.27450  0.53520  0.40410  Biso   1.000  H
  H4       1.0000 0.72550  0.03520  0.09590  Biso   1.000  H
  C5       1.0000 0.61710  0.49040  0.60320  Biso   1.000  C
  C6       1.0000 0.38290  0.99040  0.89680  Biso   1.000  C
  C7       1.0000 0.38290  0.50960  0.39680  Biso   1.000  C
  C8       1.0000 0.61710  0.00960  0.10320  Biso   1.000  C
  H5       1.0000 0.62450  0.55170  0.61200  Biso   1.000  H
  H6       1.0000 0.37550  0.05170  0.88800  Biso   1.000  H
  H7       1.0000 0.37550  0.44830  0.38800  Biso   1.000  H
  H8       1.0000 0.62450  0.94830  0.11200  Biso   1.000  H
  C9       1.0000 0.54440  0.45260  0.59940  Biso   1.000  C
  C10      1.0000 0.45560  0.95260  0.90060  Biso   1.000  C
  C11      1.0000 0.45560  0.54740  0.40060  Biso   1.000  C
  C12      1.0000 0.54440  0.04740  0.09940  Biso   1.000  C
  H9       1.0000 0.50290  0.48820  0.60540  Biso   1.000  H
  H10      1.0000 0.49710  0.98820  0.89460  Biso   1.000  H
  H11      1.0000 0.49710  0.51180  0.39460  Biso   1.000  H
  H12      1.0000 0.50290  0.01180  0.10540  Biso   1.000  H
  C13      1.0000 0.53410  0.35990  0.58620  Biso   1.000  C
  C14      1.0000 0.46590  0.85990  0.91380  Biso   1.000  C
  C15      1.0000 0.46590  0.64010  0.41380  Biso   1.000  C
  C16      1.0000 0.53410  0.14010  0.08620  Biso   1.000  C
  H13      1.0000 0.48540  0.33310  0.58140  Biso   1.000  H
  H14      1.0000 0.51460  0.83310  0.91860  Biso   1.000  H
  H15      1.0000 0.51460  0.66690  0.41860  Biso   1.000  H
  H16      1.0000 0.48540  0.16690  0.08140  Biso   1.000  H
  C17      1.0000 0.59990  0.30850  0.58050  Biso   1.000  C
  C18      1.0000 0.40010  0.80850  0.91950  Biso   1.000  C
  C19      1.0000 0.40010  0.69150  0.41950  Biso   1.000  C
  C20      1.0000 0.59990  0.19150  0.08050  Biso   1.000  C
  C21      1.0000 0.59980  0.20940  0.57610  Biso   1.000  C
  C22      1.0000 0.40020  0.70940  0.92390  Biso   1.000  C
  C23      1.0000 0.40020  0.79060  0.42390  Biso   1.000  C
  C24      1.0000 0.59980  0.29060  0.07610  Biso   1.000  C
  C25      1.0000 0.54050  0.15650  0.58820  Biso   1.000  C
  C26      1.0000 0.45950  0.65650  0.91180  Biso   1.000  C
  C27      1.0000 0.45950  0.84350  0.41180  Biso   1.000  C
  C28      1.0000 0.54050  0.34350  0.08820  Biso   1.000  C
  H17      1.0000 0.49490  0.18300  0.59550  Biso   1.000  H
  H18      1.0000 0.50510  0.68300  0.90450  Biso   1.000  H
  H19      1.0000 0.50510  0.81700  0.40450  Biso   1.000  H
  H20      1.0000 0.49490  0.31700  0.09550  Biso   1.000  H
  C29      1.0000 0.54670  0.06520  0.58970  Biso   1.000  C
  C30      1.0000 0.45330  0.56520  0.91030  Biso   1.000  C
  C31      1.0000 0.45330  0.93480  0.41030  Biso   1.000  C
  C32      1.0000 0.54670  0.43480  0.08970  Biso   1.000  C
  H21      1.0000 0.50880  0.02860  0.60300  Biso   1.000  H
  H22      1.0000 0.49120  0.52860  0.89700  Biso   1.000  H
  H23      1.0000 0.49120  0.97140  0.39700  Biso   1.000  H
  H24      1.0000 0.50880  0.47140  0.10300  Biso   1.000  H
  C33      1.0000 0.61470  0.02950  0.56970  Biso   1.000  C
  C34      1.0000 0.38530  0.52950  0.93030  Biso   1.000  C
  C35      1.0000 0.38530  0.97050  0.43030  Biso   1.000  C
  C36      1.0000 0.61470  0.47050  0.06970  Biso   1.000  C
  H25      1.0000 0.62100  0.96780  0.56710  Biso   1.000  H
  H26      1.0000 0.37900  0.46780  0.93290  Biso   1.000  H
  H27      1.0000 0.37900  0.03220  0.43290  Biso   1.000  H
  H28      1.0000 0.62100  0.53220  0.06710  Biso   1.000  H
  C37      1.0000 0.67080  0.08550  0.55440  Biso   1.000  C
  C38      1.0000 0.32920  0.58550  0.94560  Biso   1.000  C
  C39      1.0000 0.32920  0.91450  0.44560  Biso   1.000  C
  C40      1.0000 0.67080  0.41450  0.05440  Biso   1.000  C
  H29      1.0000 0.71470  0.06100  0.54120  Biso   1.000  H
  H30      1.0000 0.28530  0.56100  0.95880  Biso   1.000  H
  H31      1.0000 0.28530  0.93900  0.45880  Biso   1.000  H
  H32      1.0000 0.71470  0.43900  0.04120  Biso   1.000  H
  C41      1.0000 0.61650  0.33470  0.36700  Biso   1.000  C
  C42      1.0000 0.38350  0.83470  0.13300  Biso   1.000  C
  C43      1.0000 0.38350  0.66530  0.63300  Biso   1.000  C
  C44      1.0000 0.61650  0.16530  0.86700  Biso   1.000  C
  H33      1.0000 0.61510  0.39360  0.38530  Biso   1.000  H
  H34      1.0000 0.38490  0.89360  0.11470  Biso   1.000  H
  H35      1.0000 0.38490  0.60640  0.61470  Biso   1.000  H
  H36      1.0000 0.61510  0.10640  0.88530  Biso   1.000  H
  C45      1.0000 0.55020  0.30200  0.31130  Biso   1.000  C
  C46      1.0000 0.44980  0.80200  0.18870  Biso   1.000  C
  C47      1.0000 0.44980  0.69800  0.68870  Biso   1.000  C
  C48      1.0000 0.55020  0.19800  0.81130  Biso   1.000  C
  H37      1.0000 0.50550  0.33710  0.29150  Biso   1.000  H
  H38      1.0000 0.49450  0.83710  0.20850  Biso   1.000  H
  H39      1.0000 0.49450  0.66290  0.70850  Biso   1.000  H
  H40      1.0000 0.50550  0.16290  0.79150  Biso   1.000  H
  C49      1.0000 0.55320  0.21530  0.28620  Biso   1.000  C
  C50      1.0000 0.44680  0.71530  0.21380  Biso   1.000  C
  C51      1.0000 0.44680  0.78470  0.71380  Biso   1.000  C
  C52      1.0000 0.55320  0.28470  0.78620  Biso   1.000  C
  H41      1.0000 0.50830  0.18890  0.25140  Biso   1.000  H
  H42      1.0000 0.49170  0.68890  0.24860  Biso   1.000  H
  H43      1.0000 0.49170  0.81110  0.74860  Biso   1.000  H
  H44      1.0000 0.50830  0.31110  0.75140  Biso   1.000  H
  C53      1.0000 0.62180  0.16610  0.31150  Biso   1.000  C
  C54      1.0000 0.37820  0.66610  0.18850  Biso   1.000  C
  C55      1.0000 0.37820  0.83390  0.68850  Biso   1.000  C
  C56      1.0000 0.62180  0.33390  0.81150  Biso   1.000  C
  H45      1.0000 0.62490  0.10890  0.29000  Biso   1.000  H
  H46      1.0000 0.37510  0.60890  0.21000  Biso   1.000  H
  H47      1.0000 0.37510  0.89110  0.71000  Biso   1.000  H
  H48      1.0000 0.62490  0.39110  0.79000  Biso   1.000  H
  C57      1.0000 0.68750  0.20470  0.37120  Biso   1.000  C
  C58      1.0000 0.31250  0.70470  0.12880  Biso   1.000  C
  C59      1.0000 0.31250  0.79530  0.62880  Biso   1.000  C
  C60      1.0000 0.68750  0.29530  0.87120  Biso   1.000  C
  C61      1.0000 0.76350  0.15680  0.40390  Biso   1.000  C
  C62      1.0000 0.23650  0.65680  0.09610  Biso   1.000  C
  C63      1.0000 0.23650  0.84320  0.59610  Biso   1.000  C
  C64      1.0000 0.76350  0.34320  0.90390  Biso   1.000  C
  C65      1.0000 0.79240  0.09490  0.35640  Biso   1.000  C
  C66      1.0000 0.20760  0.59490  0.14360  Biso   1.000  C
  C67      1.0000 0.20760  0.90510  0.64360  Biso   1.000  C
  C68      1.0000 0.79240  0.40510  0.85640  Biso   1.000  C
  H49      1.0000 0.76390  0.08170  0.30110  Biso   1.000  H
  H50      1.0000 0.23610  0.58170  0.19890  Biso   1.000  H
  H51      1.0000 0.23610  0.91830  0.69890  Biso   1.000  H
  H52      1.0000 0.76390  0.41830  0.80110  Biso   1.000  H
  C69      1.0000 0.86300  0.05330  0.39110  Biso   1.000  C
  C70      1.0000 0.13700  0.55330  0.10890  Biso   1.000  C
  C71      1.0000 0.13700  0.94670  0.60890  Biso   1.000  C
  C72      1.0000 0.86300  0.44670  0.89110  Biso   1.000  C
  H53      1.0000 0.88250  0.01050  0.36040  Biso   1.000  H
  H54      1.0000 0.11750  0.51050  0.13960  Biso   1.000  H
  H55      1.0000 0.11750  0.98950  0.63960  Biso   1.000  H
  H56      1.0000 0.88250  0.48950  0.86040  Biso   1.000  H
  C73      1.0000 0.90460  0.07670  0.47300  Biso   1.000  C
  C74      1.0000 0.09540  0.57670  0.02700  Biso   1.000  C
  C75      1.0000 0.09540  0.92330  0.52700  Biso   1.000  C
  C76      1.0000 0.90460  0.42330  0.97300  Biso   1.000  C
  H57      1.0000 0.95370  0.05180  0.49780  Biso   1.000  H
  H58      1.0000 0.04630  0.55180  0.00220  Biso   1.000  H
  H59      1.0000 0.04630  0.94820  0.50220  Biso   1.000  H
  H60      1.0000 0.95370  0.44820  0.99780  Biso   1.000  H
  C77      1.0000 0.87160  0.13730  0.51640  Biso   1.000  C
  C78      1.0000 0.12840  0.63730  0.98360  Biso   1.000  C
  C79      1.0000 0.12840  0.86270  0.48360  Biso   1.000  C
  C80      1.0000 0.87160  0.36270  0.01640  Biso   1.000  C
  H61      1.0000 0.89900  0.15150  0.57190  Biso   1.000  H
  H62      1.0000 0.10100  0.65150  0.92810  Biso   1.000  H
  H63      1.0000 0.10100  0.84850  0.42810  Biso   1.000  H
  H64      1.0000 0.89900  0.34850  0.07190  Biso   1.000  H
  C81      1.0000 0.83610  0.41300  0.50980  Biso   1.000  C
  C82      1.0000 0.16390  0.91300  0.99020  Biso   1.000  C
  C83      1.0000 0.16390  0.58700  0.49020  Biso   1.000  C
  C84      1.0000 0.83610  0.08700  0.00980  Biso   1.000  C
  H65      1.0000 0.79540  0.41150  0.46010  Biso   1.000  H
  H66      1.0000 0.20460  0.91150  0.03990  Biso   1.000  H
  H67      1.0000 0.20460  0.58850  0.53990  Biso   1.000  H
  H68      1.0000 0.79540  0.08850  0.96010  Biso   1.000  H
  C85      1.0000 0.89240  0.47820  0.51950  Biso   1.000  C
  C86      1.0000 0.10760  0.97820  0.98050  Biso   1.000  C
  C87      1.0000 0.10760  0.52180  0.48050  Biso   1.000  C
  C88      1.0000 0.89240  0.02180  0.01950  Biso   1.000  C
  H69      1.0000 0.88870  0.52280  0.47880  Biso   1.000  H
  H70      1.0000 0.11130  0.02280  0.02120  Biso   1.000  H
  H71      1.0000 0.11130  0.47720  0.52120  Biso   1.000  H
  H72      1.0000 0.88870  0.97720  0.97880  Biso   1.000  H
  C89      1.0000 0.95690  0.47590  0.59390  Biso   1.000  C
  C90      1.0000 0.04310  0.97590  0.90610  Biso   1.000  C
  C91      1.0000 0.04310  0.52410  0.40610  Biso   1.000  C
  C92      1.0000 0.95690  0.02410  0.09390  Biso   1.000  C
  H73      1.0000 0.99680  0.51850  0.60240  Biso   1.000  H
  H74      1.0000 0.00320  0.01850  0.89760  Biso   1.000  H
  H75      1.0000 0.00320  0.48150  0.39760  Biso   1.000  H
  H76      1.0000 0.99680  0.98150  0.10240  Biso   1.000  H
  C93      1.0000 0.95880  0.40890  0.65310  Biso   1.000  C
  C94      1.0000 0.04120  0.90890  0.84690  Biso   1.000  C
  C95      1.0000 0.04120  0.59110  0.34690  Biso   1.000  C
  C96      1.0000 0.95880  0.09110  0.15310  Biso   1.000  C
  H77      1.0000 0.00190  0.40400  0.70030  Biso   1.000  H
  H78      1.0000 0.99810  0.90400  0.79970  Biso   1.000  H
  H79      1.0000 0.99810  0.59600  0.29970  Biso   1.000  H
  H80      1.0000 0.00190  0.09600  0.20030  Biso   1.000  H
  C97      1.0000 0.89730  0.34920  0.64260  Biso   1.000  C
  C98      1.0000 0.10270  0.84920  0.85740  Biso   1.000  C
  C99      1.0000 0.10270  0.65080  0.35740  Biso   1.000  C
  C100     1.0000 0.89730  0.15080  0.14260  Biso   1.000  C
  C101     1.0000 0.89040  0.27800  0.70600  Biso   1.000  C
  C102     1.0000 0.10960  0.77800  0.79400  Biso   1.000  C
  C103     1.0000 0.10960  0.72200  0.29400  Biso   1.000  C
  C104     1.0000 0.89040  0.22200  0.20600  Biso   1.000  C
  C105     1.0000 0.94720  0.26820  0.78220  Biso   1.000  C
  C106     1.0000 0.05280  0.76820  0.71780  Biso   1.000  C
  C107     1.0000 0.05280  0.73180  0.21780  Biso   1.000  C
  C108     1.0000 0.94720  0.23180  0.28220  Biso   1.000  C
  H81      1.0000 0.98930  0.30790  0.79660  Biso   1.000  H
  H82      1.0000 0.01070  0.80790  0.70340  Biso   1.000  H
  H83      1.0000 0.01070  0.69210  0.20340  Biso   1.000  H
  H84      1.0000 0.98930  0.19210  0.29660  Biso   1.000  H
  C109     1.0000 0.94220  0.20780  0.83000  Biso   1.000  C
  C110     1.0000 0.05780  0.70780  0.67000  Biso   1.000  C
  C111     1.0000 0.05780  0.79220  0.17000  Biso   1.000  C
  C112     1.0000 0.94220  0.29220  0.33000  Biso   1.000  C
  H85      1.0000 0.98380  0.19700  0.87760  Biso   1.000  H
  H86      1.0000 0.01620  0.69700  0.62240  Biso   1.000  H
  H87      1.0000 0.01620  0.80300  0.12240  Biso   1.000  H
  H88      1.0000 0.98380  0.30300  0.37760  Biso   1.000  H
  C113     1.0000 0.87280  0.15250  0.81460  Biso   1.000  C
  C114     1.0000 0.12720  0.65250  0.68540  Biso   1.000  C
  C115     1.0000 0.12720  0.84750  0.18540  Biso   1.000  C
  C116     1.0000 0.87280  0.34750  0.31460  Biso   1.000  C
  H89      1.0000 0.86540  0.11090  0.85420  Biso   1.000  H
  H90      1.0000 0.13460  0.61090  0.64580  Biso   1.000  H
  H91      1.0000 0.13460  0.88910  0.14580  Biso   1.000  H
  H92      1.0000 0.86540  0.38910  0.35420  Biso   1.000  H
  C117     1.0000 0.81770  0.16490  0.73720  Biso   1.000  C
  C118     1.0000 0.18230  0.66490  0.76280  Biso   1.000  C
  C119     1.0000 0.18230  0.83510  0.26280  Biso   1.000  C
  C120     1.0000 0.81770  0.33510  0.23720  Biso   1.000  C
  H93      1.0000 0.77370  0.12790  0.72220  Biso   1.000  H
  H94      1.0000 0.22630  0.62790  0.77780  Biso   1.000  H
  H95      1.0000 0.22630  0.87210  0.27780  Biso   1.000  H
  H96      1.0000 0.77370  0.37210  0.22220  Biso   1.000  H
  N1       1.0000 0.67070  0.34880  0.58310  Biso   1.000  N
  N2       1.0000 0.32930  0.84880  0.91690  Biso   1.000  N
  N3       1.0000 0.32930  0.65120  0.41690  Biso   1.000  N
  N4       1.0000 0.67070  0.15120  0.08310  Biso   1.000  N
  N5       1.0000 0.66450  0.17420  0.55770  Biso   1.000  N
  N6       1.0000 0.33550  0.67420  0.94230  Biso   1.000  N
  N7       1.0000 0.33550  0.82580  0.44230  Biso   1.000  N
  N8       1.0000 0.66450  0.32580  0.05770  Biso   1.000  N
  N9       1.0000 0.68340  0.28860  0.39750  Biso   1.000  N
  N10      1.0000 0.31660  0.78860  0.10250  Biso   1.000  N
  N11      1.0000 0.31660  0.71140  0.60250  Biso   1.000  N
  N12      1.0000 0.68340  0.21140  0.89750  Biso   1.000  N
  N13      1.0000 0.80190  0.17760  0.48330  Biso   1.000  N
  N14      1.0000 0.19810  0.67760  0.01670  Biso   1.000  N
  N15      1.0000 0.19810  0.82240  0.51670  Biso   1.000  N
  N16      1.0000 0.80190  0.32240  0.98330  Biso   1.000  N
  N17      1.0000 0.83800  0.35100  0.57010  Biso   1.000  N
  N18      1.0000 0.16200  0.85100  0.92990  Biso   1.000  N
  N19      1.0000 0.16200  0.64900  0.42990  Biso   1.000  N
  N20      1.0000 0.83800  0.14900  0.07010  Biso   1.000  N
  N21      1.0000 0.82690  0.22870  0.68430  Biso   1.000  N
  N22      1.0000 0.17310  0.72870  0.81570  Biso   1.000  N
  N23      1.0000 0.17310  0.77130  0.31570  Biso   1.000  N
  N24      1.0000 0.82690  0.27130  0.18430  Biso   1.000  N
