data_image0
_cell_length_a       17.515
_cell_length_b       14.863
_cell_length_c       16.226
_cell_angle_alpha    90
_cell_angle_beta     105.302
_cell_angle_gamma    90

_symmetry_space_group_name_H-M    "P 1"
_symmetry_int_tables_number       1

loop_
  _symmetry_equiv_pos_as_xyz
  'x, y, z'

loop_
  _atom_site_label
  _atom_site_occupancy
  _atom_site_fract_x
  _atom_site_fract_y
  _atom_site_fract_z
  _atom_site_thermal_displace_type
  _atom_site_B_iso_or_equiv
  _atom_site_type_symbol
  Pb1      1.0000 0.24093  0.26654  0.22628  Biso   1.000  Pb
  Pb2      1.0000 0.75907  0.76654  0.27372  Biso   1.000  Pb
  Pb3      1.0000 0.75907  0.73346  0.77372  Biso   1.000  Pb
  Pb4      1.0000 0.24093  0.23346  0.72628  Biso   1.000  Pb
  Pb5      1.0000 0.23872  0.25614  0.47732  Biso   1.000  Pb
  Pb6      1.0000 0.76128  0.75614  0.02268  Biso   1.000  Pb
  Pb7      1.0000 0.76128  0.74386  0.52268  Biso   1.000  Pb
  Pb8      1.0000 0.23872  0.24386  0.97732  Biso   1.000  Pb
  I1       1.0000 0.38587  0.26360  0.39658  Biso   1.000  I
  I2       1.0000 0.61413  0.76360  0.10342  Biso   1.000  I
  I3       1.0000 0.61413  0.73640  0.60342  Biso   1.000  I
  I4       1.0000 0.38587  0.23640  0.89658  Biso   1.000  I
  I5       1.0000 0.16322  0.12247  0.31787  Biso   1.000  I
  I6       1.0000 0.83678  0.62247  0.18213  Biso   1.000  I
  I7       1.0000 0.83678  0.87753  0.68213  Biso   1.000  I
  I8       1.0000 0.16322  0.37753  0.81787  Biso   1.000  I
  I9       1.0000 0.16689  0.41178  0.33687  Biso   1.000  I
  I10      1.0000 0.83311  0.91178  0.16313  Biso   1.000  I
  I11      1.0000 0.83311  0.58822  0.66313  Biso   1.000  I
  I12      1.0000 0.16689  0.08822  0.83687  Biso   1.000  I
  I13      1.0000 0.09096  0.25087  0.06215  Biso   1.000  I
  I14      1.0000 0.90904  0.75087  0.43785  Biso   1.000  I
  I15      1.0000 0.90904  0.74913  0.93785  Biso   1.000  I
  I16      1.0000 0.09096  0.24913  0.56215  Biso   1.000  I
  I17      1.0000 0.32849  0.11725  0.13632  Biso   1.000  I
  I18      1.0000 0.67151  0.61725  0.36368  Biso   1.000  I
  I19      1.0000 0.67151  0.88275  0.86368  Biso   1.000  I
  I20      1.0000 0.32849  0.38275  0.63632  Biso   1.000  I
  I21      1.0000 0.31704  0.40428  0.10934  Biso   1.000  I
  I22      1.0000 0.68296  0.90428  0.39066  Biso   1.000  I
  I23      1.0000 0.68296  0.59572  0.89066  Biso   1.000  I
  I24      1.0000 0.31704  0.09572  0.60934  Biso   1.000  I
  Cu1      1.0000 0.75082  0.26162  0.05479  Biso   1.000  Cu
  Cu2      1.0000 0.24918  0.76162  0.44521  Biso   1.000  Cu
  Cu3      1.0000 0.24918  0.73838  0.94521  Biso   1.000  Cu
  Cu4      1.0000 0.75082  0.23838  0.55479  Biso   1.000  Cu
  N1       1.0000 0.66450  0.17500  0.05780  Biso   1.000  N
  N2       1.0000 0.33550  0.67500  0.44220  Biso   1.000  N
  N3       1.0000 0.33550  0.82500  0.94220  Biso   1.000  N
  N4       1.0000 0.66450  0.32500  0.55780  Biso   1.000  N
  N5       1.0000 0.67030  0.34760  0.08290  Biso   1.000  N
  N6       1.0000 0.32970  0.84760  0.41710  Biso   1.000  N
  N7       1.0000 0.32970  0.65240  0.91710  Biso   1.000  N
  N8       1.0000 0.67030  0.15240  0.58290  Biso   1.000  N
  N9       1.0000 0.82660  0.23030  0.18320  Biso   1.000  N
  N10      1.0000 0.17340  0.73030  0.31680  Biso   1.000  N
  N11      1.0000 0.17340  0.76970  0.81680  Biso   1.000  N
  N12      1.0000 0.82660  0.26970  0.68320  Biso   1.000  N
  N13      1.0000 0.83670  0.35400  0.06650  Biso   1.000  N
  N14      1.0000 0.16330  0.85400  0.43350  Biso   1.000  N
  N15      1.0000 0.16330  0.64600  0.93350  Biso   1.000  N
  N16      1.0000 0.83670  0.14600  0.56650  Biso   1.000  N
  N17      1.0000 0.80200  0.17840  0.98190  Biso   1.000  N
  N18      1.0000 0.19800  0.67840  0.51810  Biso   1.000  N
  N19      1.0000 0.19800  0.82160  0.01810  Biso   1.000  N
  N20      1.0000 0.80200  0.32160  0.48190  Biso   1.000  N
  N21      1.0000 0.68450  0.28790  0.89730  Biso   1.000  N
  N22      1.0000 0.31550  0.78790  0.60270  Biso   1.000  N
  N23      1.0000 0.31550  0.71210  0.10270  Biso   1.000  N
  N24      1.0000 0.68450  0.21210  0.39730  Biso   1.000  N
  C1       1.0000 0.67060  0.08430  0.05300  Biso   1.000  C
  C2       1.0000 0.32940  0.58430  0.44700  Biso   1.000  C
  C3       1.0000 0.32940  0.91570  0.94700  Biso   1.000  C
  C4       1.0000 0.67060  0.41570  0.55300  Biso   1.000  C
  H1       1.0000 0.71420  0.05950  0.03880  Biso   1.000  H
  H2       1.0000 0.28580  0.55950  0.46120  Biso   1.000  H
  H3       1.0000 0.28580  0.94050  0.96120  Biso   1.000  H
  H4       1.0000 0.71420  0.44050  0.53880  Biso   1.000  H
  C5       1.0000 0.61470  0.02950  0.06840  Biso   1.000  C
  C6       1.0000 0.38530  0.52950  0.43160  Biso   1.000  C
  C7       1.0000 0.38530  0.97050  0.93160  Biso   1.000  C
  C8       1.0000 0.61470  0.47050  0.56840  Biso   1.000  C
  H5       1.0000 0.61990  0.96760  0.06380  Biso   1.000  H
  H6       1.0000 0.38010  0.46760  0.43620  Biso   1.000  H
  H7       1.0000 0.38010  0.03240  0.93620  Biso   1.000  H
  H8       1.0000 0.61990  0.53240  0.56380  Biso   1.000  H
  C9       1.0000 0.55170  0.06270  0.09030  Biso   1.000  C
  C10      1.0000 0.44830  0.56270  0.40970  Biso   1.000  C
  C11      1.0000 0.44830  0.93730  0.90970  Biso   1.000  C
  C12      1.0000 0.55170  0.43730  0.59030  Biso   1.000  C
  H9       1.0000 0.51560  0.02440  0.10540  Biso   1.000  H
  H10      1.0000 0.48440  0.52440  0.39460  Biso   1.000  H
  H11      1.0000 0.48440  0.97560  0.89460  Biso   1.000  H
  H12      1.0000 0.51560  0.47560  0.60540  Biso   1.000  H
  C13      1.0000 0.54110  0.15710  0.09020  Biso   1.000  C
  C14      1.0000 0.45890  0.65710  0.40980  Biso   1.000  C
  C15      1.0000 0.45890  0.84290  0.90980  Biso   1.000  C
  C16      1.0000 0.54110  0.34290  0.59020  Biso   1.000  C
  H13      1.0000 0.49520  0.18240  0.09860  Biso   1.000  H
  H14      1.0000 0.50480  0.68240  0.40140  Biso   1.000  H
  H15      1.0000 0.50480  0.81760  0.90140  Biso   1.000  H
  H16      1.0000 0.49520  0.31760  0.59860  Biso   1.000  H
  C17      1.0000 0.60210  0.21070  0.07700  Biso   1.000  C
  C18      1.0000 0.39790  0.71070  0.42300  Biso   1.000  C
  C19      1.0000 0.39790  0.78930  0.92300  Biso   1.000  C
  C20      1.0000 0.60210  0.28930  0.57700  Biso   1.000  C
  C21      1.0000 0.60220  0.30840  0.08200  Biso   1.000  C
  C22      1.0000 0.39780  0.80840  0.41800  Biso   1.000  C
  C23      1.0000 0.39780  0.69160  0.91800  Biso   1.000  C
  C24      1.0000 0.60220  0.19160  0.58200  Biso   1.000  C
  C25      1.0000 0.53530  0.35950  0.08560  Biso   1.000  C
  C26      1.0000 0.46470  0.85950  0.41440  Biso   1.000  C
  C27      1.0000 0.46470  0.64050  0.91440  Biso   1.000  C
  C28      1.0000 0.53530  0.14050  0.58560  Biso   1.000  C
  H17      1.0000 0.48630  0.33270  0.08010  Biso   1.000  H
  H18      1.0000 0.51370  0.83270  0.41990  Biso   1.000  H
  H19      1.0000 0.51370  0.66730  0.91990  Biso   1.000  H
  H20      1.0000 0.48630  0.16730  0.58010  Biso   1.000  H
  C29      1.0000 0.54590  0.45160  0.09760  Biso   1.000  C
  C30      1.0000 0.45410  0.95160  0.40240  Biso   1.000  C
  C31      1.0000 0.45410  0.54840  0.90240  Biso   1.000  C
  C32      1.0000 0.54590  0.04840  0.59760  Biso   1.000  C
  H21      1.0000 0.50360  0.48640  0.10360  Biso   1.000  H
  H22      1.0000 0.49640  0.98640  0.39640  Biso   1.000  H
  H23      1.0000 0.49640  0.51360  0.89640  Biso   1.000  H
  H24      1.0000 0.50360  0.01360  0.60360  Biso   1.000  H
  C33      1.0000 0.61610  0.49260  0.10100  Biso   1.000  C
  C34      1.0000 0.38390  0.99260  0.39900  Biso   1.000  C
  C35      1.0000 0.38390  0.50740  0.89900  Biso   1.000  C
  C36      1.0000 0.61610  0.00740  0.60100  Biso   1.000  C
  H25      1.0000 0.62250  0.55450  0.10750  Biso   1.000  H
  H26      1.0000 0.37750  0.05450  0.39250  Biso   1.000  H
  H27      1.0000 0.37750  0.44550  0.89250  Biso   1.000  H
  H28      1.0000 0.62250  0.94550  0.60750  Biso   1.000  H
  C37      1.0000 0.67600  0.43840  0.09430  Biso   1.000  C
  C38      1.0000 0.32400  0.93840  0.40570  Biso   1.000  C
  C39      1.0000 0.32400  0.56160  0.90570  Biso   1.000  C
  C40      1.0000 0.67600  0.06160  0.59430  Biso   1.000  C
  H29      1.0000 0.72480  0.46500  0.09770  Biso   1.000  H
  H30      1.0000 0.27520  0.96500  0.40230  Biso   1.000  H
  H31      1.0000 0.27520  0.53500  0.90230  Biso   1.000  H
  H32      1.0000 0.72480  0.03500  0.59770  Biso   1.000  H
  C41      1.0000 0.81730  0.16850  0.23680  Biso   1.000  C
  C42      1.0000 0.18270  0.66850  0.26320  Biso   1.000  C
  C43      1.0000 0.18270  0.83150  0.76320  Biso   1.000  C
  C44      1.0000 0.81730  0.33150  0.73680  Biso   1.000  C
  H33      1.0000 0.77150  0.13380  0.22480  Biso   1.000  H
  H34      1.0000 0.22850  0.63380  0.27520  Biso   1.000  H
  H35      1.0000 0.22850  0.86620  0.77520  Biso   1.000  H
  H36      1.0000 0.77150  0.36620  0.72480  Biso   1.000  H
  C45      1.0000 0.87710  0.15490  0.31300  Biso   1.000  C
  C46      1.0000 0.12290  0.65490  0.18700  Biso   1.000  C
  C47      1.0000 0.12290  0.84510  0.68700  Biso   1.000  C
  C48      1.0000 0.87710  0.34510  0.81300  Biso   1.000  C
  H37      1.0000 0.87200  0.10920  0.35040  Biso   1.000  H
  H38      1.0000 0.12800  0.60920  0.14960  Biso   1.000  H
  H39      1.0000 0.12800  0.89080  0.64960  Biso   1.000  H
  H40      1.0000 0.87200  0.39080  0.85040  Biso   1.000  H
  C49      1.0000 0.94230  0.20870  0.33200  Biso   1.000  C
  C50      1.0000 0.05770  0.70870  0.16800  Biso   1.000  C
  C51      1.0000 0.05770  0.79130  0.66800  Biso   1.000  C
  C52      1.0000 0.94230  0.29130  0.83200  Biso   1.000  C
  H41      1.0000 0.98180  0.20060  0.38250  Biso   1.000  H
  H42      1.0000 0.01820  0.70060  0.11750  Biso   1.000  H
  H43      1.0000 0.01820  0.79940  0.61750  Biso   1.000  H
  H44      1.0000 0.98180  0.29940  0.88250  Biso   1.000  H
  C53      1.0000 0.94820  0.26890  0.28060  Biso   1.000  C
  C54      1.0000 0.05180  0.76890  0.21940  Biso   1.000  C
  C55      1.0000 0.05180  0.73110  0.71940  Biso   1.000  C
  C56      1.0000 0.94820  0.23110  0.78060  Biso   1.000  C
  H45      1.0000 0.99230  0.30630  0.29450  Biso   1.000  H
  H46      1.0000 0.00770  0.80630  0.20550  Biso   1.000  H
  H47      1.0000 0.00770  0.69370  0.70550  Biso   1.000  H
  H48      1.0000 0.99230  0.19370  0.79450  Biso   1.000  H
  C57      1.0000 0.89220  0.28260  0.20410  Biso   1.000  C
  C58      1.0000 0.10780  0.78260  0.29590  Biso   1.000  C
  C59      1.0000 0.10780  0.71740  0.79590  Biso   1.000  C
  C60      1.0000 0.89220  0.21740  0.70410  Biso   1.000  C
  C61      1.0000 0.89550  0.35190  0.13840  Biso   1.000  C
  C62      1.0000 0.10450  0.85190  0.36160  Biso   1.000  C
  C63      1.0000 0.10450  0.64810  0.86160  Biso   1.000  C
  C64      1.0000 0.89550  0.14810  0.63840  Biso   1.000  C
  C65      1.0000 0.95800  0.41310  0.14810  Biso   1.000  C
  C66      1.0000 0.04200  0.91310  0.35190  Biso   1.000  C
  C67      1.0000 0.04200  0.58690  0.85190  Biso   1.000  C
  C68      1.0000 0.95800  0.08690  0.64810  Biso   1.000  C
  H49      1.0000 0.00100  0.40980  0.19600  Biso   1.000  H
  H50      1.0000 0.99900  0.90980  0.30400  Biso   1.000  H
  H51      1.0000 0.99900  0.59020  0.80400  Biso   1.000  H
  H52      1.0000 0.00100  0.09020  0.69600  Biso   1.000  H
  C69      1.0000 0.95620  0.47570  0.08950  Biso   1.000  C
  C70      1.0000 0.04380  0.97570  0.41050  Biso   1.000  C
  C71      1.0000 0.04380  0.52430  0.91050  Biso   1.000  C
  C72      1.0000 0.95620  0.02430  0.58950  Biso   1.000  C
  H53      1.0000 0.99750  0.51680  0.09690  Biso   1.000  H
  H54      1.0000 0.00250  0.01680  0.40310  Biso   1.000  H
  H55      1.0000 0.00250  0.48320  0.90310  Biso   1.000  H
  H56      1.0000 0.99750  0.98320  0.59690  Biso   1.000  H
  C73      1.0000 0.89370  0.47990  0.01800  Biso   1.000  C
  C74      1.0000 0.10630  0.97990  0.48200  Biso   1.000  C
  C75      1.0000 0.10630  0.52010  0.98200  Biso   1.000  C
  C76      1.0000 0.89370  0.02010  0.51800  Biso   1.000  C
  H57      1.0000 0.89050  0.52440  0.97690  Biso   1.000  H
  H58      1.0000 0.10950  0.02440  0.52310  Biso   1.000  H
  H59      1.0000 0.10950  0.47560  0.02310  Biso   1.000  H
  H60      1.0000 0.89050  0.97560  0.47690  Biso   1.000  H
  C77      1.0000 0.83500  0.41440  0.00950  Biso   1.000  C
  C78      1.0000 0.16500  0.91440  0.49050  Biso   1.000  C
  C79      1.0000 0.16500  0.58560  0.99050  Biso   1.000  C
  C80      1.0000 0.83500  0.08560  0.50950  Biso   1.000  C
  H61      1.0000 0.79300  0.41450  0.96050  Biso   1.000  H
  H62      1.0000 0.20700  0.91450  0.53950  Biso   1.000  H
  H63      1.0000 0.20700  0.58550  0.03950  Biso   1.000  H
  H64      1.0000 0.79300  0.08550  0.46050  Biso   1.000  H
  C81      1.0000 0.87040  0.13780  0.01510  Biso   1.000  C
  C82      1.0000 0.12960  0.63780  0.48490  Biso   1.000  C
  C83      1.0000 0.12960  0.86220  0.98490  Biso   1.000  C
  C84      1.0000 0.87040  0.36220  0.51510  Biso   1.000  C
  H65      1.0000 0.89750  0.15160  0.07100  Biso   1.000  H
  H66      1.0000 0.10250  0.65160  0.42900  Biso   1.000  H
  H67      1.0000 0.10250  0.84840  0.92900  Biso   1.000  H
  H68      1.0000 0.89750  0.34840  0.57100  Biso   1.000  H
  C85      1.0000 0.90390  0.07650  0.97200  Biso   1.000  C
  C86      1.0000 0.09610  0.57650  0.52800  Biso   1.000  C
  C87      1.0000 0.09610  0.92350  0.02800  Biso   1.000  C
  C88      1.0000 0.90390  0.42350  0.47200  Biso   1.000  C
  H69      1.0000 0.95250  0.05020  0.99760  Biso   1.000  H
  H70      1.0000 0.04750  0.55020  0.50240  Biso   1.000  H
  H71      1.0000 0.04750  0.94980  0.00240  Biso   1.000  H
  H72      1.0000 0.95250  0.44980  0.49760  Biso   1.000  H
  C89      1.0000 0.86340  0.05520  0.88990  Biso   1.000  C
  C90      1.0000 0.13660  0.55520  0.61010  Biso   1.000  C
  C91      1.0000 0.13660  0.94480  0.11010  Biso   1.000  C
  C92      1.0000 0.86340  0.44480  0.38990  Biso   1.000  C
  H73      1.0000 0.88450  0.01450  0.85830  Biso   1.000  H
  H74      1.0000 0.11550  0.51450  0.64170  Biso   1.000  H
  H75      1.0000 0.11550  0.98550  0.14170  Biso   1.000  H
  H76      1.0000 0.88450  0.48550  0.35830  Biso   1.000  H
  C93      1.0000 0.79080  0.09490  0.85470  Biso   1.000  C
  C94      1.0000 0.20920  0.59490  0.64530  Biso   1.000  C
  C95      1.0000 0.20920  0.90510  0.14530  Biso   1.000  C
  C96      1.0000 0.79080  0.40510  0.35470  Biso   1.000  C
  H77      1.0000 0.76170  0.07970  0.79980  Biso   1.000  H
  H78      1.0000 0.23830  0.57970  0.70020  Biso   1.000  H
  H79      1.0000 0.23830  0.92030  0.20020  Biso   1.000  H
  H80      1.0000 0.76170  0.42030  0.29980  Biso   1.000  H
  C97      1.0000 0.76150  0.15830  0.90260  Biso   1.000  C
  C98      1.0000 0.23850  0.65830  0.59740  Biso   1.000  C
  C99      1.0000 0.23850  0.84170  0.09740  Biso   1.000  C
  C100     1.0000 0.76150  0.34170  0.40260  Biso   1.000  C
  C101     1.0000 0.68810  0.20430  0.86820  Biso   1.000  C
  C102     1.0000 0.31190  0.70430  0.63180  Biso   1.000  C
  C103     1.0000 0.31190  0.79570  0.13180  Biso   1.000  C
  C104     1.0000 0.68810  0.29570  0.36820  Biso   1.000  C
  C105     1.0000 0.62130  0.16480  0.81180  Biso   1.000  C
  C106     1.0000 0.37870  0.66480  0.68820  Biso   1.000  C
  C107     1.0000 0.37870  0.83520  0.18820  Biso   1.000  C
  C108     1.0000 0.62130  0.33520  0.31180  Biso   1.000  C
  H81      1.0000 0.62330  0.10590  0.79330  Biso   1.000  H
  H82      1.0000 0.37670  0.60590  0.70670  Biso   1.000  H
  H83      1.0000 0.37670  0.89410  0.20670  Biso   1.000  H
  H84      1.0000 0.62330  0.39410  0.29330  Biso   1.000  H
  C109     1.0000 0.55320  0.21450  0.78460  Biso   1.000  C
  C110     1.0000 0.44680  0.71450  0.71540  Biso   1.000  C
  C111     1.0000 0.44680  0.78550  0.21540  Biso   1.000  C
  C112     1.0000 0.55320  0.28550  0.28460  Biso   1.000  C
  H85      1.0000 0.50830  0.18890  0.74830  Biso   1.000  H
  H86      1.0000 0.49170  0.68890  0.75170  Biso   1.000  H
  H87      1.0000 0.49170  0.81110  0.25170  Biso   1.000  H
  H88      1.0000 0.50830  0.31110  0.24830  Biso   1.000  H
  C113     1.0000 0.55130  0.30140  0.81080  Biso   1.000  C
  C114     1.0000 0.44870  0.80140  0.68920  Biso   1.000  C
  C115     1.0000 0.44870  0.69860  0.18920  Biso   1.000  C
  C116     1.0000 0.55130  0.19860  0.31080  Biso   1.000  C
  H89      1.0000 0.50630  0.33660  0.79060  Biso   1.000  H
  H90      1.0000 0.49370  0.83660  0.70940  Biso   1.000  H
  H91      1.0000 0.49370  0.66340  0.20940  Biso   1.000  H
  H92      1.0000 0.50630  0.16340  0.29060  Biso   1.000  H
  C117     1.0000 0.61640  0.33580  0.86690  Biso   1.000  C
  C118     1.0000 0.38360  0.83580  0.63310  Biso   1.000  C
  C119     1.0000 0.38360  0.66420  0.13310  Biso   1.000  C
  C120     1.0000 0.61640  0.16420  0.36690  Biso   1.000  C
  H93      1.0000 0.61460  0.39470  0.88560  Biso   1.000  H
  H94      1.0000 0.38540  0.89470  0.61440  Biso   1.000  H
  H95      1.0000 0.38540  0.60530  0.11440  Biso   1.000  H
  H96      1.0000 0.61460  0.10530  0.38560  Biso   1.000  H
