data_image0
_cell_length_a       9.9533
_cell_length_b       13.2375
_cell_length_c       13.3971
_cell_angle_alpha    88.813
_cell_angle_beta     69.005
_cell_angle_gamma    88.363

_symmetry_space_group_name_H-M    "P 1"
_symmetry_int_tables_number       1

loop_
  _symmetry_equiv_pos_as_xyz
  'x, y, z'

loop_
  _atom_site_label
  _atom_site_occupancy
  _atom_site_fract_x
  _atom_site_fract_y
  _atom_site_fract_z
  _atom_site_thermal_displace_type
  _atom_site_B_iso_or_equiv
  _atom_site_type_symbol
  Cu1      1.0000 0.00000  0.00000  0.00000  Biso   1.000  Cu
  N1       1.0000 0.17150  0.03240  0.86780  Biso   1.000  N
  N2       1.0000 0.82850  0.96760  0.13220  Biso   1.000  N
  C1       1.0000 0.22320  0.12670  0.83020  Biso   1.000  C
  C2       1.0000 0.77680  0.87330  0.16980  Biso   1.000  C
  C3       1.0000 0.34390  0.11690  0.73130  Biso   1.000  C
  C4       1.0000 0.65610  0.88310  0.26870  Biso   1.000  C
  C5       1.0000 0.36610  0.01740  0.70920  Biso   1.000  C
  C6       1.0000 0.63390  0.98260  0.29080  Biso   1.000  C
  C7       1.0000 0.25720  0.96440  0.79400  Biso   1.000  C
  C8       1.0000 0.74280  0.03560  0.20600  Biso   1.000  C
  C9       1.0000 0.24030  0.86030  0.79790  Biso   1.000  C
  C10      1.0000 0.75970  0.13970  0.20210  Biso   1.000  C
  C11      1.0000 0.13230  0.80880  0.87780  Biso   1.000  C
  C12      1.0000 0.86770  0.19120  0.12220  Biso   1.000  C
  C13      1.0000 0.11830  0.70050  0.88260  Biso   1.000  C
  C14      1.0000 0.88170  0.29950  0.11740  Biso   1.000  C
  C15      1.0000 0.00690  0.67890  0.97250  Biso   1.000  C
  C16      1.0000 0.99310  0.32110  0.02750  Biso   1.000  C
  C17      1.0000 0.95090  0.77370  0.02410  Biso   1.000  C
  C18      1.0000 0.04910  0.22630  0.97590  Biso   1.000  C
  N3       1.0000 0.02670  0.85240  0.96390  Biso   1.000  N
  N4       1.0000 0.97330  0.14760  0.03610  Biso   1.000  N
  C19      1.0000 0.16510  0.21840  0.87880  Biso   1.000  C
  C20      1.0000 0.83490  0.78160  0.12120  Biso   1.000  C
  C21      1.0000 0.34820  0.79910  0.71120  Biso   1.000  C
  C22      1.0000 0.65180  0.20090  0.28880  Biso   1.000  C
  C23      1.0000 0.33410  0.78660  0.61240  Biso   1.000  C
  C24      1.0000 0.66590  0.21340  0.38760  Biso   1.000  C
  C25      1.0000 0.43580  0.73140  0.53250  Biso   1.000  C
  C26      1.0000 0.56420  0.26860  0.46750  Biso   1.000  C
  C27      1.0000 0.55250  0.68750  0.55010  Biso   1.000  C
  C28      1.0000 0.44750  0.31250  0.44990  Biso   1.000  C
  C29      1.0000 0.56810  0.69880  0.64810  Biso   1.000  C
  C30      1.0000 0.43190  0.30120  0.35190  Biso   1.000  C
  C31      1.0000 0.46660  0.75410  0.72770  Biso   1.000  C
  C32      1.0000 0.53340  0.24590  0.27230  Biso   1.000  C
  N5       1.0000 0.21230  0.83240  0.59340  Biso   1.000  N
  N6       1.0000 0.78770  0.16760  0.40660  Biso   1.000  N
  C33      1.0000 0.10120  0.77870  0.59150  Biso   1.000  C
  C34      1.0000 0.89880  0.22130  0.40850  Biso   1.000  C
  O1       1.0000 0.09300  0.68620  0.60660  Biso   1.000  O
  O2       1.0000 0.90700  0.31380  0.39340  Biso   1.000  O
  C35      1.0000 0.98290  0.83830  0.57010  Biso   1.000  C
  C36      1.0000 0.01710  0.16170  0.42990  Biso   1.000  C
  C37      1.0000 0.92610  0.92680  0.62280  Biso   1.000  C
  C38      1.0000 0.07390  0.07320  0.37720  Biso   1.000  C
  C39      1.0000 0.82080  0.97980  0.59660  Biso   1.000  C
  C40      1.0000 0.17920  0.02020  0.40340  Biso   1.000  C
  N7       1.0000 0.77340  0.95140  0.51990  Biso   1.000  N
  N8       1.0000 0.22660  0.04860  0.48010  Biso   1.000  N
  C41      1.0000 0.82750  0.86380  0.47190  Biso   1.000  C
  C42      1.0000 0.17250  0.13620  0.52810  Biso   1.000  C
  C43      1.0000 0.92820  0.80410  0.49550  Biso   1.000  C
  C44      1.0000 0.07180  0.19590  0.50450  Biso   1.000  C
  C45      1.0000 0.22010  0.31460  0.81880  Biso   1.000  C
  C46      1.0000 0.77990  0.68540  0.18120  Biso   1.000  C
  C47      1.0000 0.35560  0.35160  0.80340  Biso   1.000  C
  C48      1.0000 0.64440  0.64840  0.19660  Biso   1.000  C
  C49      1.0000 0.40070  0.44130  0.74600  Biso   1.000  C
  C50      1.0000 0.59930  0.55870  0.25400  Biso   1.000  C
  C51      1.0000 0.31210  0.49310  0.70290  Biso   1.000  C
  C52      1.0000 0.68790  0.50690  0.29710  Biso   1.000  C
  C53      1.0000 0.17730  0.45710  0.71770  Biso   1.000  C
  C54      1.0000 0.82270  0.54290  0.28230  Biso   1.000  C
  C55      1.0000 0.13110  0.36880  0.77610  Biso   1.000  C
  C56      1.0000 0.86890  0.63120  0.22390  Biso   1.000  C
  N9       1.0000 0.44840  0.29580  0.84570  Biso   1.000  N
  N10      1.0000 0.55160  0.70420  0.15430  Biso   1.000  N
  C57      1.0000 0.58190  0.26530  0.78360  Biso   1.000  C
  C58      1.0000 0.41810  0.73470  0.21640  Biso   1.000  C
  O3       1.0000 0.63790  0.28880  0.68910  Biso   1.000  O
  O4       1.0000 0.36210  0.71120  0.31090  Biso   1.000  O
  C59      1.0000 0.66220  0.19410  0.83260  Biso   1.000  C
  C60      1.0000 0.33780  0.80590  0.16740  Biso   1.000  C
  C61      1.0000 0.59940  0.13510  0.92240  Biso   1.000  C
  C62      1.0000 0.40060  0.86490  0.07760  Biso   1.000  C
  C63      1.0000 0.68530  0.06690  0.95390  Biso   1.000  C
  C64      1.0000 0.31470  0.93310  0.04610  Biso   1.000  C
  N11      1.0000 0.82630  0.05370  0.90180  Biso   1.000  N
  N12      1.0000 0.17370  0.94630  0.09820  Biso   1.000  N
  C65      1.0000 0.88480  0.11310  0.81730  Biso   1.000  C
  C66      1.0000 0.11520  0.88690  0.18270  Biso   1.000  C
  C67      1.0000 0.80910  0.18360  0.78030  Biso   1.000  C
  C68      1.0000 0.19090  0.81640  0.21970  Biso   1.000  C
  H1       1.0000 0.39820  0.17070  0.68930  Biso   1.000  H
  H2       1.0000 0.60180  0.82930  0.31070  Biso   1.000  H
  H3       1.0000 0.43920  0.98790  0.64940  Biso   1.000  H
  H4       1.0000 0.56080  0.01210  0.35060  Biso   1.000  H
  H5       1.0000 0.17670  0.65330  0.83200  Biso   1.000  H
  H6       1.0000 0.82330  0.34670  0.16800  Biso   1.000  H
  H7       1.0000 0.97180  0.61360  0.99740  Biso   1.000  H
  H8       1.0000 0.02820  0.38640  0.00260  Biso   1.000  H
  H9       1.0000 0.42500  0.72380  0.46540  Biso   1.000  H
  H10      1.0000 0.57500  0.27620  0.53460  Biso   1.000  H
  H11      1.0000 0.62210  0.64950  0.49540  Biso   1.000  H
  H12      1.0000 0.37790  0.35050  0.50460  Biso   1.000  H
  H13      1.0000 0.64860  0.66870  0.66050  Biso   1.000  H
  H14      1.0000 0.35140  0.33130  0.33950  Biso   1.000  H
  H15      1.0000 0.47780  0.76130  0.79470  Biso   1.000  H
  H16      1.0000 0.52220  0.23870  0.20530  Biso   1.000  H
  H17      1.0000 0.21070  0.90330  0.58180  Biso   1.000  H
  H18      1.0000 0.78930  0.09670  0.41820  Biso   1.000  H
  H19      1.0000 0.95860  0.95110  0.67630  Biso   1.000  H
  H20      1.0000 0.04140  0.04890  0.32370  Biso   1.000  H
  H21      1.0000 0.78020  0.03950  0.63520  Biso   1.000  H
  H22      1.0000 0.21980  0.96050  0.36480  Biso   1.000  H
  H23      1.0000 0.79440  0.84140  0.41800  Biso   1.000  H
  H24      1.0000 0.20560  0.15860  0.58200  Biso   1.000  H
  H25      1.0000 0.95950  0.74090  0.46150  Biso   1.000  H
  H26      1.0000 0.04050  0.25910  0.53850  Biso   1.000  H
  H27      1.0000 0.49280  0.46660  0.73660  Biso   1.000  H
  H28      1.0000 0.50720  0.53340  0.26340  Biso   1.000  H
  H29      1.0000 0.34370  0.55360  0.66300  Biso   1.000  H
  H30      1.0000 0.65630  0.44640  0.33700  Biso   1.000  H
  H31      1.0000 0.11620  0.49280  0.68790  Biso   1.000  H
  H32      1.0000 0.88380  0.50720  0.31210  Biso   1.000  H
  H33      1.0000 0.03770  0.34510  0.78710  Biso   1.000  H
  H34      1.0000 0.96230  0.65490  0.21290  Biso   1.000  H
  H35      1.0000 0.41490  0.27980  0.91990  Biso   1.000  H
  H36      1.0000 0.58510  0.72020  0.08010  Biso   1.000  H
  H37      1.0000 0.49900  0.14110  0.96200  Biso   1.000  H
  H38      1.0000 0.50100  0.85890  0.03800  Biso   1.000  H
  H39      1.0000 0.64090  0.02720  0.01640  Biso   1.000  H
  H40      1.0000 0.35910  0.97280  0.98360  Biso   1.000  H
  H41      1.0000 0.98570  0.10660  0.77990  Biso   1.000  H
  H42      1.0000 0.01430  0.89340  0.22010  Biso   1.000  H
  H43      1.0000 0.85730  0.22450  0.71950  Biso   1.000  H
  H44      1.0000 0.14270  0.77550  0.28050  Biso   1.000  H
  C69      1.0000 0.23960  0.22010  0.15160  Biso   1.000  C
  C70      1.0000 0.76040  0.77990  0.84840  Biso   1.000  C
  O5       1.0000 0.34180  0.27920  0.07060  Biso   1.000  O
  O6       1.0000 0.65820  0.72080  0.92940  Biso   1.000  O
  C71      1.0000 0.28800  0.54090  0.05620  Biso   1.000  C
  C72      1.0000 0.71200  0.45910  0.94380  Biso   1.000  C
  O7       1.0000 0.32430  0.47380  0.12860  Biso   1.000  O
  O8       1.0000 0.67570  0.52620  0.87140  Biso   1.000  O
  O9       1.0000 0.13560  0.44890  0.32510  Biso   1.000  O
  O10      1.0000 0.86440  0.55110  0.67490  Biso   1.000  O
  O11      1.0000 0.24960  0.54460  0.44850  Biso   1.000  O
  O12      1.0000 0.75040  0.45540  0.55150  Biso   1.000  O
  O13      1.0000 0.13500  0.51100  0.40100  Biso   1.000  O
  O14      1.0000 0.86500  0.48900  0.59900  Biso   1.000  O
