data_image0
_cell_length_a       11.0102
_cell_length_b       11.3676
_cell_length_c       13.6847
_cell_angle_alpha    76.117
_cell_angle_beta     82.625
_cell_angle_gamma    65.319

_symmetry_space_group_name_H-M    "P 1"
_symmetry_int_tables_number       1

loop_
  _symmetry_equiv_pos_as_xyz
  'x, y, z'

loop_
  _atom_site_label
  _atom_site_occupancy
  _atom_site_fract_x
  _atom_site_fract_y
  _atom_site_fract_z
  _atom_site_thermal_displace_type
  _atom_site_B_iso_or_equiv
  _atom_site_type_symbol
  Cu1      1.0000 0.00000  0.00000  0.00000  Biso   1.000  Cu
  N1       1.0000 0.10510  0.80380  0.01530  Biso   1.000  N
  N2       1.0000 0.89490  0.19620  0.98470  Biso   1.000  N
  C1       1.0000 0.11360  0.72480  0.95030  Biso   1.000  C
  C2       1.0000 0.88640  0.27520  0.04970  Biso   1.000  C
  C3       1.0000 0.20860  0.59140  0.98500  Biso   1.000  C
  C4       1.0000 0.79140  0.40860  0.01500  Biso   1.000  C
  C5       1.0000 0.25540  0.58930  0.07180  Biso   1.000  C
  C6       1.0000 0.74460  0.41070  0.92820  Biso   1.000  C
  C7       1.0000 0.19160  0.72010  0.09130  Biso   1.000  C
  C8       1.0000 0.80840  0.27990  0.90870  Biso   1.000  C
  C9       1.0000 0.21920  0.75760  0.17360  Biso   1.000  C
  C10      1.0000 0.78080  0.24240  0.82640  Biso   1.000  C
  C11      1.0000 0.16840  0.88710  0.18780  Biso   1.000  C
  C12      1.0000 0.83160  0.11290  0.81220  Biso   1.000  C
  N3       1.0000 0.07660  0.99570  0.12710  Biso   1.000  N
  N4       1.0000 0.92340  0.00430  0.87290  Biso   1.000  N
  C13      1.0000 0.05390  0.10250  0.16930  Biso   1.000  C
  C14      1.0000 0.94610  0.89750  0.83070  Biso   1.000  C
  C15      1.0000 0.13680  0.05890  0.25600  Biso   1.000  C
  C16      1.0000 0.86320  0.94110  0.74400  Biso   1.000  C
  C17      1.0000 0.20390  0.92790  0.26790  Biso   1.000  C
  C18      1.0000 0.79610  0.07210  0.73210  Biso   1.000  C
  C19      1.0000 0.30020  0.64920  0.25560  Biso   1.000  C
  C20      1.0000 0.69980  0.35080  0.74440  Biso   1.000  C
  C21      1.0000 0.24220  0.56710  0.31390  Biso   1.000  C
  C22      1.0000 0.75780  0.43290  0.68610  Biso   1.000  C
  C23      1.0000 0.30630  0.46710  0.39410  Biso   1.000  C
  C24      1.0000 0.69370  0.53290  0.60590  Biso   1.000  C
  C25      1.0000 0.43410  0.44800  0.41540  Biso   1.000  C
  C26      1.0000 0.56590  0.55200  0.58460  Biso   1.000  C
  C27      1.0000 0.49400  0.52660  0.35820  Biso   1.000  C
  C28      1.0000 0.50600  0.47340  0.64180  Biso   1.000  C
  C29      1.0000 0.42860  0.62820  0.27890  Biso   1.000  C
  C30      1.0000 0.57140  0.37180  0.72110  Biso   1.000  C
  N5       1.0000 0.49460  0.70930  0.22200  Biso   1.000  N
  N6       1.0000 0.50540  0.29070  0.77800  Biso   1.000  N
  C31      1.0000 0.54810  0.77000  0.26740  Biso   1.000  C
  C32      1.0000 0.45190  0.23000  0.73260  Biso   1.000  C
  O1       1.0000 0.53530  0.76890  0.35720  Biso   1.000  O
  O2       1.0000 0.46470  0.23110  0.64280  Biso   1.000  O
  C33      1.0000 0.63060  0.83830  0.20230  Biso   1.000  C
  C34      1.0000 0.36940  0.16170  0.79770  Biso   1.000  C
  C35      1.0000 0.62780  0.87610  0.09880  Biso   1.000  C
  C36      1.0000 0.37220  0.12390  0.90120  Biso   1.000  C
  C37      1.0000 0.71380  0.93420  0.04890  Biso   1.000  C
  C38      1.0000 0.28620  0.06580  0.95110  Biso   1.000  C
  N7       1.0000 0.80000  0.95450  0.09400  Biso   1.000  N
  N8       1.0000 0.20000  0.04550  0.90600  Biso   1.000  N
  C39      1.0000 0.79860  0.92040  0.19310  Biso   1.000  C
  C40      1.0000 0.20140  0.07960  0.80690  Biso   1.000  C
  C41      1.0000 0.71690  0.86460  0.24920  Biso   1.000  C
  C42      1.0000 0.28310  0.13540  0.75080  Biso   1.000  C
  C43      1.0000 0.03750  0.76810  0.86320  Biso   1.000  C
  C44      1.0000 0.96250  0.23190  0.13680  Biso   1.000  C
  C45      1.0000 0.05790  0.66750  0.80190  Biso   1.000  C
  C46      1.0000 0.94210  0.33250  0.19810  Biso   1.000  C
  C47      1.0000 0.02250  0.56110  0.84350  Biso   1.000  C
  C48      1.0000 0.97750  0.43890  0.15650  Biso   1.000  C
  C49      1.0000 0.04350  0.46360  0.79110  Biso   1.000  C
  C50      1.0000 0.95650  0.53640  0.20890  Biso   1.000  C
  C51      1.0000 0.09890  0.47390  0.69410  Biso   1.000  C
  C52      1.0000 0.90110  0.52610  0.30590  Biso   1.000  C
  C53      1.0000 0.13370  0.57820  0.65080  Biso   1.000  C
  C54      1.0000 0.86630  0.42180  0.34920  Biso   1.000  C
  C55      1.0000 0.11440  0.67550  0.70340  Biso   1.000  C
  C56      1.0000 0.88560  0.32450  0.29660  Biso   1.000  C
  N9       1.0000 0.14580  0.78580  0.66080  Biso   1.000  N
  N10      1.0000 0.85420  0.21420  0.33920  Biso   1.000  N
  C57      1.0000 0.20150  0.81710  0.56850  Biso   1.000  C
  C58      1.0000 0.79850  0.18290  0.43150  Biso   1.000  C
  O3       1.0000 0.24770  0.74370  0.50870  Biso   1.000  O
  O4       1.0000 0.75230  0.25630  0.49130  Biso   1.000  O
  C59      1.0000 0.20050  0.95330  0.54390  Biso   1.000  C
  C60      1.0000 0.79950  0.04670  0.45610  Biso   1.000  C
  C61      1.0000 0.31020  0.97240  0.49210  Biso   1.000  C
  C62      1.0000 0.68980  0.02760  0.50790  Biso   1.000  C
  C63      1.0000 0.30460  0.10030  0.46780  Biso   1.000  C
  C64      1.0000 0.69540  0.89970  0.53220  Biso   1.000  C
  N11      1.0000 0.19960  0.20650  0.48630  Biso   1.000  N
  N12      1.0000 0.80040  0.79350  0.51370  Biso   1.000  N
  C65      1.0000 0.09460  0.18660  0.53460  Biso   1.000  C
  C66      1.0000 0.90540  0.81340  0.46540  Biso   1.000  C
  C67      1.0000 0.09180  0.06330  0.56490  Biso   1.000  C
  C68      1.0000 0.90820  0.93670  0.43510  Biso   1.000  C
  H1       1.0000 0.23340  0.51890  0.95280  Biso   1.000  H
  H2       1.0000 0.76660  0.48110  0.04720  Biso   1.000  H
  H3       1.0000 0.31910  0.51450  0.11280  Biso   1.000  H
  H4       1.0000 0.68090  0.48550  0.88720  Biso   1.000  H
  H5       1.0000 0.14230  0.11330  0.29670  Biso   1.000  H
  H6       1.0000 0.85770  0.88670  0.70330  Biso   1.000  H
  H7       1.0000 0.26420  0.87180  0.31980  Biso   1.000  H
  H8       1.0000 0.73580  0.12820  0.68020  Biso   1.000  H
  H9       1.0000 0.15540  0.57970  0.29820  Biso   1.000  H
  H10      1.0000 0.84460  0.42030  0.70180  Biso   1.000  H
  H11      1.0000 0.26390  0.41310  0.43360  Biso   1.000  H
  H12      1.0000 0.73610  0.58690  0.56640  Biso   1.000  H
  H13      1.0000 0.48000  0.38010  0.46990  Biso   1.000  H
  H14      1.0000 0.52000  0.61990  0.53010  Biso   1.000  H
  H15      1.0000 0.58190  0.51150  0.37300  Biso   1.000  H
  H16      1.0000 0.41810  0.48850  0.62700  Biso   1.000  H
  H17      1.0000 0.56850  0.86280  0.06220  Biso   1.000  H
  H18      1.0000 0.43150  0.13720  0.93780  Biso   1.000  H
  H19      1.0000 0.71000  0.96110  0.97770  Biso   1.000  H
  H20      1.0000 0.29000  0.03890  0.02230  Biso   1.000  H
  H21      1.0000 0.85830  0.93570  0.22780  Biso   1.000  H
  H22      1.0000 0.14170  0.06430  0.77220  Biso   1.000  H
  H23      1.0000 0.71980  0.84390  0.32060  Biso   1.000  H
  H24      1.0000 0.28020  0.15610  0.67940  Biso   1.000  H
  H25      1.0000 0.98290  0.55530  0.90940  Biso   1.000  H
  H26      1.0000 0.01710  0.44470  0.09060  Biso   1.000  H
  H27      1.0000 0.02030  0.39090  0.82110  Biso   1.000  H
  H28      1.0000 0.97970  0.60910  0.17890  Biso   1.000  H
  H29      1.0000 0.11300  0.40810  0.65730  Biso   1.000  H
  H30      1.0000 0.88700  0.59190  0.34270  Biso   1.000  H
  H31      1.0000 0.17130  0.58400  0.58420  Biso   1.000  H
  H32      1.0000 0.82870  0.41600  0.41580  Biso   1.000  H
  H33      1.0000 0.38610  0.90050  0.47390  Biso   1.000  H
  H34      1.0000 0.61390  0.09950  0.52610  Biso   1.000  H
  H35      1.0000 0.38140  0.11270  0.43570  Biso   1.000  H
  H36      1.0000 0.61860  0.88730  0.56430  Biso   1.000  H
  H37      1.0000 0.01810  0.26090  0.54870  Biso   1.000  H
  H38      1.0000 0.98190  0.73910  0.45130  Biso   1.000  H
  H39      1.0000 0.01530  0.05360  0.60030  Biso   1.000  H
  H40      1.0000 0.98470  0.94640  0.39970  Biso   1.000  H
  H41      1.0000 0.50120  0.72090  0.15070  Biso   1.000  H
  H42      1.0000 0.49880  0.27910  0.84930  Biso   1.000  H
  H43      1.0000 0.12520  0.84760  0.70280  Biso   1.000  H
  H44      1.0000 0.87480  0.15240  0.29720  Biso   1.000  H
  N13      1.0000 0.48580  0.24310  0.15840  Biso   1.000  N
  N14      1.0000 0.51420  0.75690  0.84160  Biso   1.000  N
  C69      1.0000 0.56030  0.22410  0.24370  Biso   1.000  C
  C70      1.0000 0.43970  0.77590  0.75630  Biso   1.000  C
  C71      1.0000 0.36100  0.22670  0.17990  Biso   1.000  C
  C72      1.0000 0.63900  0.77330  0.82010  Biso   1.000  C
  C73      1.0000 0.52990  0.27150  0.06540  Biso   1.000  C
  C74      1.0000 0.47010  0.72850  0.93460  Biso   1.000  C
  O5       1.0000 0.47220  0.29190  0.98920  Biso   1.000  O
  O6       1.0000 0.52780  0.70810  0.01080  Biso   1.000  O
  H45      1.0000 0.51260  0.20460  0.30400  Biso   1.000  H
  H46      1.0000 0.48740  0.79540  0.69600  Biso   1.000  H
  H47      1.0000 0.64500  0.15270  0.24160  Biso   1.000  H
  H48      1.0000 0.35500  0.84730  0.75840  Biso   1.000  H
  H49      1.0000 0.57250  0.30240  0.24220  Biso   1.000  H
  H50      1.0000 0.42750  0.69760  0.75780  Biso   1.000  H
  H51      1.0000 0.34620  0.20670  0.25080  Biso   1.000  H
  H52      1.0000 0.65380  0.79330  0.74920  Biso   1.000  H
  H53      1.0000 0.28970  0.30620  0.15140  Biso   1.000  H
  H54      1.0000 0.71030  0.69380  0.84860  Biso   1.000  H
  H55      1.0000 0.36520  0.15640  0.15180  Biso   1.000  H
  H56      1.0000 0.63480  0.84360  0.84820  Biso   1.000  H
  H57      1.0000 0.61480  0.27650  0.05710  Biso   1.000  H
  H58      1.0000 0.38520  0.72350  0.94290  Biso   1.000  H
