data_image0
_cell_length_a       7.036
_cell_length_b       8.23
_cell_length_c       22.932
_cell_angle_alpha    90
_cell_angle_beta     90
_cell_angle_gamma    90

_symmetry_space_group_name_H-M    "P 1"
_symmetry_int_tables_number       1

loop_
  _symmetry_equiv_pos_as_xyz
  'x, y, z'

loop_
  _atom_site_label
  _atom_site_occupancy
  _atom_site_fract_x
  _atom_site_fract_y
  _atom_site_fract_z
  _atom_site_thermal_displace_type
  _atom_site_B_iso_or_equiv
  _atom_site_type_symbol
  Cu1      1.0000 0.91589  0.15261  0.89714  Biso   1.000  Cu
  Cu2      1.0000 0.08411  0.65261  0.60286  Biso   1.000  Cu
  Cu3      1.0000 0.58411  0.84739  0.39714  Biso   1.000  Cu
  Cu4      1.0000 0.41589  0.34739  0.10286  Biso   1.000  Cu
  O1       1.0000 0.08330  0.11320  0.96403  Biso   1.000  O
  O2       1.0000 0.91670  0.61320  0.53597  Biso   1.000  O
  O3       1.0000 0.41670  0.88680  0.46403  Biso   1.000  O
  O4       1.0000 0.58330  0.38680  0.03597  Biso   1.000  O
  O5       1.0000 0.21480  0.20410  0.04503  Biso   1.000  O
  O6       1.0000 0.78520  0.70410  0.45497  Biso   1.000  O
  O7       1.0000 0.28520  0.79590  0.54503  Biso   1.000  O
  O8       1.0000 0.71480  0.29590  0.95497  Biso   1.000  O
  O9       1.0000 0.08830  0.32650  0.87050  Biso   1.000  O
  O10      1.0000 0.91170  0.82650  0.62950  Biso   1.000  O
  O11      1.0000 0.41170  0.67350  0.37050  Biso   1.000  O
  O12      1.0000 0.58830  0.17350  0.12950  Biso   1.000  O
  O13      1.0000 0.29720  0.52270  0.88277  Biso   1.000  O
  O14      1.0000 0.70280  0.02270  0.61723  Biso   1.000  O
  O15      1.0000 0.20280  0.47730  0.38277  Biso   1.000  O
  O16      1.0000 0.79720  0.97730  0.11723  Biso   1.000  O
  N1       1.0000 0.77990  0.17890  0.82156  Biso   1.000  N
  N2       1.0000 0.22010  0.67890  0.67844  Biso   1.000  N
  N3       1.0000 0.72010  0.82110  0.32156  Biso   1.000  N
  N4       1.0000 0.27990  0.32110  0.17844  Biso   1.000  N
  N5       1.0000 0.57990  0.24350  0.75160  Biso   1.000  N
  N6       1.0000 0.42010  0.74350  0.74840  Biso   1.000  N
  N7       1.0000 0.92010  0.75650  0.25160  Biso   1.000  N
  N8       1.0000 0.07990  0.25650  0.24840  Biso   1.000  N
  H1       1.0000 0.48800  0.28710  0.73240  Biso   1.000  H
  H2       1.0000 0.51200  0.78710  0.76760  Biso   1.000  H
  H3       1.0000 0.01200  0.71290  0.23240  Biso   1.000  H
  H4       1.0000 0.98800  0.21290  0.26760  Biso   1.000  H
  N9       1.0000 0.80310  0.92840  0.90796  Biso   1.000  N
  N10      1.0000 0.19690  0.42840  0.59204  Biso   1.000  N
  N11      1.0000 0.69690  0.07160  0.40796  Biso   1.000  N
  N12      1.0000 0.30310  0.57160  0.09204  Biso   1.000  N
  N13      1.0000 0.79340  0.66460  0.92040  Biso   1.000  N
  N14      1.0000 0.20660  0.16460  0.57960  Biso   1.000  N
  N15      1.0000 0.70660  0.33540  0.42040  Biso   1.000  N
  N16      1.0000 0.29340  0.83540  0.07960  Biso   1.000  N
  H5       1.0000 0.82510  0.56520  0.92660  Biso   1.000  H
  H6       1.0000 0.17490  0.06520  0.57340  Biso   1.000  H
  H7       1.0000 0.67490  0.43480  0.42660  Biso   1.000  H
  H8       1.0000 0.32510  0.93480  0.07340  Biso   1.000  H
  C1       1.0000 0.16010  0.22570  0.99390  Biso   1.000  C
  C2       1.0000 0.83990  0.72570  0.50610  Biso   1.000  C
  C3       1.0000 0.33990  0.77430  0.49390  Biso   1.000  C
  C4       1.0000 0.66010  0.27430  0.00610  Biso   1.000  C
  C5       1.0000 0.18260  0.39530  0.96800  Biso   1.000  C
  C6       1.0000 0.81740  0.89530  0.53200  Biso   1.000  C
  C7       1.0000 0.31740  0.60470  0.46800  Biso   1.000  C
  C8       1.0000 0.68260  0.10470  0.03200  Biso   1.000  C
  H9       1.0000 0.07750  0.46100  0.98190  Biso   1.000  H
  H10      1.0000 0.92250  0.96100  0.51810  Biso   1.000  H
  H11      1.0000 0.42250  0.53900  0.48190  Biso   1.000  H
  H12      1.0000 0.57750  0.03900  0.01810  Biso   1.000  H
  H13      1.0000 0.29800  0.44210  0.98400  Biso   1.000  H
  H14      1.0000 0.70200  0.94210  0.51600  Biso   1.000  H
  H15      1.0000 0.20200  0.55790  0.48400  Biso   1.000  H
  H16      1.0000 0.79800  0.05790  0.01600  Biso   1.000  H
  C9       1.0000 0.19110  0.41290  0.90250  Biso   1.000  C
  C10      1.0000 0.80890  0.91290  0.59750  Biso   1.000  C
  C11      1.0000 0.30890  0.58710  0.40250  Biso   1.000  C
  C12      1.0000 0.69110  0.08710  0.09750  Biso   1.000  C
  C13      1.0000 0.62430  0.27290  0.80840  Biso   1.000  C
  C14      1.0000 0.37570  0.77290  0.69160  Biso   1.000  C
  C15      1.0000 0.87570  0.72710  0.30840  Biso   1.000  C
  C16      1.0000 0.12430  0.22710  0.19160  Biso   1.000  C
  H17      1.0000 0.56130  0.34330  0.83360  Biso   1.000  H
  H18      1.0000 0.43870  0.84330  0.66640  Biso   1.000  H
  H19      1.0000 0.93870  0.65670  0.33360  Biso   1.000  H
  H20      1.0000 0.06130  0.15670  0.16640  Biso   1.000  H
  C17      1.0000 0.70550  0.13370  0.73060  Biso   1.000  C
  C18      1.0000 0.29450  0.63370  0.76940  Biso   1.000  C
  C19      1.0000 0.79450  0.86630  0.23060  Biso   1.000  C
  C20      1.0000 0.20550  0.36630  0.26940  Biso   1.000  C
  H21      1.0000 0.70830  0.09090  0.69310  Biso   1.000  H
  H22      1.0000 0.29170  0.59090  0.80690  Biso   1.000  H
  H23      1.0000 0.79170  0.90910  0.19310  Biso   1.000  H
  H24      1.0000 0.20830  0.40910  0.30690  Biso   1.000  H
  C21      1.0000 0.82300  0.09910  0.77350  Biso   1.000  C
  C22      1.0000 0.17700  0.59910  0.72650  Biso   1.000  C
  C23      1.0000 0.67700  0.90090  0.27350  Biso   1.000  C
  C24      1.0000 0.32300  0.40090  0.22650  Biso   1.000  C
  C25      1.0000 0.91380  0.79300  0.91910  Biso   1.000  C
  C26      1.0000 0.08620  0.29300  0.58090  Biso   1.000  C
  C27      1.0000 0.58620  0.20700  0.41910  Biso   1.000  C
  C28      1.0000 0.41380  0.70700  0.08090  Biso   1.000  C
  H25      1.0000 0.04480  0.79060  0.92460  Biso   1.000  H
  H26      1.0000 0.95520  0.29060  0.57540  Biso   1.000  H
  H27      1.0000 0.45520  0.20940  0.42460  Biso   1.000  H
  H28      1.0000 0.54480  0.70940  0.07540  Biso   1.000  H
  C29      1.0000 0.62500  0.87770  0.90300  Biso   1.000  C
  C30      1.0000 0.37500  0.37770  0.59700  Biso   1.000  C
  C31      1.0000 0.87500  0.12230  0.40300  Biso   1.000  C
  C32      1.0000 0.12500  0.62230  0.09700  Biso   1.000  C
  C33      1.0000 0.61760  0.71810  0.91030  Biso   1.000  C
  C34      1.0000 0.38240  0.21810  0.58970  Biso   1.000  C
  C35      1.0000 0.88240  0.28190  0.41030  Biso   1.000  C
  C36      1.0000 0.11760  0.78190  0.08970  Biso   1.000  C
  H29      1.0000 0.50860  0.65430  0.90860  Biso   1.000  H
  H30      1.0000 0.49140  0.15430  0.59140  Biso   1.000  H
  H31      1.0000 0.99140  0.34570  0.40860  Biso   1.000  H
  H32      1.0000 0.00860  0.84570  0.09140  Biso   1.000  H
  C37      1.0000 0.45340  0.97650  0.89340  Biso   1.000  C
  C38      1.0000 0.54660  0.47650  0.60660  Biso   1.000  C
  C39      1.0000 0.04660  0.02350  0.39340  Biso   1.000  C
  C40      1.0000 0.95340  0.52350  0.10660  Biso   1.000  C
  H33      1.0000 0.48180  0.08870  0.90080  Biso   1.000  H
  H34      1.0000 0.51820  0.58870  0.59920  Biso   1.000  H
  H35      1.0000 0.01820  0.91130  0.40080  Biso   1.000  H
  H36      1.0000 0.98180  0.41130  0.09920  Biso   1.000  H
  H37      1.0000 0.35450  0.94100  0.91930  Biso   1.000  H
  H38      1.0000 0.64550  0.44100  0.58070  Biso   1.000  H
  H39      1.0000 0.14550  0.05900  0.41930  Biso   1.000  H
  H40      1.0000 0.85450  0.55900  0.08070  Biso   1.000  H
  H41      1.0000 0.41200  0.96420  0.85370  Biso   1.000  H
  H42      1.0000 0.58800  0.46420  0.64630  Biso   1.000  H
  H43      1.0000 0.08800  0.03580  0.35370  Biso   1.000  H
  H44      1.0000 0.91200  0.53580  0.14630  Biso   1.000  H
  C41      1.0000 0.98920  0.98580  0.76660  Biso   1.000  C
  C42      1.0000 0.01080  0.48580  0.73340  Biso   1.000  C
  C43      1.0000 0.51080  0.01420  0.26660  Biso   1.000  C
  C44      1.0000 0.48920  0.51420  0.23340  Biso   1.000  C
  H45      1.0000 0.10530  0.04460  0.77300  Biso   1.000  H
  H46      1.0000 0.89470  0.54460  0.72700  Biso   1.000  H
  H47      1.0000 0.39470  0.95540  0.27300  Biso   1.000  H
  H48      1.0000 0.60530  0.45540  0.22700  Biso   1.000  H
  H49      1.0000 0.98910  0.94140  0.72790  Biso   1.000  H
  H50      1.0000 0.01090  0.44140  0.77210  Biso   1.000  H
  H51      1.0000 0.51090  0.05860  0.22790  Biso   1.000  H
  H52      1.0000 0.48910  0.55860  0.27210  Biso   1.000  H
  H53      1.0000 0.97940  0.89930  0.79450  Biso   1.000  H
  H54      1.0000 0.02060  0.39930  0.70550  Biso   1.000  H
  H55      1.0000 0.52060  0.10070  0.29450  Biso   1.000  H
  H56      1.0000 0.47940  0.60070  0.20550  Biso   1.000  H
