data_image0
_cell_length_a       7.791
_cell_length_b       7.634
_cell_length_c       19.364
_cell_angle_alpha    90
_cell_angle_beta     98.42
_cell_angle_gamma    90

_symmetry_space_group_name_H-M    "P 1"
_symmetry_int_tables_number       1

loop_
  _symmetry_equiv_pos_as_xyz
  'x, y, z'

loop_
  _atom_site_label
  _atom_site_occupancy
  _atom_site_fract_x
  _atom_site_fract_y
  _atom_site_fract_z
  _atom_site_thermal_displace_type
  _atom_site_B_iso_or_equiv
  _atom_site_type_symbol
  Cu1      1.0000 0.63062  0.93870  0.13197  Biso   1.000  Cu
  Cu2      1.0000 0.13062  0.56130  0.63197  Biso   1.000  Cu
  Cu3      1.0000 0.36938  0.06130  0.86803  Biso   1.000  Cu
  Cu4      1.0000 0.86938  0.43870  0.36803  Biso   1.000  Cu
  O1       1.0000 0.57360  0.74890  0.19308  Biso   1.000  O
  O2       1.0000 0.07360  0.75110  0.69308  Biso   1.000  O
  O3       1.0000 0.42640  0.25110  0.80692  Biso   1.000  O
  O4       1.0000 0.92640  0.24890  0.30692  Biso   1.000  O
  O5       1.0000 0.66320  0.56440  0.27784  Biso   1.000  O
  O6       1.0000 0.16320  0.93560  0.77784  Biso   1.000  O
  O7       1.0000 0.33680  0.43560  0.72216  Biso   1.000  O
  O8       1.0000 0.83680  0.06440  0.22216  Biso   1.000  O
  O9       1.0000 0.81940  0.80660  0.10311  Biso   1.000  O
  O10      1.0000 0.31940  0.69340  0.60311  Biso   1.000  O
  O11      1.0000 0.18060  0.19340  0.89689  Biso   1.000  O
  O12      1.0000 0.68060  0.30660  0.39689  Biso   1.000  O
  O13      1.0000 0.01740  0.60120  0.10833  Biso   1.000  O
  O14      1.0000 0.51740  0.89880  0.60833  Biso   1.000  O
  O15      1.0000 0.98260  0.39880  0.89167  Biso   1.000  O
  O16      1.0000 0.48260  0.10120  0.39167  Biso   1.000  O
  C1       1.0000 0.27390  0.98810  0.16521  Biso   1.000  C
  C2       1.0000 0.77390  0.51190  0.66521  Biso   1.000  C
  C3       1.0000 0.72610  0.01190  0.83479  Biso   1.000  C
  C4       1.0000 0.22610  0.48810  0.33479  Biso   1.000  C
  C5       1.0000 0.23990  0.26820  0.17960  Biso   1.000  C
  C6       1.0000 0.73990  0.23180  0.67960  Biso   1.000  C
  C7       1.0000 0.76010  0.73180  0.82040  Biso   1.000  C
  C8       1.0000 0.26010  0.76820  0.32040  Biso   1.000  C
  C9       1.0000 0.39890  0.23750  0.16310  Biso   1.000  C
  C10      1.0000 0.89890  0.26250  0.66310  Biso   1.000  C
  C11      1.0000 0.60110  0.76250  0.83690  Biso   1.000  C
  C12      1.0000 0.10110  0.73750  0.33690  Biso   1.000  C
  C13      1.0000 0.55250  0.22320  0.02006  Biso   1.000  C
  C14      1.0000 0.05250  0.27680  0.52006  Biso   1.000  C
  C15      1.0000 0.44750  0.77680  0.97994  Biso   1.000  C
  C16      1.0000 0.94750  0.72320  0.47994  Biso   1.000  C
  C17      1.0000 0.63420  0.31580  0.97563  Biso   1.000  C
  C18      1.0000 0.13420  0.18420  0.47563  Biso   1.000  C
  C19      1.0000 0.36580  0.68420  0.02437  Biso   1.000  C
  C20      1.0000 0.86580  0.81580  0.52437  Biso   1.000  C
  C21      1.0000 0.81950  0.14750  0.03856  Biso   1.000  C
  C22      1.0000 0.31950  0.35250  0.53856  Biso   1.000  C
  C23      1.0000 0.18050  0.85250  0.96144  Biso   1.000  C
  C24      1.0000 0.68050  0.64750  0.46144  Biso   1.000  C
  C25      1.0000 0.67680  0.63370  0.22034  Biso   1.000  C
  C26      1.0000 0.17680  0.86630  0.72034  Biso   1.000  C
  C27      1.0000 0.32320  0.36630  0.77966  Biso   1.000  C
  C28      1.0000 0.82320  0.13370  0.27966  Biso   1.000  C
  C29      1.0000 0.81410  0.56220  0.18120  Biso   1.000  C
  C30      1.0000 0.31410  0.93780  0.68120  Biso   1.000  C
  C31      1.0000 0.18590  0.43780  0.81880  Biso   1.000  C
  C32      1.0000 0.68590  0.06220  0.31880  Biso   1.000  C
  C33      1.0000 0.88870  0.66550  0.12756  Biso   1.000  C
  C34      1.0000 0.38870  0.83450  0.62756  Biso   1.000  C
  C35      1.0000 0.11130  0.33450  0.87244  Biso   1.000  C
  C36      1.0000 0.61130  0.16550  0.37244  Biso   1.000  C
  N1       1.0000 0.42060  0.06070  0.15376  Biso   1.000  N
  N2       1.0000 0.92060  0.43930  0.65376  Biso   1.000  N
  N3       1.0000 0.57940  0.93930  0.84624  Biso   1.000  N
  N4       1.0000 0.07940  0.56070  0.34624  Biso   1.000  N
  N5       1.0000 0.16190  0.10960  0.18022  Biso   1.000  N
  N6       1.0000 0.66190  0.39040  0.68022  Biso   1.000  N
  N7       1.0000 0.83810  0.89040  0.81978  Biso   1.000  N
  N8       1.0000 0.33810  0.60960  0.31978  Biso   1.000  N
  N9       1.0000 0.67010  0.11670  0.06025  Biso   1.000  N
  N10      1.0000 0.17010  0.38330  0.56025  Biso   1.000  N
  N11      1.0000 0.32990  0.88330  0.93975  Biso   1.000  N
  N12      1.0000 0.82990  0.61670  0.43975  Biso   1.000  N
  N13      1.0000 0.80310  0.26650  0.98778  Biso   1.000  N
  N14      1.0000 0.30310  0.23350  0.48778  Biso   1.000  N
  N15      1.0000 0.19690  0.73350  0.01222  Biso   1.000  N
  N16      1.0000 0.69690  0.76650  0.51222  Biso   1.000  N
  H1       1.0000 0.91500  0.09100  0.05560  Biso   1.000  H
  H2       1.0000 0.41500  0.40900  0.55560  Biso   1.000  H
  H3       1.0000 0.08500  0.90900  0.94440  Biso   1.000  H
  H4       1.0000 0.58500  0.59100  0.44440  Biso   1.000  H
  H5       1.0000 0.43100  0.23000  0.02330  Biso   1.000  H
  H6       1.0000 0.93100  0.27000  0.52330  Biso   1.000  H
  H7       1.0000 0.56900  0.77000  0.97670  Biso   1.000  H
  H8       1.0000 0.06900  0.73000  0.47670  Biso   1.000  H
  H9       1.0000 0.59300  0.39100  0.94400  Biso   1.000  H
  H10      1.0000 0.09300  0.10900  0.44400  Biso   1.000  H
  H11      1.0000 0.40700  0.60900  0.05600  Biso   1.000  H
  H12      1.0000 0.90700  0.89100  0.55600  Biso   1.000  H
  H13      1.0000 0.07100  0.08900  0.19100  Biso   1.000  H
  H14      1.0000 0.57100  0.41100  0.69100  Biso   1.000  H
  H15      1.0000 0.92900  0.91100  0.80900  Biso   1.000  H
  H16      1.0000 0.42900  0.58900  0.30900  Biso   1.000  H
  H17      1.0000 0.24800  0.86800  0.15960  Biso   1.000  H
  H18      1.0000 0.74800  0.63200  0.65960  Biso   1.000  H
  H19      1.0000 0.75200  0.13200  0.84040  Biso   1.000  H
  H20      1.0000 0.25200  0.36800  0.34040  Biso   1.000  H
  H21      1.0000 0.48100  0.30900  0.16400  Biso   1.000  H
  H22      1.0000 0.98100  0.19100  0.66400  Biso   1.000  H
  H23      1.0000 0.51900  0.69100  0.83600  Biso   1.000  H
  H24      1.0000 0.01900  0.80900  0.33600  Biso   1.000  H
  H25      1.0000 0.88200  0.30100  0.97600  Biso   1.000  H
  H26      1.0000 0.38200  0.19900  0.47600  Biso   1.000  H
  H27      1.0000 0.11800  0.69900  0.02400  Biso   1.000  H
  H28      1.0000 0.61800  0.80100  0.52400  Biso   1.000  H
  H29      1.0000 0.19300  0.36600  0.18900  Biso   1.000  H
  H30      1.0000 0.69300  0.13400  0.68900  Biso   1.000  H
  H31      1.0000 0.80700  0.63400  0.81100  Biso   1.000  H
  H32      1.0000 0.30700  0.86600  0.31100  Biso   1.000  H
  H33      1.0000 0.89600  0.51000  0.20800  Biso   1.000  H
  H34      1.0000 0.39600  0.99000  0.70800  Biso   1.000  H
  H35      1.0000 0.10400  0.49000  0.79200  Biso   1.000  H
  H36      1.0000 0.60400  0.01000  0.29200  Biso   1.000  H
  H37      1.0000 0.78300  0.47400  0.16600  Biso   1.000  H
  H38      1.0000 0.28300  0.02600  0.66600  Biso   1.000  H
  H39      1.0000 0.21700  0.52600  0.83400  Biso   1.000  H
  H40      1.0000 0.71700  0.97400  0.33400  Biso   1.000  H
