data_image0
_cell_length_a       20.496
_cell_length_b       16.7496
_cell_length_c       11.2622
_cell_angle_alpha    90
_cell_angle_beta     111.842
_cell_angle_gamma    90

_symmetry_space_group_name_H-M    "P 1"
_symmetry_int_tables_number       1

loop_
  _symmetry_equiv_pos_as_xyz
  'x, y, z'

loop_
  _atom_site_label
  _atom_site_occupancy
  _atom_site_fract_x
  _atom_site_fract_y
  _atom_site_fract_z
  _atom_site_thermal_displace_type
  _atom_site_B_iso_or_equiv
  _atom_site_type_symbol
  Cu1      1.0000 0.50000  0.50000  0.50000  Biso   1.000  Cu
  Cu2      1.0000 0.50000  0.50000  0.00000  Biso   1.000  Cu
  Cu3      1.0000 0.00000  0.00000  0.50000  Biso   1.000  Cu
  Cu4      1.0000 0.00000  0.00000  0.00000  Biso   1.000  Cu
  Zn1      1.0000 0.34657  0.51436  0.53954  Biso   1.000  Zn
  Zn2      1.0000 0.65343  0.51436  0.96046  Biso   1.000  Zn
  Zn3      1.0000 0.84657  0.01436  0.53954  Biso   1.000  Zn
  Zn4      1.0000 0.15343  0.01436  0.96046  Biso   1.000  Zn
  Zn5      1.0000 0.65343  0.48564  0.46046  Biso   1.000  Zn
  Zn6      1.0000 0.34657  0.48564  0.03954  Biso   1.000  Zn
  Zn7      1.0000 0.15343  0.98564  0.46046  Biso   1.000  Zn
  Zn8      1.0000 0.84657  0.98564  0.03954  Biso   1.000  Zn
  Zn9      1.0000 0.50000  0.38753  0.75000  Biso   1.000  Zn
  Zn10     1.0000 0.00000  0.88753  0.75000  Biso   1.000  Zn
  Zn11     1.0000 0.50000  0.61247  0.25000  Biso   1.000  Zn
  Zn12     1.0000 0.00000  0.11247  0.25000  Biso   1.000  Zn
  Zn13     1.0000 0.50000  0.57555  0.75000  Biso   1.000  Zn
  Zn14     1.0000 0.00000  0.07555  0.75000  Biso   1.000  Zn
  Zn15     1.0000 0.50000  0.42445  0.25000  Biso   1.000  Zn
  Zn16     1.0000 0.00000  0.92445  0.25000  Biso   1.000  Zn
  C1       1.0000 0.22520  0.33480  0.61170  Biso   1.000  C
  C2       1.0000 0.77480  0.33480  0.88830  Biso   1.000  C
  C3       1.0000 0.72520  0.83480  0.61170  Biso   1.000  C
  C4       1.0000 0.27480  0.83480  0.88830  Biso   1.000  C
  C5       1.0000 0.77480  0.66520  0.38830  Biso   1.000  C
  C6       1.0000 0.22520  0.66520  0.11170  Biso   1.000  C
  C7       1.0000 0.27480  0.16520  0.38830  Biso   1.000  C
  C8       1.0000 0.72520  0.16520  0.11170  Biso   1.000  C
  C9       1.0000 0.25020  0.31890  0.74220  Biso   1.000  C
  C10      1.0000 0.74980  0.31890  0.75780  Biso   1.000  C
  C11      1.0000 0.75020  0.81890  0.74220  Biso   1.000  C
  C12      1.0000 0.24980  0.81890  0.75780  Biso   1.000  C
  C13      1.0000 0.74980  0.68110  0.25780  Biso   1.000  C
  C14      1.0000 0.25020  0.68110  0.24220  Biso   1.000  C
  C15      1.0000 0.24980  0.18110  0.25780  Biso   1.000  C
  C16      1.0000 0.75020  0.18110  0.24220  Biso   1.000  C
  C17      1.0000 0.22070  0.25620  0.78650  Biso   1.000  C
  C18      1.0000 0.77930  0.25620  0.71350  Biso   1.000  C
  C19      1.0000 0.72070  0.75620  0.78650  Biso   1.000  C
  C20      1.0000 0.27930  0.75620  0.71350  Biso   1.000  C
  C21      1.0000 0.77930  0.74380  0.21350  Biso   1.000  C
  C22      1.0000 0.22070  0.74380  0.28650  Biso   1.000  C
  C23      1.0000 0.27930  0.24380  0.21350  Biso   1.000  C
  C24      1.0000 0.72070  0.24380  0.28650  Biso   1.000  C
  H1       1.0000 0.23670  0.24610  0.87390  Biso   1.000  H
  H2       1.0000 0.76330  0.24610  0.62610  Biso   1.000  H
  H3       1.0000 0.73670  0.74610  0.87390  Biso   1.000  H
  H4       1.0000 0.26330  0.74610  0.62610  Biso   1.000  H
  H5       1.0000 0.76330  0.75390  0.12610  Biso   1.000  H
  H6       1.0000 0.23670  0.75390  0.37390  Biso   1.000  H
  H7       1.0000 0.26330  0.25390  0.12610  Biso   1.000  H
  H8       1.0000 0.73670  0.25390  0.37390  Biso   1.000  H
  C25      1.0000 0.16850  0.20890  0.70450  Biso   1.000  C
  C26      1.0000 0.83150  0.20890  0.79550  Biso   1.000  C
  C27      1.0000 0.66850  0.70890  0.70450  Biso   1.000  C
  C28      1.0000 0.33150  0.70890  0.79550  Biso   1.000  C
  C29      1.0000 0.83150  0.79110  0.29550  Biso   1.000  C
  C30      1.0000 0.16850  0.79110  0.20450  Biso   1.000  C
  C31      1.0000 0.33150  0.29110  0.29550  Biso   1.000  C
  C32      1.0000 0.66850  0.29110  0.20450  Biso   1.000  C
  C33      1.0000 0.14610  0.22230  0.57200  Biso   1.000  C
  C34      1.0000 0.85390  0.22230  0.92800  Biso   1.000  C
  C35      1.0000 0.64610  0.72230  0.57200  Biso   1.000  C
  C36      1.0000 0.35390  0.72230  0.92800  Biso   1.000  C
  C37      1.0000 0.85390  0.77770  0.42800  Biso   1.000  C
  C38      1.0000 0.14610  0.77770  0.07200  Biso   1.000  C
  C39      1.0000 0.35390  0.27770  0.42800  Biso   1.000  C
  C40      1.0000 0.64610  0.27770  0.07200  Biso   1.000  C
  C41      1.0000 0.17360  0.28510  0.52770  Biso   1.000  C
  C42      1.0000 0.82640  0.28510  0.97230  Biso   1.000  C
  C43      1.0000 0.67360  0.78510  0.52770  Biso   1.000  C
  C44      1.0000 0.32640  0.78510  0.97230  Biso   1.000  C
  C45      1.0000 0.82640  0.71490  0.47230  Biso   1.000  C
  C46      1.0000 0.17360  0.71490  0.02770  Biso   1.000  C
  C47      1.0000 0.32640  0.21490  0.47230  Biso   1.000  C
  C48      1.0000 0.67360  0.21490  0.02770  Biso   1.000  C
  H9       1.0000 0.15770  0.29490  0.44020  Biso   1.000  H
  H10      1.0000 0.84230  0.29490  0.05980  Biso   1.000  H
  H11      1.0000 0.65770  0.79490  0.44020  Biso   1.000  H
  H12      1.0000 0.34230  0.79490  0.05980  Biso   1.000  H
  H13      1.0000 0.84230  0.70510  0.55980  Biso   1.000  H
  H14      1.0000 0.15770  0.70510  0.94020  Biso   1.000  H
  H15      1.0000 0.34230  0.20510  0.55980  Biso   1.000  H
  H16      1.0000 0.65770  0.20510  0.94020  Biso   1.000  H
  C49      1.0000 0.25270  0.40230  0.55600  Biso   1.000  C
  C50      1.0000 0.74730  0.40230  0.94400  Biso   1.000  C
  C51      1.0000 0.75270  0.90230  0.55600  Biso   1.000  C
  C52      1.0000 0.24730  0.90230  0.94400  Biso   1.000  C
  C53      1.0000 0.74730  0.59770  0.44400  Biso   1.000  C
  C54      1.0000 0.25270  0.59770  0.05600  Biso   1.000  C
  C55      1.0000 0.24730  0.09770  0.44400  Biso   1.000  C
  C56      1.0000 0.75270  0.09770  0.05600  Biso   1.000  C
  C57      1.0000 0.30630  0.36630  0.84130  Biso   1.000  C
  C58      1.0000 0.69370  0.36630  0.65870  Biso   1.000  C
  C59      1.0000 0.80630  0.86630  0.84130  Biso   1.000  C
  C60      1.0000 0.19370  0.86630  0.65870  Biso   1.000  C
  C61      1.0000 0.69370  0.63370  0.15870  Biso   1.000  C
  C62      1.0000 0.30630  0.63370  0.34130  Biso   1.000  C
  C63      1.0000 0.19370  0.13370  0.15870  Biso   1.000  C
  C64      1.0000 0.80630  0.13370  0.34130  Biso   1.000  C
  C65      1.0000 0.13310  0.14880  0.76020  Biso   1.000  C
  C66      1.0000 0.86690  0.14880  0.73980  Biso   1.000  C
  C67      1.0000 0.63310  0.64880  0.76020  Biso   1.000  C
  C68      1.0000 0.36690  0.64880  0.73980  Biso   1.000  C
  C69      1.0000 0.86690  0.85120  0.23980  Biso   1.000  C
  C70      1.0000 0.13310  0.85120  0.26020  Biso   1.000  C
  C71      1.0000 0.36690  0.35120  0.23980  Biso   1.000  C
  C72      1.0000 0.63310  0.35120  0.26020  Biso   1.000  C
  C73      1.0000 0.09610  0.16510  0.48010  Biso   1.000  C
  C74      1.0000 0.90390  0.16510  0.01990  Biso   1.000  C
  C75      1.0000 0.59610  0.66510  0.48010  Biso   1.000  C
  C76      1.0000 0.40390  0.66510  0.01990  Biso   1.000  C
  C77      1.0000 0.90390  0.83490  0.51990  Biso   1.000  C
  C78      1.0000 0.09610  0.83490  0.98010  Biso   1.000  C
  C79      1.0000 0.40390  0.33490  0.51990  Biso   1.000  C
  C80      1.0000 0.59610  0.33490  0.98010  Biso   1.000  C
  O1       1.0000 0.21710  0.42700  0.44840  Biso   1.000  O
  O2       1.0000 0.78290  0.42700  0.05160  Biso   1.000  O
  O3       1.0000 0.71710  0.92700  0.44840  Biso   1.000  O
  O4       1.0000 0.28290  0.92700  0.05160  Biso   1.000  O
  O5       1.0000 0.78290  0.57300  0.55160  Biso   1.000  O
  O6       1.0000 0.21710  0.57300  0.94840  Biso   1.000  O
  O7       1.0000 0.28290  0.07300  0.55160  Biso   1.000  O
  O8       1.0000 0.71710  0.07300  0.94840  Biso   1.000  O
  O9       1.0000 0.05950  0.43020  0.38870  Biso   1.000  O
  O10      1.0000 0.94050  0.43020  0.11130  Biso   1.000  O
  O11      1.0000 0.55950  0.93020  0.38870  Biso   1.000  O
  O12      1.0000 0.44050  0.93020  0.11130  Biso   1.000  O
  O13      1.0000 0.94050  0.56980  0.61130  Biso   1.000  O
  O14      1.0000 0.05950  0.56980  0.88870  Biso   1.000  O
  O15      1.0000 0.44050  0.06980  0.61130  Biso   1.000  O
  O16      1.0000 0.55950  0.06980  0.88870  Biso   1.000  O
  O17      1.0000 0.31240  0.43090  0.62330  Biso   1.000  O
  O18      1.0000 0.68760  0.43090  0.87670  Biso   1.000  O
  O19      1.0000 0.81240  0.93090  0.62330  Biso   1.000  O
  O20      1.0000 0.18760  0.93090  0.87670  Biso   1.000  O
  O21      1.0000 0.68760  0.56910  0.37670  Biso   1.000  O
  O22      1.0000 0.31240  0.56910  0.12330  Biso   1.000  O
  O23      1.0000 0.18760  0.06910  0.37670  Biso   1.000  O
  O24      1.0000 0.81240  0.06910  0.12330  Biso   1.000  O
  O25      1.0000 0.09130  0.31070  0.16970  Biso   1.000  O
  O26      1.0000 0.90870  0.31070  0.33030  Biso   1.000  O
  O27      1.0000 0.59130  0.81070  0.16970  Biso   1.000  O
  O28      1.0000 0.40870  0.81070  0.33030  Biso   1.000  O
  O29      1.0000 0.90870  0.68930  0.83030  Biso   1.000  O
  O30      1.0000 0.09130  0.68930  0.66970  Biso   1.000  O
  O31      1.0000 0.40870  0.18930  0.83030  Biso   1.000  O
  O32      1.0000 0.59130  0.18930  0.66970  Biso   1.000  O
  O33      1.0000 0.28850  0.43300  0.87480  Biso   1.000  O
  O34      1.0000 0.71150  0.43300  0.62520  Biso   1.000  O
  O35      1.0000 0.78850  0.93300  0.87480  Biso   1.000  O
  O36      1.0000 0.21150  0.93300  0.62520  Biso   1.000  O
  O37      1.0000 0.71150  0.56700  0.12520  Biso   1.000  O
  O38      1.0000 0.28850  0.56700  0.37480  Biso   1.000  O
  O39      1.0000 0.21150  0.06700  0.12520  Biso   1.000  O
  O40      1.0000 0.78850  0.06700  0.37480  Biso   1.000  O
  O41      1.0000 0.13140  0.60050  0.40070  Biso   1.000  O
  O42      1.0000 0.86860  0.60050  0.09930  Biso   1.000  O
  O43      1.0000 0.63140  0.10050  0.40070  Biso   1.000  O
  O44      1.0000 0.36860  0.10050  0.09930  Biso   1.000  O
  O45      1.0000 0.86860  0.39950  0.59930  Biso   1.000  O
  O46      1.0000 0.13140  0.39950  0.90070  Biso   1.000  O
  O47      1.0000 0.36860  0.89950  0.59930  Biso   1.000  O
  O48      1.0000 0.63140  0.89950  0.90070  Biso   1.000  O
  O49      1.0000 0.36490  0.33440  0.89030  Biso   1.000  O
  O50      1.0000 0.63510  0.33440  0.60970  Biso   1.000  O
  O51      1.0000 0.86490  0.83440  0.89030  Biso   1.000  O
  O52      1.0000 0.13510  0.83440  0.60970  Biso   1.000  O
  O53      1.0000 0.63510  0.66560  0.10970  Biso   1.000  O
  O54      1.0000 0.36490  0.66560  0.39030  Biso   1.000  O
  O55      1.0000 0.13510  0.16560  0.10970  Biso   1.000  O
  O56      1.0000 0.86490  0.16560  0.39030  Biso   1.000  O
  O57      1.0000 0.05840  0.55140  0.12430  Biso   1.000  O
  O58      1.0000 0.94160  0.55140  0.37570  Biso   1.000  O
  O59      1.0000 0.55840  0.05140  0.12430  Biso   1.000  O
  O60      1.0000 0.44160  0.05140  0.37570  Biso   1.000  O
  O61      1.0000 0.94160  0.44860  0.87570  Biso   1.000  O
  O62      1.0000 0.05840  0.44860  0.62430  Biso   1.000  O
  O63      1.0000 0.44160  0.94860  0.87570  Biso   1.000  O
  O64      1.0000 0.55840  0.94860  0.62430  Biso   1.000  O
  O65      1.0000 0.17110  0.09960  0.83920  Biso   1.000  O
  O66      1.0000 0.82890  0.09960  0.66080  Biso   1.000  O
  O67      1.0000 0.67110  0.59960  0.83920  Biso   1.000  O
  O68      1.0000 0.32890  0.59960  0.66080  Biso   1.000  O
  O69      1.0000 0.82890  0.90040  0.16080  Biso   1.000  O
  O70      1.0000 0.17110  0.90040  0.33920  Biso   1.000  O
  O71      1.0000 0.32890  0.40040  0.16080  Biso   1.000  O
  O72      1.0000 0.67110  0.40040  0.33920  Biso   1.000  O
  O73      1.0000 0.18950  0.43200  0.16250  Biso   1.000  O
  O74      1.0000 0.81050  0.43200  0.33750  Biso   1.000  O
  O75      1.0000 0.68950  0.93200  0.16250  Biso   1.000  O
  O76      1.0000 0.31050  0.93200  0.33750  Biso   1.000  O
  O77      1.0000 0.81050  0.56800  0.83750  Biso   1.000  O
  O78      1.0000 0.18950  0.56800  0.66250  Biso   1.000  O
  O79      1.0000 0.31050  0.06800  0.83750  Biso   1.000  O
  O80      1.0000 0.68950  0.06800  0.66250  Biso   1.000  O
  O81      1.0000 0.06777  0.15650  0.72490  Biso   1.000  O
  O82      1.0000 0.93223  0.15650  0.77510  Biso   1.000  O
  O83      1.0000 0.56777  0.65650  0.72490  Biso   1.000  O
  O84      1.0000 0.43223  0.65650  0.77510  Biso   1.000  O
  O85      1.0000 0.93223  0.84350  0.27510  Biso   1.000  O
  O86      1.0000 0.06777  0.84350  0.22490  Biso   1.000  O
  O87      1.0000 0.43223  0.34350  0.27510  Biso   1.000  O
  O88      1.0000 0.56777  0.34350  0.22490  Biso   1.000  O
  O89      1.0000 0.09750  0.09310  0.51110  Biso   1.000  O
  O90      1.0000 0.90250  0.09310  0.98890  Biso   1.000  O
  O91      1.0000 0.59750  0.59310  0.51110  Biso   1.000  O
  O92      1.0000 0.40250  0.59310  0.98890  Biso   1.000  O
  O93      1.0000 0.90250  0.90690  0.48890  Biso   1.000  O
  O94      1.0000 0.09750  0.90690  0.01110  Biso   1.000  O
  O95      1.0000 0.40250  0.40690  0.48890  Biso   1.000  O
  O96      1.0000 0.59750  0.40690  0.01110  Biso   1.000  O
  O97      1.0000 0.05550  0.19310  0.37380  Biso   1.000  O
  O98      1.0000 0.94450  0.19310  0.12620  Biso   1.000  O
  O99      1.0000 0.55550  0.69310  0.37380  Biso   1.000  O
  O100     1.0000 0.44450  0.69310  0.12620  Biso   1.000  O
  O101     1.0000 0.94450  0.80690  0.62620  Biso   1.000  O
  O102     1.0000 0.05550  0.80690  0.87380  Biso   1.000  O
  O103     1.0000 0.44450  0.30690  0.62620  Biso   1.000  O
  O104     1.0000 0.55550  0.30690  0.87380  Biso   1.000  O
  O105     1.0000 0.44037  0.56230  0.56220  Biso   1.000  O
  O106     1.0000 0.55963  0.56230  0.93780  Biso   1.000  O
  O107     1.0000 0.94037  0.06230  0.56220  Biso   1.000  O
  O108     1.0000 0.05963  0.06230  0.93780  Biso   1.000  O
  O109     1.0000 0.55963  0.43770  0.43780  Biso   1.000  O
  O110     1.0000 0.44037  0.43770  0.06220  Biso   1.000  O
  O111     1.0000 0.05963  0.93770  0.43780  Biso   1.000  O
  O112     1.0000 0.94037  0.93770  0.06220  Biso   1.000  O
  O113     1.0000 0.54693  0.46880  0.68360  Biso   1.000  O
  O114     1.0000 0.45307  0.46880  0.81640  Biso   1.000  O
  O115     1.0000 0.04693  0.96880  0.68360  Biso   1.000  O
  O116     1.0000 0.95307  0.96880  0.81640  Biso   1.000  O
  O117     1.0000 0.45307  0.53120  0.31640  Biso   1.000  O
  O118     1.0000 0.54693  0.53120  0.18360  Biso   1.000  O
  O119     1.0000 0.95307  0.03120  0.31640  Biso   1.000  O
  O120     1.0000 0.04693  0.03120  0.18360  Biso   1.000  O
  Na1      1.0000 0.00000  0.32050  0.25000  Biso   1.000  Na
  Na2      1.0000 0.50000  0.82050  0.25000  Biso   1.000  Na
  Na3      1.0000 0.00000  0.67950  0.75000  Biso   1.000  Na
  Na4      1.0000 0.50000  0.17950  0.75000  Biso   1.000  Na
  Na5      1.0000 0.16760  0.51850  0.28810  Biso   1.000  Na
  Na6      1.0000 0.83240  0.51850  0.21190  Biso   1.000  Na
  Na7      1.0000 0.66760  0.01850  0.28810  Biso   1.000  Na
  Na8      1.0000 0.33240  0.01850  0.21190  Biso   1.000  Na
  Na9      1.0000 0.83240  0.48150  0.71190  Biso   1.000  Na
  Na10     1.0000 0.16760  0.48150  0.78810  Biso   1.000  Na
  Na11     1.0000 0.33240  0.98150  0.71190  Biso   1.000  Na
  Na12     1.0000 0.66760  0.98150  0.78810  Biso   1.000  Na
  O121     1.0000 0.00430  0.30520  0.89090  Biso   1.000  O
  O122     1.0000 0.99570  0.30520  0.60910  Biso   1.000  O
  O123     1.0000 0.50430  0.80520  0.89090  Biso   1.000  O
  O124     1.0000 0.49570  0.80520  0.60910  Biso   1.000  O
  O125     1.0000 0.99570  0.69480  0.10910  Biso   1.000  O
  O126     1.0000 0.00430  0.69480  0.39090  Biso   1.000  O
  O127     1.0000 0.49570  0.19480  0.10910  Biso   1.000  O
  O128     1.0000 0.50430  0.19480  0.39090  Biso   1.000  O
