data_image0
_cell_length_a       5.1486
_cell_length_b       8.3829
_cell_length_c       18.6623
_cell_angle_alpha    81.541
_cell_angle_beta     83.591
_cell_angle_gamma    76.189

_symmetry_space_group_name_H-M    "P 1"
_symmetry_int_tables_number       1

loop_
  _symmetry_equiv_pos_as_xyz
  'x, y, z'

loop_
  _atom_site_label
  _atom_site_occupancy
  _atom_site_fract_x
  _atom_site_fract_y
  _atom_site_fract_z
  _atom_site_thermal_displace_type
  _atom_site_B_iso_or_equiv
  _atom_site_type_symbol
  Cu1      1.0000 0.23265  0.99069  0.96508  Biso   1.000  Cu
  Cu2      1.0000 0.76735  0.00931  0.03492  Biso   1.000  Cu
  O1       1.0000 0.27910  0.75716  0.00055  Biso   1.000  O
  O2       1.0000 0.72090  0.24284  0.99945  Biso   1.000  O
  O3       1.0000 0.87760  0.77171  0.06342  Biso   1.000  O
  O4       1.0000 0.12240  0.22829  0.93658  Biso   1.000  O
  O5       1.0000 0.33420  0.02775  0.06119  Biso   1.000  O
  O6       1.0000 0.66580  0.97225  0.93881  Biso   1.000  O
  O7       1.0000 0.92820  0.04373  0.12024  Biso   1.000  O
  O8       1.0000 0.07180  0.95627  0.87976  Biso   1.000  O
  C1       1.0000 0.11100  0.69470  0.04343  Biso   1.000  C
  C2       1.0000 0.88900  0.30530  0.95657  Biso   1.000  C
  C3       1.0000 0.20760  0.51604  0.07519  Biso   1.000  C
  C4       1.0000 0.79240  0.48396  0.92481  Biso   1.000  C
  H1       1.0000 0.27200  0.44760  0.03640  Biso   1.000  H
  H2       1.0000 0.72800  0.55240  0.96360  Biso   1.000  H
  H3       1.0000 0.06080  0.47650  0.10360  Biso   1.000  H
  H4       1.0000 0.93920  0.52350  0.89640  Biso   1.000  H
  C5       1.0000 0.43550  0.50420  0.12383  Biso   1.000  C
  C6       1.0000 0.56450  0.49580  0.87617  Biso   1.000  C
  H5       1.0000 0.52530  0.38880  0.13480  Biso   1.000  H
  H6       1.0000 0.47470  0.61120  0.86520  Biso   1.000  H
  H7       1.0000 0.56580  0.56210  0.09730  Biso   1.000  H
  H8       1.0000 0.43420  0.43790  0.90270  Biso   1.000  H
  C7       1.0000 0.33720  0.57720  0.19505  Biso   1.000  C
  C8       1.0000 0.66280  0.42280  0.80495  Biso   1.000  C
  H9       1.0000 0.22460  0.68710  0.18450  Biso   1.000  H
  H10      1.0000 0.77540  0.31290  0.81550  Biso   1.000  H
  H11      1.0000 0.22880  0.50890  0.22500  Biso   1.000  H
  H12      1.0000 0.77120  0.49110  0.77500  Biso   1.000  H
  C9       1.0000 0.56850  0.58810  0.23711  Biso   1.000  C
  C10      1.0000 0.43150  0.41190  0.76289  Biso   1.000  C
  H13      1.0000 0.66550  0.66530  0.20890  Biso   1.000  H
  H14      1.0000 0.33450  0.33470  0.79110  Biso   1.000  H
  H15      1.0000 0.69120  0.48030  0.24280  Biso   1.000  H
  H16      1.0000 0.30880  0.51970  0.75720  Biso   1.000  H
  C11      1.0000 0.47910  0.64360  0.31214  Biso   1.000  C
  C12      1.0000 0.52090  0.35640  0.68786  Biso   1.000  C
  H17      1.0000 0.33850  0.74400  0.30730  Biso   1.000  H
  H18      1.0000 0.66150  0.25600  0.69270  Biso   1.000  H
  H19      1.0000 0.40460  0.55880  0.34270  Biso   1.000  H
  H20      1.0000 0.59540  0.44120  0.65730  Biso   1.000  H
  C13      1.0000 0.70820  0.67610  0.34884  Biso   1.000  C
  C14      1.0000 0.29180  0.32390  0.65116  Biso   1.000  C
  H21      1.0000 0.84880  0.57760  0.35340  Biso   1.000  H
  H22      1.0000 0.15120  0.42240  0.64660  Biso   1.000  H
  H23      1.0000 0.64340  0.70730  0.39620  Biso   1.000  H
  H24      1.0000 0.35660  0.29270  0.60380  Biso   1.000  H
  H25      1.0000 0.77670  0.76400  0.32000  Biso   1.000  H
  H26      1.0000 0.22330  0.23600  0.68000  Biso   1.000  H
  C15      1.0000 0.17260  0.04518  0.11793  Biso   1.000  C
  C16      1.0000 0.82740  0.95482  0.88207  Biso   1.000  C
  C17      1.0000 0.28540  0.06740  0.18607  Biso   1.000  C
  C18      1.0000 0.71460  0.93260  0.81393  Biso   1.000  C
  H27      1.0000 0.37600  0.15820  0.17510  Biso   1.000  H
  H28      1.0000 0.62400  0.84180  0.82490  Biso   1.000  H
  H29      1.0000 0.41850  0.96800  0.20060  Biso   1.000  H
  H30      1.0000 0.58150  0.03200  0.79940  Biso   1.000  H
  C19      1.0000 0.07670  0.10240  0.24965  Biso   1.000  C
  C20      1.0000 0.92330  0.89760  0.75035  Biso   1.000  C
  H31      1.0000 0.99600  0.00780  0.26340  Biso   1.000  H
  H32      1.0000 0.00400  0.99220  0.73660  Biso   1.000  H
  H33      1.0000 0.93600  0.19690  0.23420  Biso   1.000  H
  H34      1.0000 0.06400  0.80310  0.76580  Biso   1.000  H
  C21      1.0000 0.19260  0.13760  0.31586  Biso   1.000  C
  C22      1.0000 0.80740  0.86240  0.68414  Biso   1.000  C
  H35      1.0000 0.27690  0.23060  0.30210  Biso   1.000  H
  H36      1.0000 0.72310  0.76940  0.69790  Biso   1.000  H
  H37      1.0000 0.32970  0.04200  0.33230  Biso   1.000  H
  H38      1.0000 0.67030  0.95800  0.66770  Biso   1.000  H
  C23      1.0000 0.97830  0.17660  0.37818  Biso   1.000  C
  C24      1.0000 0.02170  0.82340  0.62182  Biso   1.000  C
  H39      1.0000 0.83380  0.26550  0.36010  Biso   1.000  H
  H40      1.0000 0.16620  0.73450  0.63990  Biso   1.000  H
  H41      1.0000 0.90470  0.07980  0.39420  Biso   1.000  H
  H42      1.0000 0.09530  0.92020  0.60580  Biso   1.000  H
  C25      1.0000 0.07960  0.22670  0.44331  Biso   1.000  C
  C26      1.0000 0.92040  0.77330  0.55669  Biso   1.000  C
  H43      1.0000 0.16070  0.32040  0.42730  Biso   1.000  H
  H44      1.0000 0.83930  0.67960  0.57270  Biso   1.000  H
  H45      1.0000 0.21700  0.13570  0.46340  Biso   1.000  H
  H46      1.0000 0.78300  0.86430  0.53660  Biso   1.000  H
  C27      1.0000 0.85530  0.27280  0.50239  Biso   1.000  C
  C28      1.0000 0.14470  0.72720  0.49761  Biso   1.000  C
  H47      1.0000 0.72220  0.36570  0.48320  Biso   1.000  H
  H48      1.0000 0.27780  0.63430  0.51680  Biso   1.000  H
  H49      1.0000 0.92810  0.30140  0.54270  Biso   1.000  H
  H50      1.0000 0.07190  0.69860  0.45730  Biso   1.000  H
  H51      1.0000 0.77450  0.18040  0.51850  Biso   1.000  H
  H52      1.0000 0.22550  0.81960  0.48150  Biso   1.000  H
