data_image0
_cell_length_a       8.748
_cell_length_b       11.086
_cell_length_c       12.472
_cell_angle_alpha    85.145
_cell_angle_beta     82.72
_cell_angle_gamma    68.676

_symmetry_space_group_name_H-M    "P 1"
_symmetry_int_tables_number       1

loop_
  _symmetry_equiv_pos_as_xyz
  'x, y, z'

loop_
  _atom_site_label
  _atom_site_occupancy
  _atom_site_fract_x
  _atom_site_fract_y
  _atom_site_fract_z
  _atom_site_thermal_displace_type
  _atom_site_B_iso_or_equiv
  _atom_site_type_symbol
  Cu1      1.0000 0.42762  0.82769  0.24540  Biso   1.000  Cu
  Cu2      1.0000 0.57238  0.17231  0.75460  Biso   1.000  Cu
  Br1      1.0000 0.23821  0.79198  0.55742  Biso   1.000  Br
  Br2      1.0000 0.76179  0.20802  0.44258  Biso   1.000  Br
  N1       1.0000 0.30700  0.70050  0.28980  Biso   1.000  N
  N2       1.0000 0.69300  0.29950  0.71020  Biso   1.000  N
  H1       1.0000 0.28850  0.70130  0.36320  Biso   1.000  H
  H2       1.0000 0.71150  0.29870  0.63680  Biso   1.000  H
  N3       1.0000 0.20920  0.94450  0.19590  Biso   1.000  N
  N4       1.0000 0.79080  0.05550  0.80410  Biso   1.000  N
  H3       1.0000 0.20990  0.93470  0.12410  Biso   1.000  H
  H4       1.0000 0.79010  0.06530  0.87590  Biso   1.000  H
  N5       1.0000 0.48220  0.98900  0.22560  Biso   1.000  N
  N6       1.0000 0.51780  0.01100  0.77440  Biso   1.000  N
  H5       1.0000 0.57860  0.97260  0.18210  Biso   1.000  H
  H6       1.0000 0.42140  0.02740  0.81790  Biso   1.000  H
  N7       1.0000 0.57410  0.78590  0.37400  Biso   1.000  N
  N8       1.0000 0.42590  0.21410  0.62600  Biso   1.000  N
  H7       1.0000 0.50260  0.79120  0.43470  Biso   1.000  H
  H8       1.0000 0.49740  0.20880  0.56530  Biso   1.000  H
  C1       1.0000 0.14180  0.75760  0.25040  Biso   1.000  C
  C2       1.0000 0.85820  0.24240  0.74960  Biso   1.000  C
  H9       1.0000 0.06540  0.72380  0.29420  Biso   1.000  H
  H10      1.0000 0.93460  0.27620  0.70580  Biso   1.000  H
  H11      1.0000 0.14800  0.73500  0.17610  Biso   1.000  H
  H12      1.0000 0.85200  0.26500  0.82390  Biso   1.000  H
  C3       1.0000 0.08290  0.90050  0.25710  Biso   1.000  C
  C4       1.0000 0.91710  0.09950  0.74290  Biso   1.000  C
  H13      1.0000 0.97860  0.94050  0.22650  Biso   1.000  H
  H14      1.0000 0.02140  0.05950  0.77350  Biso   1.000  H
  H15      1.0000 0.06720  0.92400  0.33200  Biso   1.000  H
  H16      1.0000 0.93280  0.07600  0.66800  Biso   1.000  H
  C5       1.0000 0.18770  0.07860  0.21310  Biso   1.000  C
  C6       1.0000 0.81230  0.92140  0.78690  Biso   1.000  C
  H17      1.0000 0.15830  0.09690  0.28920  Biso   1.000  H
  H18      1.0000 0.84170  0.90310  0.71080  Biso   1.000  H
  H19      1.0000 0.10090  0.13770  0.17250  Biso   1.000  H
  H20      1.0000 0.89910  0.86230  0.82750  Biso   1.000  H
  C7       1.0000 0.35020  0.09420  0.17430  Biso   1.000  C
  C8       1.0000 0.64980  0.90580  0.82570  Biso   1.000  C
  H21      1.0000 0.37050  0.08960  0.09620  Biso   1.000  H
  H22      1.0000 0.62950  0.91040  0.90380  Biso   1.000  H
  H23      1.0000 0.34780  0.17780  0.19370  Biso   1.000  H
  H24      1.0000 0.65220  0.82220  0.80630  Biso   1.000  H
  C9       1.0000 0.50670  0.01750  0.33430  Biso   1.000  C
  C10      1.0000 0.49330  0.98250  0.66570  Biso   1.000  C
  H25      1.0000 0.40360  0.04160  0.38080  Biso   1.000  H
  H26      1.0000 0.59640  0.95840  0.61920  Biso   1.000  H
  H27      1.0000 0.54810  0.08810  0.32980  Biso   1.000  H
  H28      1.0000 0.45190  0.91190  0.67020  Biso   1.000  H
  C11      1.0000 0.63040  0.89520  0.37770  Biso   1.000  C
  C12      1.0000 0.36960  0.10480  0.62230  Biso   1.000  C
  H29      1.0000 0.73620  0.87730  0.33480  Biso   1.000  H
  H30      1.0000 0.26380  0.12270  0.66520  Biso   1.000  H
  H31      1.0000 0.64450  0.90620  0.45170  Biso   1.000  H
  H32      1.0000 0.35550  0.09380  0.54830  Biso   1.000  H
  C13      1.0000 0.38310  0.56090  0.26350  Biso   1.000  C
  C14      1.0000 0.61690  0.43910  0.73650  Biso   1.000  C
  H33      1.0000 0.49760  0.52820  0.27830  Biso   1.000  H
  H34      1.0000 0.50240  0.47180  0.72170  Biso   1.000  H
  H35      1.0000 0.38080  0.55280  0.18690  Biso   1.000  H
  H36      1.0000 0.61920  0.44720  0.81310  Biso   1.000  H
  C15      1.0000 0.29580  0.48040  0.32700  Biso   1.000  C
  C16      1.0000 0.70420  0.51960  0.67300  Biso   1.000  C
  C17      1.0000 0.18130  0.44360  0.28680  Biso   1.000  C
  C18      1.0000 0.81870  0.55640  0.71320  Biso   1.000  C
  H37      1.0000 0.16130  0.46340  0.21480  Biso   1.000  H
  H38      1.0000 0.83870  0.53660  0.78520  Biso   1.000  H
  C19      1.0000 0.09470  0.37720  0.35220  Biso   1.000  C
  C20      1.0000 0.90530  0.62280  0.64780  Biso   1.000  C
  H39      1.0000 0.01370  0.35640  0.32480  Biso   1.000  H
  H40      1.0000 0.98630  0.64360  0.67520  Biso   1.000  H
  C21      1.0000 0.12890  0.34180  0.45820  Biso   1.000  C
  C22      1.0000 0.87110  0.65820  0.54180  Biso   1.000  C
  H41      1.0000 0.07280  0.29520  0.50110  Biso   1.000  H
  H42      1.0000 0.92720  0.70480  0.49890  Biso   1.000  H
  C23      1.0000 0.24610  0.37530  0.50080  Biso   1.000  C
  C24      1.0000 0.75390  0.62470  0.49920  Biso   1.000  C
  C25      1.0000 0.32640  0.44510  0.43230  Biso   1.000  C
  C26      1.0000 0.67360  0.55490  0.56770  Biso   1.000  C
  H43      1.0000 0.40490  0.46880  0.45980  Biso   1.000  H
  H44      1.0000 0.59510  0.53120  0.54020  Biso   1.000  H
  C27      1.0000 0.70780  0.65980  0.38590  Biso   1.000  C
  C28      1.0000 0.29220  0.34020  0.61410  Biso   1.000  C
  H45      1.0000 0.67440  0.59300  0.36180  Biso   1.000  H
  H46      1.0000 0.32560  0.40700  0.63820  Biso   1.000  H
  H47      1.0000 0.80460  0.66100  0.33890  Biso   1.000  H
  H48      1.0000 0.19540  0.33900  0.66110  Biso   1.000  H
  C29      1.0000 0.74530  0.72330  0.10080  Biso   1.000  C
  C30      1.0000 0.25470  0.27670  0.89920  Biso   1.000  C
  C31      1.0000 0.87870  0.60610  0.04710  Biso   1.000  C
  C32      1.0000 0.12130  0.39390  0.95290  Biso   1.000  C
  C33      1.0000 0.86010  0.48750  0.05500  Biso   1.000  C
  C34      1.0000 0.13990  0.51250  0.94500  Biso   1.000  C
  H49      1.0000 0.76580  0.47870  0.09280  Biso   1.000  H
  H50      1.0000 0.23420  0.52130  0.90720  Biso   1.000  H
  C35      1.0000 0.02110  0.61690  0.99220  Biso   1.000  C
  C36      1.0000 0.97890  0.38310  0.00780  Biso   1.000  C
  H51      1.0000 0.03580  0.69620  0.98740  Biso   1.000  H
  H52      1.0000 0.96420  0.30380  0.01260  Biso   1.000  H
  O1       1.0000 0.78330  0.81680  0.11500  Biso   1.000  O
  O2       1.0000 0.21670  0.18320  0.88500  Biso   1.000  O
  O3       1.0000 0.60570  0.71480  0.12640  Biso   1.000  O
  O4       1.0000 0.39430  0.28520  0.87360  Biso   1.000  O
  O5       1.0000 0.83770  0.02920  0.03580  Biso   1.000  O
  O6       1.0000 0.16230  0.97080  0.96420  Biso   1.000  O
  O7       1.0000 0.71780  0.21760  0.18380  Biso   1.000  O
  O8       1.0000 0.28220  0.78240  0.81620  Biso   1.000  O
  O9       1.0000 0.45940  0.62830  0.97790  Biso   1.000  O
  O10      1.0000 0.54060  0.37170  0.02210  Biso   1.000  O
