data_image0
_cell_length_a       9.882
_cell_length_b       11.07
_cell_length_c       12.287
_cell_angle_alpha    66.194
_cell_angle_beta     78.01
_cell_angle_gamma    63.966

_symmetry_space_group_name_H-M    "P 1"
_symmetry_int_tables_number       1

loop_
  _symmetry_equiv_pos_as_xyz
  'x, y, z'

loop_
  _atom_site_label
  _atom_site_occupancy
  _atom_site_fract_x
  _atom_site_fract_y
  _atom_site_fract_z
  _atom_site_thermal_displace_type
  _atom_site_B_iso_or_equiv
  _atom_site_type_symbol
  Cu1      1.0000 0.36342  0.14165  0.50231  Biso   1.000  Cu
  Cu2      1.0000 0.63658  0.85835  0.49769  Biso   1.000  Cu
  O1       1.0000 0.82890  0.84805  0.41597  Biso   1.000  O
  O2       1.0000 0.17110  0.15195  0.58403  Biso   1.000  O
  N1       1.0000 0.35150  0.31050  0.78573  Biso   1.000  N
  N2       1.0000 0.64850  0.68950  0.21427  Biso   1.000  N
  C1       1.0000 0.91320  0.75630  0.36880  Biso   1.000  C
  C2       1.0000 0.08680  0.24370  0.63120  Biso   1.000  C
  Cu3      1.0000 0.31029  0.39131  0.61025  Biso   1.000  Cu
  Cu4      1.0000 0.68971  0.60869  0.38975  Biso   1.000  Cu
  O3       1.0000 0.88560  0.65952  0.36432  Biso   1.000  O
  O4       1.0000 0.11440  0.34048  0.63568  Biso   1.000  O
  N3       1.0000 0.19080  0.58590  0.62475  Biso   1.000  N
  N4       1.0000 0.80920  0.41410  0.37525  Biso   1.000  N
  C3       1.0000 0.05990  0.77170  0.31280  Biso   1.000  C
  C4       1.0000 0.94010  0.22830  0.68720  Biso   1.000  C
  H1       1.0000 0.04150  0.87500  0.27810  Biso   1.000  H
  H2       1.0000 0.95850  0.12500  0.72190  Biso   1.000  H
  H3       1.0000 0.13410  0.72430  0.37570  Biso   1.000  H
  H4       1.0000 0.86590  0.27570  0.62430  Biso   1.000  H
  O5       1.0000 0.29590  0.49060  0.43412  Biso   1.000  O
  O6       1.0000 0.70410  0.50940  0.56588  Biso   1.000  O
  N5       1.0000 0.67000  0.04890  0.71950  Biso   1.000  N
  N6       1.0000 0.33000  0.95110  0.28050  Biso   1.000  N
  C5       1.0000 0.12540  0.70720  0.21730  Biso   1.000  C
  C6       1.0000 0.87460  0.29280  0.78270  Biso   1.000  C
  O7       1.0000 0.28180  0.32776  0.37669  Biso   1.000  O
  O8       1.0000 0.71820  0.67224  0.62331  Biso   1.000  O
  N7       1.0000 0.57360  0.13120  0.65700  Biso   1.000  N
  N8       1.0000 0.42640  0.86880  0.34300  Biso   1.000  N
  C7       1.0000 0.08390  0.79570  0.10070  Biso   1.000  C
  C8       1.0000 0.91610  0.20430  0.89930  Biso   1.000  C
  H5       1.0000 0.02140  0.89460  0.08480  Biso   1.000  H
  H6       1.0000 0.97860  0.10540  0.91520  Biso   1.000  H
  N9       1.0000 0.47450  0.21670  0.58917  Biso   1.000  N
  N10      1.0000 0.52550  0.78330  0.41083  Biso   1.000  N
  C9       1.0000 0.12940  0.74610  0.00780  Biso   1.000  C
  C10      1.0000 0.87060  0.25390  0.99220  Biso   1.000  C
  H7       1.0000 0.09810  0.80990  0.92950  Biso   1.000  H
  H8       1.0000 0.90190  0.19010  0.07050  Biso   1.000  H
  N11      1.0000 0.53940  0.06600  0.39790  Biso   1.000  N
  N12      1.0000 0.46060  0.93400  0.60210  Biso   1.000  N
  C11      1.0000 0.22060  0.60380  0.02860  Biso   1.000  C
  C12      1.0000 0.77940  0.39620  0.97140  Biso   1.000  C
  H9       1.0000 0.25440  0.56840  0.96490  Biso   1.000  H
  H10      1.0000 0.74560  0.43160  0.03510  Biso   1.000  H
  N13      1.0000 0.58260  0.12880  0.30260  Biso   1.000  N
  N14      1.0000 0.41740  0.87120  0.69740  Biso   1.000  N
  C13      1.0000 0.26260  0.51250  0.14350  Biso   1.000  C
  C14      1.0000 0.73740  0.48750  0.85650  Biso   1.000  C
  H11      1.0000 0.32350  0.41350  0.15810  Biso   1.000  H
  H12      1.0000 0.67650  0.58650  0.84190  Biso   1.000  H
  N15      1.0000 0.62390  0.18780  0.21430  Biso   1.000  N
  N16      1.0000 0.37610  0.81220  0.78570  Biso   1.000  N
  C15      1.0000 0.21840  0.56140  0.23830  Biso   1.000  C
  C16      1.0000 0.78160  0.43860  0.76170  Biso   1.000  C
  C17      1.0000 0.26900  0.45190  0.36040  Biso   1.000  C
  C18      1.0000 0.73100  0.54810  0.63960  Biso   1.000  C
  C19      1.0000 0.24860  0.68560  0.58290  Biso   1.000  C
  C20      1.0000 0.75140  0.31440  0.41710  Biso   1.000  C
  H13      1.0000 0.34600  0.66410  0.54490  Biso   1.000  H
  H14      1.0000 0.65400  0.33590  0.45510  Biso   1.000  H
  C21      1.0000 0.17110  0.81890  0.59340  Biso   1.000  C
  C22      1.0000 0.82890  0.18110  0.40660  Biso   1.000  C
  H15      1.0000 0.21390  0.88870  0.56230  Biso   1.000  H
  H16      1.0000 0.78610  0.11130  0.43770  Biso   1.000  H
  C23      1.0000 0.03050  0.84940  0.64980  Biso   1.000  C
  C24      1.0000 0.96950  0.15060  0.35020  Biso   1.000  C
  H17      1.0000 0.97530  0.94000  0.65900  Biso   1.000  H
  H18      1.0000 0.02470  0.06000  0.34100  Biso   1.000  H
  C25      1.0000 0.97220  0.74720  0.69210  Biso   1.000  C
  C26      1.0000 0.02780  0.25280  0.30790  Biso   1.000  C
  H19      1.0000 0.87550  0.76570  0.73110  Biso   1.000  H
  H20      1.0000 0.12450  0.23430  0.26890  Biso   1.000  H
  C27      1.0000 0.05490  0.61730  0.67770  Biso   1.000  C
  C28      1.0000 0.94510  0.38270  0.32230  Biso   1.000  C
  H21      1.0000 0.01310  0.54690  0.70680  Biso   1.000  H
  H22      1.0000 0.98690  0.45310  0.29320  Biso   1.000  H
  C29      1.0000 0.30750  0.17710  0.98530  Biso   1.000  C
  C30      1.0000 0.69250  0.82290  0.01470  Biso   1.000  C
  H23      1.0000 0.25320  0.12340  0.04020  Biso   1.000  H
  H24      1.0000 0.74680  0.87660  0.95980  Biso   1.000  H
  C31      1.0000 0.27790  0.23810  0.86690  Biso   1.000  C
  C32      1.0000 0.72210  0.76190  0.13310  Biso   1.000  C
  H25      1.0000 0.20020  0.22760  0.84190  Biso   1.000  H
  H26      1.0000 0.79980  0.77240  0.15810  Biso   1.000  H
  C33      1.0000 0.45860  0.32470  0.82330  Biso   1.000  C
  C34      1.0000 0.54140  0.67530  0.17670  Biso   1.000  C
  H27      1.0000 0.51430  0.37560  0.76650  Biso   1.000  H
  H28      1.0000 0.48570  0.62440  0.23350  Biso   1.000  H
  C35      1.0000 0.49160  0.26840  0.94100  Biso   1.000  C
  C36      1.0000 0.50840  0.73160  0.05900  Biso   1.000  C
  H29      1.0000 0.56830  0.28130  0.96490  Biso   1.000  H
  H30      1.0000 0.43170  0.71870  0.03510  Biso   1.000  H
  C37      1.0000 0.41420  0.19390  0.02360  Biso   1.000  C
  C38      1.0000 0.58580  0.80610  0.97640  Biso   1.000  C
  H31      1.0000 0.43480  0.15490  0.10580  Biso   1.000  H
  H32      1.0000 0.56520  0.84510  0.89420  Biso   1.000  H
