data_image0
_cell_length_a       8.167
_cell_length_b       11.094
_cell_length_c       15.863
_cell_angle_alpha    90
_cell_angle_beta     99.703
_cell_angle_gamma    90

_symmetry_space_group_name_H-M    "P 1"
_symmetry_int_tables_number       1

loop_
  _symmetry_equiv_pos_as_xyz
  'x, y, z'

loop_
  _atom_site_label
  _atom_site_occupancy
  _atom_site_fract_x
  _atom_site_fract_y
  _atom_site_fract_z
  _atom_site_thermal_displace_type
  _atom_site_B_iso_or_equiv
  _atom_site_type_symbol
  Cu1      1.0000 0.00000  0.09793  0.25000  Biso   1.000  Cu
  Cu2      1.0000 0.00000  0.90207  0.75000  Biso   1.000  Cu
  O1       1.0000 0.77940  0.09610  0.17920  Biso   1.000  O
  O2       1.0000 0.77940  0.90390  0.67920  Biso   1.000  O
  O3       1.0000 0.22060  0.90390  0.82080  Biso   1.000  O
  O4       1.0000 0.22060  0.09610  0.32080  Biso   1.000  O
  O5       1.0000 0.85360  0.14940  0.05540  Biso   1.000  O
  O6       1.0000 0.85360  0.85060  0.55540  Biso   1.000  O
  O7       1.0000 0.14640  0.85060  0.94460  Biso   1.000  O
  O8       1.0000 0.14640  0.14940  0.44460  Biso   1.000  O
  O9       1.0000 0.63720  0.19750  0.92480  Biso   1.000  O
  O10      1.0000 0.63720  0.80250  0.42480  Biso   1.000  O
  O11      1.0000 0.36280  0.80250  0.07520  Biso   1.000  O
  O12      1.0000 0.36280  0.19750  0.57520  Biso   1.000  O
  O13      1.0000 0.15830  0.09800  0.12190  Biso   1.000  O
  O14      1.0000 0.15830  0.90200  0.62190  Biso   1.000  O
  O15      1.0000 0.84170  0.90200  0.87810  Biso   1.000  O
  O16      1.0000 0.84170  0.09800  0.37810  Biso   1.000  O
  O17      1.0000 0.46100  0.56600  0.15300  Biso   1.000  O
  O18      1.0000 0.46100  0.43400  0.65300  Biso   1.000  O
  O19      1.0000 0.53900  0.43400  0.84700  Biso   1.000  O
  O20      1.0000 0.53900  0.56600  0.34700  Biso   1.000  O
  N1       1.0000 0.00000  0.91780  0.25000  Biso   1.000  N
  N2       1.0000 0.00000  0.08220  0.75000  Biso   1.000  N
  N3       1.0000 0.00000  0.27770  0.25000  Biso   1.000  N
  N4       1.0000 0.00000  0.72230  0.75000  Biso   1.000  N
  C1       1.0000 0.88150  0.85570  0.28030  Biso   1.000  C
  C2       1.0000 0.88150  0.14430  0.78030  Biso   1.000  C
  C3       1.0000 0.11850  0.14430  0.71970  Biso   1.000  C
  C4       1.0000 0.11850  0.85570  0.21970  Biso   1.000  C
  C5       1.0000 0.87770  0.73050  0.28190  Biso   1.000  C
  C6       1.0000 0.87770  0.26950  0.78190  Biso   1.000  C
  C7       1.0000 0.12230  0.26950  0.71810  Biso   1.000  C
  C8       1.0000 0.12230  0.73050  0.21810  Biso   1.000  C
  C9       1.0000 0.00000  0.66510  0.25000  Biso   1.000  C
  C10      1.0000 0.00000  0.33490  0.75000  Biso   1.000  C
  C11      1.0000 0.86060  0.34140  0.25350  Biso   1.000  C
  C12      1.0000 0.86060  0.65860  0.75350  Biso   1.000  C
  C13      1.0000 0.13940  0.65860  0.74650  Biso   1.000  C
  C14      1.0000 0.13940  0.34140  0.24650  Biso   1.000  C
  C15      1.0000 0.85660  0.46570  0.25310  Biso   1.000  C
  C16      1.0000 0.85660  0.53430  0.75310  Biso   1.000  C
  C17      1.0000 0.14340  0.53430  0.74690  Biso   1.000  C
  C18      1.0000 0.14340  0.46570  0.24690  Biso   1.000  C
  C19      1.0000 0.00000  0.53160  0.25000  Biso   1.000  C
  C20      1.0000 0.00000  0.46840  0.75000  Biso   1.000  C
  C21      1.0000 0.74500  0.12670  0.10130  Biso   1.000  C
  C22      1.0000 0.74500  0.87330  0.60130  Biso   1.000  C
  C23      1.0000 0.25500  0.87330  0.89870  Biso   1.000  C
  C24      1.0000 0.25500  0.12670  0.39870  Biso   1.000  C
  C25      1.0000 0.56760  0.13810  0.06220  Biso   1.000  C
  C26      1.0000 0.56760  0.86190  0.56220  Biso   1.000  C
  C27      1.0000 0.43240  0.86190  0.93780  Biso   1.000  C
  C28      1.0000 0.43240  0.13810  0.43780  Biso   1.000  C
  C29      1.0000 0.52270  0.17190  0.97610  Biso   1.000  C
  C30      1.0000 0.52270  0.82810  0.47610  Biso   1.000  C
  C31      1.0000 0.47730  0.82810  0.02390  Biso   1.000  C
  C32      1.0000 0.47730  0.17190  0.52390  Biso   1.000  C
  C33      1.0000 0.35720  0.18100  0.94030  Biso   1.000  C
  C34      1.0000 0.35720  0.81900  0.44030  Biso   1.000  C
  C35      1.0000 0.64280  0.81900  0.05970  Biso   1.000  C
  C36      1.0000 0.64280  0.18100  0.55970  Biso   1.000  C
  C37      1.0000 0.23490  0.15720  0.98770  Biso   1.000  C
  C38      1.0000 0.23490  0.84280  0.48770  Biso   1.000  C
  C39      1.0000 0.76510  0.84280  0.01230  Biso   1.000  C
  C40      1.0000 0.76510  0.15720  0.51230  Biso   1.000  C
  C41      1.0000 0.27710  0.12340  0.07340  Biso   1.000  C
  C42      1.0000 0.27710  0.87660  0.57340  Biso   1.000  C
  C43      1.0000 0.72290  0.87660  0.92660  Biso   1.000  C
  C44      1.0000 0.72290  0.12340  0.42660  Biso   1.000  C
  C45      1.0000 0.44170  0.11500  0.10960  Biso   1.000  C
  C46      1.0000 0.44170  0.88500  0.60960  Biso   1.000  C
  C47      1.0000 0.55830  0.88500  0.89040  Biso   1.000  C
  C48      1.0000 0.55830  0.11500  0.39040  Biso   1.000  C
  H1       1.0000 0.79670  0.89900  0.30140  Biso   1.000  H
  H2       1.0000 0.79670  0.10100  0.80140  Biso   1.000  H
  H3       1.0000 0.20330  0.10100  0.69860  Biso   1.000  H
  H4       1.0000 0.20330  0.89900  0.19860  Biso   1.000  H
  H5       1.0000 0.79260  0.68970  0.30460  Biso   1.000  H
  H6       1.0000 0.79260  0.31030  0.80460  Biso   1.000  H
  H7       1.0000 0.20740  0.31030  0.69540  Biso   1.000  H
  H8       1.0000 0.20740  0.68970  0.19540  Biso   1.000  H
  H9       1.0000 0.76070  0.29870  0.25630  Biso   1.000  H
  H10      1.0000 0.76070  0.70130  0.75630  Biso   1.000  H
  H11      1.0000 0.23930  0.70130  0.74370  Biso   1.000  H
  H12      1.0000 0.23930  0.29870  0.24370  Biso   1.000  H
  H13      1.0000 0.75500  0.50650  0.25490  Biso   1.000  H
  H14      1.0000 0.75500  0.49350  0.75490  Biso   1.000  H
  H15      1.0000 0.24500  0.49350  0.74510  Biso   1.000  H
  H16      1.0000 0.24500  0.50650  0.24510  Biso   1.000  H
  H17      1.0000 0.73710  0.16810  0.95570  Biso   1.000  H
  H18      1.0000 0.73710  0.83190  0.45570  Biso   1.000  H
  H19      1.0000 0.26290  0.83190  0.04430  Biso   1.000  H
  H20      1.0000 0.26290  0.16810  0.54430  Biso   1.000  H
  H21      1.0000 0.32730  0.20410  0.88200  Biso   1.000  H
  H22      1.0000 0.32730  0.79590  0.38200  Biso   1.000  H
  H23      1.0000 0.67270  0.79590  0.11800  Biso   1.000  H
  H24      1.0000 0.67270  0.20410  0.61800  Biso   1.000  H
  H25      1.0000 0.12130  0.16370  0.96210  Biso   1.000  H
  H26      1.0000 0.12130  0.83630  0.46210  Biso   1.000  H
  H27      1.0000 0.87870  0.83630  0.03790  Biso   1.000  H
  H28      1.0000 0.87870  0.16370  0.53790  Biso   1.000  H
  H29      1.0000 0.07100  0.11670  0.09730  Biso   1.000  H
  H30      1.0000 0.07100  0.88330  0.59730  Biso   1.000  H
  H31      1.0000 0.92900  0.88330  0.90270  Biso   1.000  H
  H32      1.0000 0.92900  0.11670  0.40270  Biso   1.000  H
  H33      1.0000 0.47050  0.09300  0.16810  Biso   1.000  H
  H34      1.0000 0.47050  0.90700  0.66810  Biso   1.000  H
  H35      1.0000 0.52950  0.90700  0.83190  Biso   1.000  H
  H36      1.0000 0.52950  0.09300  0.33190  Biso   1.000  H
