data_image0
_cell_length_a       7.5919
_cell_length_b       20.6357
_cell_length_c       19.4418
_cell_angle_alpha    90
_cell_angle_beta     90.315
_cell_angle_gamma    90

_symmetry_space_group_name_H-M    "P 1"
_symmetry_int_tables_number       1

loop_
  _symmetry_equiv_pos_as_xyz
  'x, y, z'

loop_
  _atom_site_label
  _atom_site_occupancy
  _atom_site_fract_x
  _atom_site_fract_y
  _atom_site_fract_z
  _atom_site_thermal_displace_type
  _atom_site_B_iso_or_equiv
  _atom_site_type_symbol
  Cu1      1.0000 0.03711  0.23176  0.42691  Biso   1.000  Cu
  Cu2      1.0000 0.96289  0.73176  0.07309  Biso   1.000  Cu
  Cu3      1.0000 0.96289  0.76824  0.57309  Biso   1.000  Cu
  Cu4      1.0000 0.03711  0.26824  0.92691  Biso   1.000  Cu
  F1       1.0000 0.76940  0.27454  0.21172  Biso   1.000  F
  F2       1.0000 0.23060  0.77454  0.28828  Biso   1.000  F
  F3       1.0000 0.23060  0.72546  0.78828  Biso   1.000  F
  F4       1.0000 0.76940  0.22546  0.71172  Biso   1.000  F
  F5       1.0000 0.79160  0.37776  0.21712  Biso   1.000  F
  F6       1.0000 0.20840  0.87776  0.28288  Biso   1.000  F
  F7       1.0000 0.20840  0.62224  0.78288  Biso   1.000  F
  F8       1.0000 0.79160  0.12224  0.71712  Biso   1.000  F
  F9       1.0000 0.60803  0.32790  0.28139  Biso   1.000  F
  F10      1.0000 0.39197  0.82790  0.21861  Biso   1.000  F
  F11      1.0000 0.39197  0.67210  0.71861  Biso   1.000  F
  F12      1.0000 0.60803  0.17210  0.78139  Biso   1.000  F
  F13      1.0000 0.14130  0.47970  0.40570  Biso   1.000  F
  F14      1.0000 0.85870  0.97970  0.09430  Biso   1.000  F
  F15      1.0000 0.85870  0.52030  0.59430  Biso   1.000  F
  F16      1.0000 0.14130  0.02030  0.90570  Biso   1.000  F
  F17      1.0000 0.36760  0.43210  0.43030  Biso   1.000  F
  F18      1.0000 0.63240  0.93210  0.06970  Biso   1.000  F
  F19      1.0000 0.63240  0.56790  0.56970  Biso   1.000  F
  F20      1.0000 0.36760  0.06790  0.93030  Biso   1.000  F
  F21      1.0000 0.31000  0.45430  0.32890  Biso   1.000  F
  F22      1.0000 0.69000  0.95430  0.17110  Biso   1.000  F
  F23      1.0000 0.69000  0.54570  0.67110  Biso   1.000  F
  F24      1.0000 0.31000  0.04570  0.82890  Biso   1.000  F
  F25      1.0000 0.61250  0.08003  0.52237  Biso   1.000  F
  F26      1.0000 0.38750  0.58003  0.97763  Biso   1.000  F
  F27      1.0000 0.38750  0.91997  0.47763  Biso   1.000  F
  F28      1.0000 0.61250  0.41997  0.02237  Biso   1.000  F
  F29      1.0000 0.76350  0.01998  0.45832  Biso   1.000  F
  F30      1.0000 0.23650  0.51998  0.04168  Biso   1.000  F
  F31      1.0000 0.23650  0.98002  0.54168  Biso   1.000  F
  F32      1.0000 0.76350  0.48002  0.95832  Biso   1.000  F
  F33      1.0000 0.83290  0.01020  0.55550  Biso   1.000  F
  F34      1.0000 0.16710  0.51020  0.94450  Biso   1.000  F
  F35      1.0000 0.16710  0.98980  0.44450  Biso   1.000  F
  F36      1.0000 0.83290  0.48980  0.05550  Biso   1.000  F
  F37      1.0000 0.18200  0.22190  0.67140  Biso   1.000  F
  F38      1.0000 0.81800  0.72190  0.82860  Biso   1.000  F
  F39      1.0000 0.81800  0.77810  0.32860  Biso   1.000  F
  F40      1.0000 0.18200  0.27810  0.17140  Biso   1.000  F
  F41      1.0000 0.40990  0.19970  0.62160  Biso   1.000  F
  F42      1.0000 0.59010  0.69970  0.87840  Biso   1.000  F
  F43      1.0000 0.59010  0.80030  0.37840  Biso   1.000  F
  F44      1.0000 0.40990  0.30030  0.12160  Biso   1.000  F
  F45      1.0000 0.26480  0.12170  0.66420  Biso   1.000  F
  F46      1.0000 0.73520  0.62170  0.83580  Biso   1.000  F
  F47      1.0000 0.73520  0.87830  0.33580  Biso   1.000  F
  F48      1.0000 0.26480  0.37830  0.16420  Biso   1.000  F
  O1       1.0000 0.90861  0.25991  0.33732  Biso   1.000  O
  O2       1.0000 0.09139  0.75991  0.16268  Biso   1.000  O
  O3       1.0000 0.09139  0.74009  0.66268  Biso   1.000  O
  O4       1.0000 0.90861  0.24009  0.83732  Biso   1.000  O
  O5       1.0000 0.18494  0.32384  0.41792  Biso   1.000  O
  O6       1.0000 0.81506  0.82384  0.08208  Biso   1.000  O
  O7       1.0000 0.81506  0.67616  0.58208  Biso   1.000  O
  O8       1.0000 0.18494  0.17616  0.91792  Biso   1.000  O
  O9       1.0000 0.89946  0.13933  0.44933  Biso   1.000  O
  O10      1.0000 0.10054  0.63933  0.05067  Biso   1.000  O
  O11      1.0000 0.10054  0.86067  0.55067  Biso   1.000  O
  O12      1.0000 0.89946  0.36067  0.94933  Biso   1.000  O
  O13      1.0000 0.17638  0.21393  0.51796  Biso   1.000  O
  O14      1.0000 0.82362  0.71393  0.98204  Biso   1.000  O
  O15      1.0000 0.82362  0.78607  0.48204  Biso   1.000  O
  O16      1.0000 0.17638  0.28607  0.01796  Biso   1.000  O
  O17      1.0000 0.07733  0.39533  0.68863  Biso   1.000  O
  O18      1.0000 0.92267  0.89533  0.81137  Biso   1.000  O
  O19      1.0000 0.92267  0.60467  0.31137  Biso   1.000  O
  O20      1.0000 0.07733  0.10467  0.18863  Biso   1.000  O
  N1       1.0000 0.85278  0.27828  0.48123  Biso   1.000  N
  N2       1.0000 0.14722  0.77828  0.01877  Biso   1.000  N
  N3       1.0000 0.14722  0.72172  0.51877  Biso   1.000  N
  N4       1.0000 0.85278  0.22172  0.98123  Biso   1.000  N
  N5       1.0000 0.22629  0.31361  0.87366  Biso   1.000  N
  N6       1.0000 0.77371  0.81361  0.62634  Biso   1.000  N
  N7       1.0000 0.77371  0.68639  0.12634  Biso   1.000  N
  N8       1.0000 0.22629  0.18639  0.37366  Biso   1.000  N
  C1       1.0000 0.68120  0.26792  0.46865  Biso   1.000  C
  C2       1.0000 0.31880  0.76792  0.03135  Biso   1.000  C
  C3       1.0000 0.31880  0.73208  0.53135  Biso   1.000  C
  C4       1.0000 0.68120  0.23208  0.96865  Biso   1.000  C
  H1       1.0000 0.64950  0.23800  0.43350  Biso   1.000  H
  H2       1.0000 0.35050  0.73800  0.06650  Biso   1.000  H
  H3       1.0000 0.35050  0.76200  0.56650  Biso   1.000  H
  H4       1.0000 0.64950  0.26200  0.93350  Biso   1.000  H
  C5       1.0000 0.54960  0.29842  0.50410  Biso   1.000  C
  C6       1.0000 0.45040  0.79842  0.99590  Biso   1.000  C
  C7       1.0000 0.45040  0.70158  0.49590  Biso   1.000  C
  C8       1.0000 0.54960  0.20158  0.00410  Biso   1.000  C
  H5       1.0000 0.42960  0.28960  0.49370  Biso   1.000  H
  H6       1.0000 0.57040  0.78960  0.00630  Biso   1.000  H
  H7       1.0000 0.57040  0.71040  0.50630  Biso   1.000  H
  H8       1.0000 0.42960  0.21040  0.99370  Biso   1.000  H
  C9       1.0000 0.59390  0.34233  0.55549  Biso   1.000  C
  C10      1.0000 0.40610  0.84233  0.94451  Biso   1.000  C
  C11      1.0000 0.40610  0.65767  0.44451  Biso   1.000  C
  C12      1.0000 0.59390  0.15767  0.05549  Biso   1.000  C
  C13      1.0000 0.77190  0.35397  0.56799  Biso   1.000  C
  C14      1.0000 0.22810  0.85397  0.93201  Biso   1.000  C
  C15      1.0000 0.22810  0.64603  0.43201  Biso   1.000  C
  C16      1.0000 0.77190  0.14603  0.06799  Biso   1.000  C
  H9       1.0000 0.80760  0.38430  0.60210  Biso   1.000  H
  H10      1.0000 0.19240  0.88430  0.89790  Biso   1.000  H
  H11      1.0000 0.19240  0.61570  0.39790  Biso   1.000  H
  H12      1.0000 0.80760  0.11570  0.10210  Biso   1.000  H
  C17      1.0000 0.89520  0.32095  0.53022  Biso   1.000  C
  C18      1.0000 0.10480  0.82095  0.96978  Biso   1.000  C
  C19      1.0000 0.10480  0.67905  0.46978  Biso   1.000  C
  C20      1.0000 0.89520  0.17905  0.03022  Biso   1.000  C
  H13      1.0000 0.01630  0.32880  0.53940  Biso   1.000  H
  H14      1.0000 0.98370  0.82880  0.96060  Biso   1.000  H
  H15      1.0000 0.98370  0.67120  0.46060  Biso   1.000  H
  H16      1.0000 0.01630  0.17120  0.03940  Biso   1.000  H
  C21      1.0000 0.46180  0.37380  0.59565  Biso   1.000  C
  C22      1.0000 0.53820  0.87380  0.90435  Biso   1.000  C
  C23      1.0000 0.53820  0.62620  0.40435  Biso   1.000  C
  C24      1.0000 0.46180  0.12620  0.09565  Biso   1.000  C
  C25      1.0000 0.35550  0.39798  0.63279  Biso   1.000  C
  C26      1.0000 0.64450  0.89798  0.86721  Biso   1.000  C
  C27      1.0000 0.64450  0.60202  0.36721  Biso   1.000  C
  C28      1.0000 0.35550  0.10202  0.13279  Biso   1.000  C
  C29      1.0000 0.23780  0.42535  0.68081  Biso   1.000  C
  C30      1.0000 0.76220  0.92535  0.81919  Biso   1.000  C
  C31      1.0000 0.76220  0.57465  0.31919  Biso   1.000  C
  C32      1.0000 0.23780  0.07465  0.18081  Biso   1.000  C
  C33      1.0000 0.25570  0.47423  0.72652  Biso   1.000  C
  C34      1.0000 0.74430  0.97423  0.77348  Biso   1.000  C
  C35      1.0000 0.74430  0.52577  0.27348  Biso   1.000  C
  C36      1.0000 0.25570  0.02577  0.22652  Biso   1.000  C
  H17      1.0000 0.35360  0.50260  0.73120  Biso   1.000  H
  H18      1.0000 0.64640  0.00260  0.76880  Biso   1.000  H
  H19      1.0000 0.64640  0.49740  0.26880  Biso   1.000  H
  H20      1.0000 0.35360  0.99740  0.23120  Biso   1.000  H
  C37      1.0000 0.10020  0.47495  0.76608  Biso   1.000  C
  C38      1.0000 0.89980  0.97495  0.73392  Biso   1.000  C
  C39      1.0000 0.89980  0.52505  0.23392  Biso   1.000  C
  C40      1.0000 0.10020  0.02505  0.26608  Biso   1.000  C
  H21      1.0000 0.07400  0.50380  0.80270  Biso   1.000  H
  H22      1.0000 0.92600  0.00380  0.69730  Biso   1.000  H
  H23      1.0000 0.92600  0.49620  0.19730  Biso   1.000  H
  H24      1.0000 0.07400  0.99620  0.30270  Biso   1.000  H
  C41      1.0000 0.99580  0.42698  0.74200  Biso   1.000  C
  C42      1.0000 0.00420  0.92698  0.75800  Biso   1.000  C
  C43      1.0000 0.00420  0.57302  0.25800  Biso   1.000  C
  C44      1.0000 0.99580  0.07302  0.24200  Biso   1.000  C
  C45      1.0000 0.82780  0.40489  0.76176  Biso   1.000  C
  C46      1.0000 0.17220  0.90489  0.73824  Biso   1.000  C
  C47      1.0000 0.17220  0.59511  0.23824  Biso   1.000  C
  C48      1.0000 0.82780  0.09511  0.26176  Biso   1.000  C
  C49      1.0000 0.68700  0.38750  0.78190  Biso   1.000  C
  C50      1.0000 0.31300  0.88750  0.71810  Biso   1.000  C
  C51      1.0000 0.31300  0.61250  0.21810  Biso   1.000  C
  C52      1.0000 0.68700  0.11250  0.28190  Biso   1.000  C
  C53      1.0000 0.52630  0.36399  0.81075  Biso   1.000  C
  C54      1.0000 0.47370  0.86399  0.68925  Biso   1.000  C
  C55      1.0000 0.47370  0.63601  0.18925  Biso   1.000  C
  C56      1.0000 0.52630  0.13601  0.31075  Biso   1.000  C
  C57      1.0000 0.45520  0.39288  0.86924  Biso   1.000  C
  C58      1.0000 0.54480  0.89288  0.63076  Biso   1.000  C
  C59      1.0000 0.54480  0.60712  0.13076  Biso   1.000  C
  C60      1.0000 0.45520  0.10712  0.36924  Biso   1.000  C
  H25      1.0000 0.50800  0.43050  0.88850  Biso   1.000  H
  H26      1.0000 0.49200  0.93050  0.61150  Biso   1.000  H
  H27      1.0000 0.49200  0.56950  0.11150  Biso   1.000  H
  H28      1.0000 0.50800  0.06950  0.38850  Biso   1.000  H
  C61      1.0000 0.30780  0.36618  0.89863  Biso   1.000  C
  C62      1.0000 0.69220  0.86618  0.60137  Biso   1.000  C
  C63      1.0000 0.69220  0.63382  0.10137  Biso   1.000  C
  C64      1.0000 0.30780  0.13382  0.39863  Biso   1.000  C
  H29      1.0000 0.26140  0.38610  0.93870  Biso   1.000  H
  H30      1.0000 0.73860  0.88610  0.56130  Biso   1.000  H
  H31      1.0000 0.73860  0.61390  0.06130  Biso   1.000  H
  H32      1.0000 0.26140  0.11390  0.43870  Biso   1.000  H
  C65      1.0000 0.29080  0.28778  0.81569  Biso   1.000  C
  C66      1.0000 0.70920  0.78778  0.68431  Biso   1.000  C
  C67      1.0000 0.70920  0.71222  0.18431  Biso   1.000  C
  C68      1.0000 0.29080  0.21222  0.31569  Biso   1.000  C
  H33      1.0000 0.23210  0.25150  0.79620  Biso   1.000  H
  H34      1.0000 0.76790  0.75150  0.70380  Biso   1.000  H
  H35      1.0000 0.76790  0.74850  0.20380  Biso   1.000  H
  H36      1.0000 0.23210  0.24850  0.29620  Biso   1.000  H
  C69      1.0000 0.43800  0.31138  0.78316  Biso   1.000  C
  C70      1.0000 0.56200  0.81138  0.71684  Biso   1.000  C
  C71      1.0000 0.56200  0.68862  0.21684  Biso   1.000  C
  C72      1.0000 0.43800  0.18862  0.28316  Biso   1.000  C
  H37      1.0000 0.47860  0.29170  0.74200  Biso   1.000  H
  H38      1.0000 0.52140  0.79170  0.75800  Biso   1.000  H
  H39      1.0000 0.52140  0.70830  0.25800  Biso   1.000  H
  H40      1.0000 0.47860  0.20830  0.24200  Biso   1.000  H
  C73      1.0000 0.90640  0.31592  0.31244  Biso   1.000  C
  C74      1.0000 0.09360  0.81592  0.18756  Biso   1.000  C
  C75      1.0000 0.09360  0.68408  0.68756  Biso   1.000  C
  C76      1.0000 0.90640  0.18408  0.81244  Biso   1.000  C
  C77      1.0000 0.00700  0.36944  0.32983  Biso   1.000  C
  C78      1.0000 0.99300  0.86944  0.17017  Biso   1.000  C
  C79      1.0000 0.99300  0.63056  0.67017  Biso   1.000  C
  C80      1.0000 0.00700  0.13056  0.82983  Biso   1.000  C
  H41      1.0000 0.98570  0.40870  0.30570  Biso   1.000  H
  H42      1.0000 0.01430  0.90870  0.19430  Biso   1.000  H
  H43      1.0000 0.01430  0.59130  0.69430  Biso   1.000  H
  H44      1.0000 0.98570  0.09130  0.80570  Biso   1.000  H
  C81      1.0000 0.13780  0.36932  0.38056  Biso   1.000  C
  C82      1.0000 0.86220  0.86932  0.11944  Biso   1.000  C
  C83      1.0000 0.86220  0.63068  0.61944  Biso   1.000  C
  C84      1.0000 0.13780  0.13068  0.88056  Biso   1.000  C
  C85      1.0000 0.76910  0.32415  0.25505  Biso   1.000  C
  C86      1.0000 0.23090  0.82415  0.24495  Biso   1.000  C
  C87      1.0000 0.23090  0.67585  0.74495  Biso   1.000  C
  C88      1.0000 0.76910  0.17585  0.75505  Biso   1.000  C
  C89      1.0000 0.23930  0.43240  0.39180  Biso   1.000  C
  C90      1.0000 0.76070  0.93240  0.10820  Biso   1.000  C
  C91      1.0000 0.76070  0.56760  0.60820  Biso   1.000  C
  C92      1.0000 0.23930  0.06760  0.89180  Biso   1.000  C
  C93      1.0000 0.90700  0.11187  0.50607  Biso   1.000  C
  C94      1.0000 0.09300  0.61187  0.99393  Biso   1.000  C
  C95      1.0000 0.09300  0.88813  0.49393  Biso   1.000  C
  C96      1.0000 0.90700  0.38813  0.00607  Biso   1.000  C
  C97      1.0000 0.01670  0.12429  0.56206  Biso   1.000  C
  C98      1.0000 0.98330  0.62429  0.93794  Biso   1.000  C
  C99      1.0000 0.98330  0.87571  0.43794  Biso   1.000  C
  C100     1.0000 0.01670  0.37571  0.06206  Biso   1.000  C
  H45      1.0000 0.00610  0.09740  0.60150  Biso   1.000  H
  H46      1.0000 0.99390  0.59740  0.89850  Biso   1.000  H
  H47      1.0000 0.99390  0.90260  0.39850  Biso   1.000  H
  H48      1.0000 0.00610  0.40260  0.10150  Biso   1.000  H
  C101     1.0000 0.14040  0.17350  0.56376  Biso   1.000  C
  C102     1.0000 0.85960  0.67350  0.93624  Biso   1.000  C
  C103     1.0000 0.85960  0.82650  0.43624  Biso   1.000  C
  C104     1.0000 0.14040  0.32650  0.06376  Biso   1.000  C
  C105     1.0000 0.77380  0.05643  0.51402  Biso   1.000  C
  C106     1.0000 0.22620  0.55643  0.98598  Biso   1.000  C
  C107     1.0000 0.22620  0.94357  0.48598  Biso   1.000  C
  C108     1.0000 0.77380  0.44357  0.01402  Biso   1.000  C
  C109     1.0000 0.25010  0.18127  0.62921  Biso   1.000  C
  C110     1.0000 0.74990  0.68127  0.87079  Biso   1.000  C
  C111     1.0000 0.74990  0.81873  0.37079  Biso   1.000  C
  C112     1.0000 0.25010  0.31873  0.12921  Biso   1.000  C
  F49      1.0000 0.17650  0.48120  0.36710  Biso   1.000  F
  F50      1.0000 0.82350  0.98120  0.13290  Biso   1.000  F
  F51      1.0000 0.82350  0.51880  0.63290  Biso   1.000  F
  F52      1.0000 0.17650  0.01880  0.86710  Biso   1.000  F
  F53      1.0000 0.23000  0.44380  0.46120  Biso   1.000  F
  F54      1.0000 0.77000  0.94380  0.03880  Biso   1.000  F
  F55      1.0000 0.77000  0.55620  0.53880  Biso   1.000  F
  F56      1.0000 0.23000  0.05620  0.96120  Biso   1.000  F
  F57      1.0000 0.40450  0.42110  0.38370  Biso   1.000  F
  F58      1.0000 0.59550  0.92110  0.11630  Biso   1.000  F
  F59      1.0000 0.59550  0.57890  0.61630  Biso   1.000  F
  F60      1.0000 0.40450  0.07890  0.88370  Biso   1.000  F
  F61      1.0000 0.77780  0.02730  0.57800  Biso   1.000  F
  F62      1.0000 0.22220  0.52730  0.92200  Biso   1.000  F
  F63      1.0000 0.22220  0.97270  0.42200  Biso   1.000  F
  F64      1.0000 0.77780  0.47270  0.07800  Biso   1.000  F
  F65      1.0000 0.22700  0.24160  0.65200  Biso   1.000  F
  F66      1.0000 0.77300  0.74160  0.84800  Biso   1.000  F
  F67      1.0000 0.77300  0.75840  0.34800  Biso   1.000  F
  F68      1.0000 0.22700  0.25840  0.15200  Biso   1.000  F
  F69      1.0000 0.41510  0.17440  0.61320  Biso   1.000  F
  F70      1.0000 0.58490  0.67440  0.88680  Biso   1.000  F
  F71      1.0000 0.58490  0.82560  0.38680  Biso   1.000  F
  F72      1.0000 0.41510  0.32560  0.11320  Biso   1.000  F
  F73      1.0000 0.20790  0.14720  0.67930  Biso   1.000  F
  F74      1.0000 0.79210  0.64720  0.82070  Biso   1.000  F
  F75      1.0000 0.79210  0.85280  0.32070  Biso   1.000  F
  F76      1.0000 0.20790  0.35280  0.17930  Biso   1.000  F
