data_image0
_cell_length_a       11.426
_cell_length_b       12.307
_cell_length_c       7.775
_cell_angle_alpha    83.06
_cell_angle_beta     76.9
_cell_angle_gamma    74.89

_symmetry_space_group_name_H-M    "P 1"
_symmetry_int_tables_number       1

loop_
  _symmetry_equiv_pos_as_xyz
  'x, y, z'

loop_
  _atom_site_label
  _atom_site_occupancy
  _atom_site_fract_x
  _atom_site_fract_y
  _atom_site_fract_z
  _atom_site_thermal_displace_type
  _atom_site_B_iso_or_equiv
  _atom_site_type_symbol
  Cu1      1.0000 0.11090  0.24117  0.19172  Biso   1.000  Cu
  Cu2      1.0000 0.88910  0.75883  0.80828  Biso   1.000  Cu
  N1       1.0000 0.94340  0.34290  0.16500  Biso   1.000  N
  N2       1.0000 0.05660  0.65710  0.83500  Biso   1.000  N
  N3       1.0000 0.12760  0.38260  0.25750  Biso   1.000  N
  N4       1.0000 0.87240  0.61740  0.74250  Biso   1.000  N
  N5       1.0000 0.28870  0.19420  0.22590  Biso   1.000  N
  N6       1.0000 0.71130  0.80580  0.77410  Biso   1.000  N
  O1       1.0000 0.02760  0.18520  0.46800  Biso   1.000  O
  O2       1.0000 0.97240  0.81480  0.53200  Biso   1.000  O
  O3       1.0000 0.10720  0.10820  0.08740  Biso   1.000  O
  O4       1.0000 0.89280  0.89180  0.91260  Biso   1.000  O
  C1       1.0000 0.84970  0.31280  0.12310  Biso   1.000  C
  C2       1.0000 0.15030  0.68720  0.87690  Biso   1.000  C
  C3       1.0000 0.73770  0.38760  0.11490  Biso   1.000  C
  C4       1.0000 0.26230  0.61240  0.88510  Biso   1.000  C
  C5       1.0000 0.72250  0.49710  0.14910  Biso   1.000  C
  C6       1.0000 0.27750  0.50290  0.85090  Biso   1.000  C
  C7       1.0000 0.81790  0.53040  0.19230  Biso   1.000  C
  C8       1.0000 0.18210  0.46960  0.80770  Biso   1.000  C
  C9       1.0000 0.92710  0.45080  0.20120  Biso   1.000  C
  C10      1.0000 0.07290  0.54920  0.79880  Biso   1.000  C
  C11      1.0000 0.03490  0.47380  0.25350  Biso   1.000  C
  C12      1.0000 0.96510  0.52620  0.74650  Biso   1.000  C
  C13      1.0000 0.04490  0.57570  0.29930  Biso   1.000  C
  C14      1.0000 0.95510  0.42430  0.70070  Biso   1.000  C
  C15      1.0000 0.15260  0.57900  0.34750  Biso   1.000  C
  C16      1.0000 0.84740  0.42100  0.65250  Biso   1.000  C
  C17      1.0000 0.24850  0.48350  0.34940  Biso   1.000  C
  C18      1.0000 0.75150  0.51650  0.65060  Biso   1.000  C
  C19      1.0000 0.23260  0.38440  0.30200  Biso   1.000  C
  C20      1.0000 0.76740  0.61560  0.69800  Biso   1.000  C
  C21      1.0000 0.32340  0.27310  0.29420  Biso   1.000  C
  C22      1.0000 0.67660  0.72690  0.70580  Biso   1.000  C
  C23      1.0000 0.43250  0.25090  0.35340  Biso   1.000  C
  C24      1.0000 0.56750  0.74910  0.64660  Biso   1.000  C
  C25      1.0000 0.50930  0.14230  0.34140  Biso   1.000  C
  C26      1.0000 0.49070  0.85770  0.65860  Biso   1.000  C
  C27      1.0000 0.47560  0.06320  0.26690  Biso   1.000  C
  C28      1.0000 0.52440  0.93680  0.73310  Biso   1.000  C
  C29      1.0000 0.36480  0.09110  0.21200  Biso   1.000  C
  C30      1.0000 0.63520  0.90890  0.78800  Biso   1.000  C
  C31      1.0000 0.13990  0.11920  0.91900  Biso   1.000  C
  C32      1.0000 0.86010  0.88080  0.08100  Biso   1.000  C
  O5       1.0000 0.15810  0.20690  0.83880  Biso   1.000  O
  O6       1.0000 0.84190  0.79310  0.16120  Biso   1.000  O
  C33      1.0000 0.15620  0.01440  0.82290  Biso   1.000  C
  C34      1.0000 0.84380  0.98560  0.17710  Biso   1.000  C
  C35      1.0000 0.15350  0.04000  0.62830  Biso   1.000  C
  C36      1.0000 0.84650  0.96000  0.37170  Biso   1.000  C
  C37      1.0000 0.03180  0.11240  0.59040  Biso   1.000  C
  C38      1.0000 0.96820  0.88760  0.40960  Biso   1.000  C
  N7       1.0000 0.92920  0.09490  0.69510  Biso   1.000  N
  N8       1.0000 0.07080  0.90510  0.30490  Biso   1.000  N
  H1       1.0000 0.87200  0.24500  0.08800  Biso   1.000  H
  H2       1.0000 0.12800  0.75500  0.91200  Biso   1.000  H
  H3       1.0000 0.67700  0.36400  0.08200  Biso   1.000  H
  H4       1.0000 0.32300  0.63600  0.91800  Biso   1.000  H
  H5       1.0000 0.64700  0.54500  0.13900  Biso   1.000  H
  H6       1.0000 0.35300  0.45500  0.86100  Biso   1.000  H
  H7       1.0000 0.81000  0.59600  0.20800  Biso   1.000  H
  H8       1.0000 0.19000  0.40400  0.79200  Biso   1.000  H
  H9       1.0000 0.98100  0.63300  0.30000  Biso   1.000  H
  H10      1.0000 0.01900  0.36700  0.70000  Biso   1.000  H
  H11      1.0000 0.15900  0.64700  0.38600  Biso   1.000  H
  H12      1.0000 0.84100  0.35300  0.61400  Biso   1.000  H
  H13      1.0000 0.32100  0.48700  0.39400  Biso   1.000  H
  H14      1.0000 0.67900  0.51300  0.60600  Biso   1.000  H
  H15      1.0000 0.45400  0.29800  0.40900  Biso   1.000  H
  H16      1.0000 0.54600  0.70200  0.59100  Biso   1.000  H
  H17      1.0000 0.59300  0.12600  0.38400  Biso   1.000  H
  H18      1.0000 0.40700  0.87400  0.61600  Biso   1.000  H
  H19      1.0000 0.52300  0.99900  0.25000  Biso   1.000  H
  H20      1.0000 0.47700  0.00100  0.75000  Biso   1.000  H
  H21      1.0000 0.34100  0.04100  0.16200  Biso   1.000  H
  H22      1.0000 0.65900  0.95900  0.83800  Biso   1.000  H
  H23      1.0000 0.22800  0.97100  0.83500  Biso   1.000  H
  H24      1.0000 0.77200  0.02900  0.16500  Biso   1.000  H
  H25      1.0000 0.09700  0.97200  0.88600  Biso   1.000  H
  H26      1.0000 0.90300  0.02800  0.11400  Biso   1.000  H
  H27      1.0000 0.22100  0.07600  0.57200  Biso   1.000  H
  H28      1.0000 0.77900  0.92400  0.42800  Biso   1.000  H
  H29      1.0000 0.16700  0.98400  0.58600  Biso   1.000  H
  H30      1.0000 0.83300  0.01600  0.41400  Biso   1.000  H
  H31      1.0000 0.85800  0.13000  0.68200  Biso   1.000  H
  H32      1.0000 0.14200  0.87000  0.31800  Biso   1.000  H
  H33      1.0000 0.92600  0.04300  0.77700  Biso   1.000  H
  H34      1.0000 0.07400  0.95700  0.22300  Biso   1.000  H
  Cl1      1.0000 0.41143  0.75435  0.22530  Biso   1.000  Cl
  Cl2      1.0000 0.58857  0.24565  0.77470  Biso   1.000  Cl
  O7       1.0000 0.33190  0.78680  0.38390  Biso   1.000  O
  O8       1.0000 0.66810  0.21320  0.61610  Biso   1.000  O
  O9       1.0000 0.52530  0.78190  0.21080  Biso   1.000  O
  O10      1.0000 0.47470  0.21810  0.78920  Biso   1.000  O
  O11      1.0000 0.34300  0.82040  0.09400  Biso   1.000  O
  O12      1.0000 0.65700  0.17960  0.90600  Biso   1.000  O
  O13      1.0000 0.43130  0.64470  0.18980  Biso   1.000  O
  O14      1.0000 0.56870  0.35530  0.81020  Biso   1.000  O
