data_image0
_cell_length_a       8.9956
_cell_length_b       9.5204
_cell_length_c       17.1222
_cell_angle_alpha    95.144
_cell_angle_beta     97.317
_cell_angle_gamma    97.73

_symmetry_space_group_name_H-M    "P 1"
_symmetry_int_tables_number       1

loop_
  _symmetry_equiv_pos_as_xyz
  'x, y, z'

loop_
  _atom_site_label
  _atom_site_occupancy
  _atom_site_fract_x
  _atom_site_fract_y
  _atom_site_fract_z
  _atom_site_thermal_displace_type
  _atom_site_B_iso_or_equiv
  _atom_site_type_symbol
  Cu1      1.0000 0.50000  0.00000  0.50000  Biso   1.000  Cu
  Cl1      1.0000 0.64510  0.86870  0.57924  Biso   1.000  Cl
  Cl2      1.0000 0.35490  0.13130  0.42076  Biso   1.000  Cl
  N1       1.0000 0.65770  0.00970  0.42430  Biso   1.000  N
  N2       1.0000 0.34230  0.99030  0.57570  Biso   1.000  N
  C1       1.0000 0.61840  0.96300  0.34760  Biso   1.000  C
  C2       1.0000 0.38160  0.03700  0.65240  Biso   1.000  C
  H1       1.0000 0.51690  0.93000  0.32880  Biso   1.000  H
  H2       1.0000 0.48310  0.07000  0.67120  Biso   1.000  H
  C3       1.0000 0.72190  0.96170  0.29530  Biso   1.000  C
  C4       1.0000 0.27810  0.03830  0.70470  Biso   1.000  C
  C5       1.0000 0.87210  0.01280  0.32200  Biso   1.000  C
  C6       1.0000 0.12790  0.98720  0.67800  Biso   1.000  C
  H3       1.0000 0.94430  0.01420  0.28760  Biso   1.000  H
  H4       1.0000 0.05570  0.98580  0.71240  Biso   1.000  H
  C7       1.0000 0.91220  0.06180  0.40090  Biso   1.000  C
  C8       1.0000 0.08780  0.93820  0.59910  Biso   1.000  C
  H5       1.0000 0.01250  0.09790  0.42080  Biso   1.000  H
  H6       1.0000 0.98750  0.90210  0.57920  Biso   1.000  H
  C9       1.0000 0.80280  0.05700  0.44990  Biso   1.000  C
  C10      1.0000 0.19720  0.94300  0.55010  Biso   1.000  C
  H7       1.0000 0.83160  0.08830  0.50340  Biso   1.000  H
  H8       1.0000 0.16840  0.91170  0.49660  Biso   1.000  H
  O1       1.0000 0.67280  0.91490  0.21710  Biso   1.000  O
  O2       1.0000 0.32720  0.08510  0.78290  Biso   1.000  O
  Si1      1.0000 0.67260  0.76570  0.16294  Biso   1.000  Si
  Si2      1.0000 0.32740  0.23430  0.83706  Biso   1.000  Si
  O3       1.0000 0.75340  0.65570  0.21330  Biso   1.000  O
  O4       1.0000 0.24660  0.34430  0.78670  Biso   1.000  O
  Si3      1.0000 0.85610  0.55300  0.25769  Biso   1.000  Si
  Si4      1.0000 0.14390  0.44700  0.74231  Biso   1.000  Si
  O5       1.0000 0.02790  0.64540  0.26890  Biso   1.000  O
  O6       1.0000 0.97210  0.35460  0.73110  Biso   1.000  O
  C11      1.0000 0.15340  0.63610  0.32120  Biso   1.000  C
  C12      1.0000 0.84660  0.36390  0.67880  Biso   1.000  C
  C13      1.0000 0.23320  0.76050  0.36150  Biso   1.000  C
  C14      1.0000 0.76680  0.23950  0.63850  Biso   1.000  C
  H9       1.0000 0.19960  0.84610  0.35110  Biso   1.000  H
  H10      1.0000 0.80040  0.15390  0.64890  Biso   1.000  H
  N3       1.0000 0.35590  0.76480  0.41440  Biso   1.000  N
  N4       1.0000 0.64410  0.23520  0.58560  Biso   1.000  N
  C15      1.0000 0.40430  0.64280  0.42750  Biso   1.000  C
  C16      1.0000 0.59570  0.35720  0.57250  Biso   1.000  C
  H11      1.0000 0.48970  0.64440  0.46460  Biso   1.000  H
  H12      1.0000 0.51030  0.35560  0.53540  Biso   1.000  H
  C17      1.0000 0.33470  0.51490  0.38900  Biso   1.000  C
  C18      1.0000 0.66530  0.48510  0.61100  Biso   1.000  C
  H13      1.0000 0.37460  0.43190  0.39880  Biso   1.000  H
  H14      1.0000 0.62540  0.56810  0.60120  Biso   1.000  H
  C19      1.0000 0.20430  0.50850  0.33530  Biso   1.000  C
  C20      1.0000 0.79570  0.49150  0.66470  Biso   1.000  C
  H15      1.0000 0.15310  0.42200  0.30980  Biso   1.000  H
  H16      1.0000 0.84690  0.57800  0.69020  Biso   1.000  H
  C21      1.0000 0.48280  0.68670  0.11110  Biso   1.000  C
  C22      1.0000 0.51720  0.31330  0.88890  Biso   1.000  C
  H17      1.0000 0.49490  0.60810  0.07250  Biso   1.000  H
  H18      1.0000 0.50510  0.39190  0.92750  Biso   1.000  H
  C23      1.0000 0.39030  0.62490  0.17250  Biso   1.000  C
  C24      1.0000 0.60970  0.37510  0.82750  Biso   1.000  C
  H19      1.0000 0.44360  0.55820  0.19920  Biso   1.000  H
  H20      1.0000 0.55640  0.44180  0.80080  Biso   1.000  H
  H21      1.0000 0.29360  0.57720  0.14640  Biso   1.000  H
  H22      1.0000 0.70640  0.42280  0.85360  Biso   1.000  H
  H23      1.0000 0.37560  0.70070  0.21030  Biso   1.000  H
  H24      1.0000 0.62440  0.29930  0.78970  Biso   1.000  H
  C25      1.0000 0.40250  0.79340  0.06700  Biso   1.000  C
  C26      1.0000 0.59750  0.20660  0.93300  Biso   1.000  C
  H25      1.0000 0.46310  0.83010  0.02900  Biso   1.000  H
  H26      1.0000 0.53690  0.16990  0.97100  Biso   1.000  H
  H27      1.0000 0.38790  0.87050  0.10400  Biso   1.000  H
  H28      1.0000 0.61210  0.12950  0.89600  Biso   1.000  H
  H29      1.0000 0.30590  0.74690  0.04010  Biso   1.000  H
  H30      1.0000 0.69410  0.25310  0.95990  Biso   1.000  H
  C27      1.0000 0.46790  0.69370  0.16480  Biso   1.000  C
  C28      1.0000 0.53210  0.30630  0.83520  Biso   1.000  C
  H31      1.0000 0.46200  0.66980  0.21890  Biso   1.000  H
  H32      1.0000 0.53800  0.33020  0.78110  Biso   1.000  H
  C29      1.0000 0.41650  0.55330  0.11120  Biso   1.000  C
  C30      1.0000 0.58350  0.44670  0.88880  Biso   1.000  C
  H33      1.0000 0.48860  0.48920  0.12150  Biso   1.000  H
  H34      1.0000 0.51140  0.51080  0.87850  Biso   1.000  H
  H35      1.0000 0.40950  0.57170  0.05680  Biso   1.000  H
  H36      1.0000 0.59050  0.42830  0.94320  Biso   1.000  H
  H37      1.0000 0.31900  0.51110  0.12190  Biso   1.000  H
  H38      1.0000 0.68100  0.48890  0.87810  Biso   1.000  H
  C31      1.0000 0.35580  0.79790  0.15000  Biso   1.000  C
  C32      1.0000 0.64420  0.20210  0.85000  Biso   1.000  C
  H39      1.0000 0.39010  0.88500  0.18410  Biso   1.000  H
  H40      1.0000 0.60990  0.11500  0.81590  Biso   1.000  H
  H41      1.0000 0.25810  0.75690  0.16080  Biso   1.000  H
  H42      1.0000 0.74190  0.24310  0.83920  Biso   1.000  H
  H43      1.0000 0.34850  0.81760  0.09570  Biso   1.000  H
  H44      1.0000 0.65150  0.18240  0.90430  Biso   1.000  H
  C33      1.0000 0.76520  0.80590  0.07610  Biso   1.000  C
  C34      1.0000 0.23480  0.19410  0.92390  Biso   1.000  C
  H45      1.0000 0.75480  0.71440  0.04320  Biso   1.000  H
  H46      1.0000 0.24520  0.28560  0.95680  Biso   1.000  H
  C35      1.0000 0.93290  0.85010  0.09960  Biso   1.000  C
  C36      1.0000 0.06710  0.14990  0.90040  Biso   1.000  C
  H47      1.0000 0.97270  0.78260  0.13190  Biso   1.000  H
  H48      1.0000 0.02730  0.21740  0.86810  Biso   1.000  H
  H49      1.0000 0.95140  0.94290  0.12900  Biso   1.000  H
  H50      1.0000 0.04860  0.05710  0.87100  Biso   1.000  H
  H51      1.0000 0.98160  0.85290  0.05290  Biso   1.000  H
  H52      1.0000 0.01840  0.14710  0.94710  Biso   1.000  H
  C37      1.0000 0.68410  0.90210  0.02440  Biso   1.000  C
  C38      1.0000 0.31590  0.09790  0.97560  Biso   1.000  C
  H53      1.0000 0.57830  0.86450  0.01290  Biso   1.000  H
  H54      1.0000 0.42170  0.13550  0.98710  Biso   1.000  H
  H55      1.0000 0.72660  0.90620  0.97590  Biso   1.000  H
  H56      1.0000 0.27340  0.09380  0.02410  Biso   1.000  H
  H57      1.0000 0.69630  0.99620  0.05200  Biso   1.000  H
  H58      1.0000 0.30370  0.00380  0.94800  Biso   1.000  H
  C39      1.0000 0.75500  0.82860  0.07590  Biso   1.000  C
  C40      1.0000 0.24500  0.17140  0.92410  Biso   1.000  C
  H59      1.0000 0.67000  0.85200  0.04000  Biso   1.000  H
  H60      1.0000 0.33000  0.14800  0.96000  Biso   1.000  H
  C41      1.0000 0.82270  0.71610  0.02840  Biso   1.000  C
  C42      1.0000 0.17730  0.28390  0.97160  Biso   1.000  C
  H61      1.0000 0.75110  0.63010  0.01700  Biso   1.000  H
  H62      1.0000 0.24890  0.36990  0.98300  Biso   1.000  H
  H63      1.0000 0.91380  0.69700  0.05860  Biso   1.000  H
  H64      1.0000 0.08620  0.30300  0.94140  Biso   1.000  H
  H65      1.0000 0.84580  0.75050  0.97960  Biso   1.000  H
  H66      1.0000 0.15420  0.24950  0.02040  Biso   1.000  H
  C43      1.0000 0.86970  0.96520  0.09370  Biso   1.000  C
  C44      1.0000 0.13030  0.03480  0.90630  Biso   1.000  C
  H67      1.0000 0.82760  0.03640  0.12360  Biso   1.000  H
  H68      1.0000 0.17240  0.96360  0.87640  Biso   1.000  H
  H69      1.0000 0.89270  0.99920  0.04490  Biso   1.000  H
  H70      1.0000 0.10730  0.00080  0.95510  Biso   1.000  H
  H71      1.0000 0.96070  0.94570  0.12380  Biso   1.000  H
  H72      1.0000 0.03930  0.05430  0.87620  Biso   1.000  H
  C45      1.0000 0.84890  0.38270  0.19410  Biso   1.000  C
  C46      1.0000 0.15110  0.61730  0.80590  Biso   1.000  C
  H73      1.0000 0.90440  0.32010  0.22540  Biso   1.000  H
  H74      1.0000 0.09560  0.67990  0.77460  Biso   1.000  H
  C47      1.0000 0.92640  0.40490  0.12140  Biso   1.000  C
  C48      1.0000 0.07360  0.59510  0.87860  Biso   1.000  C
  H75      1.0000 0.02820  0.45240  0.13770  Biso   1.000  H
  H76      1.0000 0.97180  0.54760  0.86230  Biso   1.000  H
  H77      1.0000 0.87150  0.46230  0.08820  Biso   1.000  H
  H78      1.0000 0.12850  0.53770  0.91180  Biso   1.000  H
  H79      1.0000 0.92840  0.31420  0.09250  Biso   1.000  H
  H80      1.0000 0.07160  0.68580  0.90750  Biso   1.000  H
  C49      1.0000 0.68560  0.30690  0.17030  Biso   1.000  C
  C50      1.0000 0.31440  0.69310  0.82970  Biso   1.000  C
  H81      1.0000 0.63880  0.29390  0.21700  Biso   1.000  H
  H82      1.0000 0.36120  0.70610  0.78300  Biso   1.000  H
  H83      1.0000 0.68640  0.21560  0.14160  Biso   1.000  H
  H84      1.0000 0.31360  0.78440  0.85840  Biso   1.000  H
  H85      1.0000 0.62950  0.36370  0.13730  Biso   1.000  H
  H86      1.0000 0.37050  0.63630  0.86270  Biso   1.000  H
  C51      1.0000 0.78630  0.53590  0.35600  Biso   1.000  C
  C52      1.0000 0.21370  0.46410  0.64400  Biso   1.000  C
  H87      1.0000 0.67580  0.53040  0.34640  Biso   1.000  H
  H88      1.0000 0.32420  0.46960  0.65360  Biso   1.000  H
  C53      1.0000 0.81950  0.40110  0.39280  Biso   1.000  C
  C54      1.0000 0.18050  0.59890  0.60720  Biso   1.000  C
  H89      1.0000 0.78230  0.31920  0.35510  Biso   1.000  H
  H90      1.0000 0.21770  0.68080  0.64490  Biso   1.000  H
  H91      1.0000 0.77010  0.39330  0.43910  Biso   1.000  H
  H92      1.0000 0.22990  0.60670  0.56090  Biso   1.000  H
  H93      1.0000 0.92680  0.40600  0.40740  Biso   1.000  H
  H94      1.0000 0.07320  0.59400  0.59260  Biso   1.000  H
  C55      1.0000 0.84590  0.66550  0.41650  Biso   1.000  C
  C56      1.0000 0.15410  0.33450  0.58350  Biso   1.000  C
  H95      1.0000 0.82540  0.75060  0.39380  Biso   1.000  H
  H96      1.0000 0.17460  0.24940  0.60620  Biso   1.000  H
  H97      1.0000 0.95320  0.67000  0.43110  Biso   1.000  H
  H98      1.0000 0.04680  0.33000  0.56890  Biso   1.000  H
  H99      1.0000 0.79640  0.65720  0.46280  Biso   1.000  H
  H100     1.0000 0.20360  0.34280  0.53720  Biso   1.000  H
  C57      1.0000 0.81780  0.50480  0.35700  Biso   1.000  C
  C58      1.0000 0.18220  0.49520  0.64300  Biso   1.000  C
  H101     1.0000 0.90240  0.45960  0.37990  Biso   1.000  H
  H102     1.0000 0.09760  0.54040  0.62010  Biso   1.000  H
  C59      1.0000 0.67370  0.39650  0.34870  Biso   1.000  C
  C60      1.0000 0.32630  0.60350  0.65130  Biso   1.000  C
  H103     1.0000 0.68280  0.31530  0.31310  Biso   1.000  H
  H104     1.0000 0.31720  0.68470  0.68690  Biso   1.000  H
  H105     1.0000 0.58830  0.43940  0.32810  Biso   1.000  H
  H106     1.0000 0.41170  0.56060  0.67190  Biso   1.000  H
  H107     1.0000 0.65920  0.36660  0.39960  Biso   1.000  H
  H108     1.0000 0.34080  0.63340  0.60040  Biso   1.000  H
  C61      1.0000 0.80730  0.63600  0.41350  Biso   1.000  C
  C62      1.0000 0.19270  0.36400  0.58650  Biso   1.000  C
  H109     1.0000 0.89890  0.70240  0.41780  Biso   1.000  H
  H110     1.0000 0.10110  0.29760  0.58220  Biso   1.000  H
  H111     1.0000 0.79350  0.60740  0.46470  Biso   1.000  H
  H112     1.0000 0.20650  0.39260  0.53530  Biso   1.000  H
  H113     1.0000 0.72270  0.68030  0.39330  Biso   1.000  H
  H114     1.0000 0.27730  0.31970  0.60670  Biso   1.000  H
  O7       1.0000 0.81780  0.84430  0.74670  Biso   1.000  O
  O8       1.0000 0.18220  0.15570  0.25330  Biso   1.000  O
  H115     1.0000 0.89250  0.81030  0.76450  Biso   1.000  H
  H116     1.0000 0.10750  0.18970  0.23550  Biso   1.000  H
  C63      1.0000 0.72310  0.85380  0.80400  Biso   1.000  C
  C64      1.0000 0.27690  0.14620  0.19600  Biso   1.000  C
  H117     1.0000 0.69940  0.76240  0.82270  Biso   1.000  H
  H118     1.0000 0.30060  0.23760  0.17730  Biso   1.000  H
  H119     1.0000 0.63140  0.88490  0.78170  Biso   1.000  H
  H120     1.0000 0.36860  0.11510  0.21830  Biso   1.000  H
  H121     1.0000 0.77300  0.92160  0.84740  Biso   1.000  H
  H122     1.0000 0.22700  0.07840  0.15260  Biso   1.000  H
  O9       1.0000 0.76830  0.93940  0.76280  Biso   1.000  O
  O10      1.0000 0.23170  0.06060  0.23720  Biso   1.000  O
  H123     1.0000 0.77140  0.99830  0.80120  Biso   1.000  H
  H124     1.0000 0.22860  0.00170  0.19880  Biso   1.000  H
  C65      1.0000 0.69860  0.79040  0.77620  Biso   1.000  C
  C66      1.0000 0.30140  0.20960  0.22380  Biso   1.000  C
  H125     1.0000 0.60510  0.76350  0.74100  Biso   1.000  H
  H126     1.0000 0.39490  0.23650  0.25900  Biso   1.000  H
  H127     1.0000 0.67810  0.79660  0.83000  Biso   1.000  H
  H128     1.0000 0.32190  0.20340  0.17000  Biso   1.000  H
  H129     1.0000 0.76410  0.72020  0.76840  Biso   1.000  H
  H130     1.0000 0.23590  0.27980  0.23160  Biso   1.000  H
