data_image0
_cell_length_a       8.57
_cell_length_b       16.946
_cell_length_c       19.057
_cell_angle_alpha    90
_cell_angle_beta     90
_cell_angle_gamma    90

_symmetry_space_group_name_H-M    "P 1"
_symmetry_int_tables_number       1

loop_
  _symmetry_equiv_pos_as_xyz
  'x, y, z'

loop_
  _atom_site_label
  _atom_site_occupancy
  _atom_site_fract_x
  _atom_site_fract_y
  _atom_site_fract_z
  _atom_site_thermal_displace_type
  _atom_site_B_iso_or_equiv
  _atom_site_type_symbol
  Cu1      1.0000 0.46746  0.90382  0.02583  Biso   1.000  Cu
  Cu2      1.0000 0.96746  0.59618  0.52583  Biso   1.000  Cu
  Cu3      1.0000 0.53254  0.09618  0.97417  Biso   1.000  Cu
  Cu4      1.0000 0.03254  0.40382  0.47417  Biso   1.000  Cu
  Cl1      1.0000 0.61819  0.00288  0.07789  Biso   1.000  Cl
  Cl2      1.0000 0.11819  0.49712  0.57789  Biso   1.000  Cl
  Cl3      1.0000 0.38181  0.99712  0.92211  Biso   1.000  Cl
  Cl4      1.0000 0.88181  0.50288  0.42211  Biso   1.000  Cl
  Cl5      1.0000 0.33841  0.79319  0.99325  Biso   1.000  Cl
  Cl6      1.0000 0.83841  0.70681  0.49325  Biso   1.000  Cl
  Cl7      1.0000 0.66159  0.20681  0.00675  Biso   1.000  Cl
  Cl8      1.0000 0.16159  0.29319  0.50675  Biso   1.000  Cl
  N1       1.0000 0.29480  0.93350  0.09290  Biso   1.000  N
  N2       1.0000 0.79480  0.56650  0.59290  Biso   1.000  N
  N3       1.0000 0.70520  0.06650  0.90710  Biso   1.000  N
  N4       1.0000 0.20520  0.43350  0.40710  Biso   1.000  N
  C1       1.0000 0.32380  0.93720  0.16200  Biso   1.000  C
  C2       1.0000 0.82380  0.56280  0.66200  Biso   1.000  C
  C3       1.0000 0.67620  0.06280  0.83800  Biso   1.000  C
  C4       1.0000 0.17620  0.43720  0.33800  Biso   1.000  C
  H1       1.0000 0.42670  0.92770  0.17850  Biso   1.000  H
  H2       1.0000 0.92670  0.57230  0.67850  Biso   1.000  H
  H3       1.0000 0.57330  0.07230  0.82150  Biso   1.000  H
  H4       1.0000 0.07330  0.42770  0.32150  Biso   1.000  H
  C5       1.0000 0.20560  0.95470  0.21030  Biso   1.000  C
  C6       1.0000 0.70560  0.54530  0.71030  Biso   1.000  C
  C7       1.0000 0.79440  0.04530  0.78970  Biso   1.000  C
  C8       1.0000 0.29440  0.45470  0.28970  Biso   1.000  C
  C9       1.0000 0.05700  0.97130  0.18550  Biso   1.000  C
  C10      1.0000 0.55700  0.52870  0.68550  Biso   1.000  C
  C11      1.0000 0.94300  0.02870  0.81450  Biso   1.000  C
  C12      1.0000 0.44300  0.47130  0.31450  Biso   1.000  C
  H5       1.0000 0.97540  0.98470  0.21700  Biso   1.000  H
  H6       1.0000 0.47540  0.51530  0.71700  Biso   1.000  H
  H7       1.0000 0.02460  0.01530  0.78300  Biso   1.000  H
  H8       1.0000 0.52460  0.48470  0.28300  Biso   1.000  H
  C13      1.0000 0.02940  0.96800  0.11370  Biso   1.000  C
  C14      1.0000 0.52940  0.53200  0.61370  Biso   1.000  C
  C15      1.0000 0.97060  0.03200  0.88630  Biso   1.000  C
  C16      1.0000 0.47060  0.46800  0.38630  Biso   1.000  C
  H9       1.0000 0.92830  0.97890  0.09570  Biso   1.000  H
  H10      1.0000 0.42830  0.52110  0.59570  Biso   1.000  H
  H11      1.0000 0.07170  0.02110  0.90430  Biso   1.000  H
  H12      1.0000 0.57170  0.47890  0.40430  Biso   1.000  H
  C17      1.0000 0.15080  0.94860  0.06850  Biso   1.000  C
  C18      1.0000 0.65080  0.55140  0.56850  Biso   1.000  C
  C19      1.0000 0.84920  0.05140  0.93150  Biso   1.000  C
  C20      1.0000 0.34920  0.44860  0.43150  Biso   1.000  C
  H13      1.0000 0.13160  0.94610  0.01940  Biso   1.000  H
  H14      1.0000 0.63160  0.55390  0.51940  Biso   1.000  H
  H15      1.0000 0.86840  0.05390  0.98060  Biso   1.000  H
  H16      1.0000 0.36840  0.44610  0.48060  Biso   1.000  H
  O1       1.0000 0.23990  0.95990  0.27993  Biso   1.000  O
  O2       1.0000 0.73990  0.54010  0.77993  Biso   1.000  O
  O3       1.0000 0.76010  0.04010  0.72007  Biso   1.000  O
  O4       1.0000 0.26010  0.45990  0.22007  Biso   1.000  O
  Si1      1.0000 0.31357  0.89570  0.33658  Biso   1.000  Si
  Si2      1.0000 0.81357  0.60430  0.83658  Biso   1.000  Si
  Si3      1.0000 0.68643  0.10430  0.66342  Biso   1.000  Si
  Si4      1.0000 0.18643  0.39570  0.16342  Biso   1.000  Si
  O5       1.0000 0.38150  0.82210  0.29157  Biso   1.000  O
  O6       1.0000 0.88150  0.67790  0.79157  Biso   1.000  O
  O7       1.0000 0.61850  0.17790  0.70843  Biso   1.000  O
  O8       1.0000 0.11850  0.32210  0.20843  Biso   1.000  O
  Si5      1.0000 0.43179  0.73534  0.26309  Biso   1.000  Si
  Si6      1.0000 0.93179  0.76466  0.76309  Biso   1.000  Si
  Si7      1.0000 0.56821  0.26466  0.73691  Biso   1.000  Si
  Si8      1.0000 0.06821  0.23534  0.23691  Biso   1.000  Si
  O9       1.0000 0.34250  0.66790  0.31209  Biso   1.000  O
  O10      1.0000 0.84250  0.83210  0.81209  Biso   1.000  O
  O11      1.0000 0.65750  0.33210  0.68791  Biso   1.000  O
  O12      1.0000 0.15750  0.16790  0.18791  Biso   1.000  O
  C21      1.0000 0.32790  0.66750  0.38350  Biso   1.000  C
  C22      1.0000 0.82790  0.83250  0.88350  Biso   1.000  C
  C23      1.0000 0.67210  0.33250  0.61650  Biso   1.000  C
  C24      1.0000 0.17210  0.16750  0.11650  Biso   1.000  C
  C25      1.0000 0.18910  0.63950  0.41140  Biso   1.000  C
  C26      1.0000 0.68910  0.86050  0.91140  Biso   1.000  C
  C27      1.0000 0.81090  0.36050  0.58860  Biso   1.000  C
  C28      1.0000 0.31090  0.13950  0.08860  Biso   1.000  C
  H17      1.0000 0.10970  0.62190  0.38040  Biso   1.000  H
  H18      1.0000 0.60970  0.87810  0.88040  Biso   1.000  H
  H19      1.0000 0.89030  0.37810  0.61960  Biso   1.000  H
  H20      1.0000 0.39030  0.12190  0.11960  Biso   1.000  H
  N5       1.0000 0.16320  0.63670  0.48050  Biso   1.000  N
  N6       1.0000 0.66320  0.86330  0.98050  Biso   1.000  N
  N7       1.0000 0.83680  0.36330  0.51950  Biso   1.000  N
  N8       1.0000 0.33680  0.13670  0.01950  Biso   1.000  N
  C29      1.0000 0.27760  0.66240  0.52400  Biso   1.000  C
  C30      1.0000 0.77760  0.83760  0.02400  Biso   1.000  C
  C31      1.0000 0.72240  0.33760  0.47600  Biso   1.000  C
  C32      1.0000 0.22240  0.16240  0.97600  Biso   1.000  C
  H21      1.0000 0.25960  0.66140  0.57320  Biso   1.000  H
  H22      1.0000 0.75960  0.83860  0.07320  Biso   1.000  H
  H23      1.0000 0.74040  0.33860  0.42680  Biso   1.000  H
  H24      1.0000 0.24040  0.16140  0.92680  Biso   1.000  H
  C33      1.0000 0.41810  0.68990  0.50000  Biso   1.000  C
  C34      1.0000 0.91810  0.81010  0.00000  Biso   1.000  C
  C35      1.0000 0.58190  0.31010  0.50000  Biso   1.000  C
  C36      1.0000 0.08190  0.18990  0.00000  Biso   1.000  C
  H25      1.0000 0.49580  0.70760  0.53190  Biso   1.000  H
  H26      1.0000 0.99580  0.79240  0.03190  Biso   1.000  H
  H27      1.0000 0.50420  0.29240  0.46810  Biso   1.000  H
  H28      1.0000 0.00420  0.20760  0.96810  Biso   1.000  H
  C37      1.0000 0.44470  0.69150  0.42820  Biso   1.000  C
  C38      1.0000 0.94470  0.80850  0.92820  Biso   1.000  C
  C39      1.0000 0.55530  0.30850  0.57180  Biso   1.000  C
  C40      1.0000 0.05530  0.19150  0.07180  Biso   1.000  C
  H29      1.0000 0.54220  0.70890  0.41020  Biso   1.000  H
  H30      1.0000 0.04220  0.79110  0.91020  Biso   1.000  H
  H31      1.0000 0.45780  0.29110  0.58980  Biso   1.000  H
  H32      1.0000 0.95780  0.20890  0.08980  Biso   1.000  H
  C41      1.0000 0.15190  0.86260  0.39460  Biso   1.000  C
  C42      1.0000 0.65190  0.63740  0.89460  Biso   1.000  C
  C43      1.0000 0.84810  0.13740  0.60540  Biso   1.000  C
  C44      1.0000 0.34810  0.36260  0.10540  Biso   1.000  C
  H33      1.0000 0.19390  0.82000  0.42570  Biso   1.000  H
  H34      1.0000 0.69390  0.68000  0.92570  Biso   1.000  H
  H35      1.0000 0.80610  0.18000  0.57430  Biso   1.000  H
  H36      1.0000 0.30610  0.32000  0.07430  Biso   1.000  H
  C45      1.0000 0.01940  0.82660  0.35070  Biso   1.000  C
  C46      1.0000 0.51940  0.67340  0.85070  Biso   1.000  C
  C47      1.0000 0.98060  0.17340  0.64930  Biso   1.000  C
  C48      1.0000 0.48060  0.32660  0.14930  Biso   1.000  C
  H37      1.0000 0.06150  0.78470  0.32070  Biso   1.000  H
  H38      1.0000 0.56150  0.71530  0.82070  Biso   1.000  H
  H39      1.0000 0.93850  0.21530  0.67930  Biso   1.000  H
  H40      1.0000 0.43850  0.28470  0.17930  Biso   1.000  H
  H41      1.0000 0.97230  0.86770  0.32130  Biso   1.000  H
  H42      1.0000 0.47230  0.63230  0.82130  Biso   1.000  H
  H43      1.0000 0.02770  0.13230  0.67870  Biso   1.000  H
  H44      1.0000 0.52770  0.36770  0.17870  Biso   1.000  H
  H45      1.0000 0.94000  0.80440  0.38200  Biso   1.000  H
  H46      1.0000 0.44000  0.69560  0.88200  Biso   1.000  H
  H47      1.0000 0.06000  0.19560  0.61800  Biso   1.000  H
  H48      1.0000 0.56000  0.30440  0.11800  Biso   1.000  H
  C49      1.0000 0.08940  0.92810  0.44190  Biso   1.000  C
  C50      1.0000 0.58940  0.57190  0.94190  Biso   1.000  C
  C51      1.0000 0.91060  0.07190  0.55810  Biso   1.000  C
  C52      1.0000 0.41060  0.42810  0.05810  Biso   1.000  C
  H49      1.0000 0.17530  0.95030  0.46950  Biso   1.000  H
  H50      1.0000 0.67530  0.54970  0.96950  Biso   1.000  H
  H51      1.0000 0.82470  0.04970  0.53050  Biso   1.000  H
  H52      1.0000 0.32470  0.45030  0.03050  Biso   1.000  H
  H53      1.0000 0.01030  0.90630  0.47360  Biso   1.000  H
  H54      1.0000 0.51030  0.59370  0.97360  Biso   1.000  H
  H55      1.0000 0.98970  0.09370  0.52640  Biso   1.000  H
  H56      1.0000 0.48970  0.40630  0.02640  Biso   1.000  H
  H57      1.0000 0.04260  0.96960  0.41300  Biso   1.000  H
  H58      1.0000 0.54260  0.53040  0.91300  Biso   1.000  H
  H59      1.0000 0.95740  0.03040  0.58700  Biso   1.000  H
  H60      1.0000 0.45740  0.46960  0.08700  Biso   1.000  H
  C53      1.0000 0.47140  0.95020  0.38240  Biso   1.000  C
  C54      1.0000 0.97140  0.54980  0.88240  Biso   1.000  C
  C55      1.0000 0.52860  0.04980  0.61760  Biso   1.000  C
  C56      1.0000 0.02860  0.45020  0.11760  Biso   1.000  C
  H61      1.0000 0.42320  0.99870  0.40300  Biso   1.000  H
  H62      1.0000 0.92320  0.50130  0.90300  Biso   1.000  H
  H63      1.0000 0.57680  0.00130  0.59700  Biso   1.000  H
  H64      1.0000 0.07680  0.49870  0.09700  Biso   1.000  H
  C57      1.0000 0.59980  0.97790  0.33110  Biso   1.000  C
  C58      1.0000 0.09980  0.52210  0.83110  Biso   1.000  C
  C59      1.0000 0.40020  0.02210  0.66890  Biso   1.000  C
  C60      1.0000 0.90020  0.47790  0.16890  Biso   1.000  C
  H65      1.0000 0.55200  0.00730  0.29240  Biso   1.000  H
  H66      1.0000 0.05200  0.49270  0.79240  Biso   1.000  H
  H67      1.0000 0.44800  0.99270  0.70760  Biso   1.000  H
  H68      1.0000 0.94800  0.50730  0.20760  Biso   1.000  H
  H69      1.0000 0.65520  0.93190  0.31240  Biso   1.000  H
  H70      1.0000 0.15520  0.56810  0.81240  Biso   1.000  H
  H71      1.0000 0.34480  0.06810  0.68760  Biso   1.000  H
  H72      1.0000 0.84480  0.43190  0.18760  Biso   1.000  H
  H73      1.0000 0.67360  0.01210  0.35590  Biso   1.000  H
  H74      1.0000 0.17360  0.48790  0.85590  Biso   1.000  H
  H75      1.0000 0.32640  0.98790  0.64410  Biso   1.000  H
  H76      1.0000 0.82640  0.51210  0.14410  Biso   1.000  H
  C61      1.0000 0.54580  0.90400  0.44320  Biso   1.000  C
  C62      1.0000 0.04580  0.59600  0.94320  Biso   1.000  C
  C63      1.0000 0.45420  0.09600  0.55680  Biso   1.000  C
  C64      1.0000 0.95420  0.40400  0.05680  Biso   1.000  C
  H77      1.0000 0.46410  0.88650  0.47560  Biso   1.000  H
  H78      1.0000 0.96410  0.61350  0.97560  Biso   1.000  H
  H79      1.0000 0.53590  0.11350  0.52440  Biso   1.000  H
  H80      1.0000 0.03590  0.38650  0.02440  Biso   1.000  H
  H81      1.0000 0.61960  0.93810  0.46810  Biso   1.000  H
  H82      1.0000 0.11960  0.56190  0.96810  Biso   1.000  H
  H83      1.0000 0.38040  0.06190  0.53190  Biso   1.000  H
  H84      1.0000 0.88040  0.43810  0.03190  Biso   1.000  H
  H85      1.0000 0.60110  0.85790  0.42450  Biso   1.000  H
  H86      1.0000 0.10110  0.64210  0.92450  Biso   1.000  H
  H87      1.0000 0.39890  0.14210  0.57550  Biso   1.000  H
  H88      1.0000 0.89890  0.35790  0.07550  Biso   1.000  H
  C65      1.0000 0.65050  0.73040  0.27100  Biso   1.000  C
  C66      1.0000 0.15050  0.76960  0.77100  Biso   1.000  C
  C67      1.0000 0.34950  0.26960  0.72900  Biso   1.000  C
  C68      1.0000 0.84950  0.23040  0.22900  Biso   1.000  C
  H89      1.0000 0.67980  0.76080  0.31410  Biso   1.000  H
  H90      1.0000 0.17980  0.73920  0.81410  Biso   1.000  H
  H91      1.0000 0.32020  0.23920  0.68590  Biso   1.000  H
  H92      1.0000 0.82020  0.26080  0.18590  Biso   1.000  H
  C69      1.0000 0.71880  0.64770  0.27910  Biso   1.000  C
  C70      1.0000 0.21880  0.85230  0.77910  Biso   1.000  C
  C71      1.0000 0.28120  0.35230  0.72090  Biso   1.000  C
  C72      1.0000 0.78120  0.14770  0.22090  Biso   1.000  C
  H93      1.0000 0.67070  0.62150  0.31950  Biso   1.000  H
  H94      1.0000 0.17070  0.87850  0.81950  Biso   1.000  H
  H95      1.0000 0.32930  0.37850  0.68050  Biso   1.000  H
  H96      1.0000 0.82930  0.12150  0.18050  Biso   1.000  H
  H97      1.0000 0.83180  0.65140  0.28640  Biso   1.000  H
  H98      1.0000 0.33180  0.84860  0.78640  Biso   1.000  H
  H99      1.0000 0.16820  0.34860  0.71360  Biso   1.000  H
  H100     1.0000 0.66820  0.15140  0.21360  Biso   1.000  H
  H101     1.0000 0.69790  0.61700  0.23650  Biso   1.000  H
  H102     1.0000 0.19790  0.88300  0.73650  Biso   1.000  H
  H103     1.0000 0.30210  0.38300  0.76350  Biso   1.000  H
  H104     1.0000 0.80210  0.11700  0.26350  Biso   1.000  H
  C73      1.0000 0.72300  0.77360  0.20820  Biso   1.000  C
  C74      1.0000 0.22300  0.72640  0.70820  Biso   1.000  C
  C75      1.0000 0.27700  0.22640  0.79180  Biso   1.000  C
  C76      1.0000 0.77700  0.27360  0.29180  Biso   1.000  C
  H105     1.0000 0.67730  0.82640  0.20420  Biso   1.000  H
  H106     1.0000 0.17730  0.67360  0.70420  Biso   1.000  H
  H107     1.0000 0.32270  0.17360  0.79580  Biso   1.000  H
  H108     1.0000 0.82270  0.32640  0.29580  Biso   1.000  H
  H109     1.0000 0.70210  0.74370  0.16520  Biso   1.000  H
  H110     1.0000 0.20210  0.75630  0.66520  Biso   1.000  H
  H111     1.0000 0.29790  0.25630  0.83480  Biso   1.000  H
  H112     1.0000 0.79790  0.24370  0.33480  Biso   1.000  H
  H113     1.0000 0.83600  0.77810  0.21510  Biso   1.000  H
  H114     1.0000 0.33600  0.72190  0.71510  Biso   1.000  H
  H115     1.0000 0.16400  0.22190  0.78490  Biso   1.000  H
  H116     1.0000 0.66400  0.27810  0.28490  Biso   1.000  H
  C77      1.0000 0.35170  0.71810  0.17360  Biso   1.000  C
  C78      1.0000 0.85170  0.78190  0.67360  Biso   1.000  C
  C79      1.0000 0.64830  0.28190  0.82640  Biso   1.000  C
  C80      1.0000 0.14830  0.21810  0.32640  Biso   1.000  C
  H117     1.0000 0.39500  0.76050  0.14280  Biso   1.000  H
  H118     1.0000 0.89500  0.73950  0.64280  Biso   1.000  H
  H119     1.0000 0.60500  0.23950  0.85720  Biso   1.000  H
  H120     1.0000 0.10500  0.26050  0.35720  Biso   1.000  H
  C81      1.0000 0.40370  0.63890  0.14180  Biso   1.000  C
  C82      1.0000 0.90370  0.86110  0.64180  Biso   1.000  C
  C83      1.0000 0.59630  0.36110  0.85820  Biso   1.000  C
  C84      1.0000 0.09630  0.13890  0.35820  Biso   1.000  C
  H121     1.0000 0.51770  0.63470  0.14400  Biso   1.000  H
  H122     1.0000 0.01770  0.86530  0.64400  Biso   1.000  H
  H123     1.0000 0.48230  0.36530  0.85600  Biso   1.000  H
  H124     1.0000 0.98230  0.13470  0.35600  Biso   1.000  H
  H125     1.0000 0.36980  0.63600  0.09280  Biso   1.000  H
  H126     1.0000 0.86980  0.86400  0.59280  Biso   1.000  H
  H127     1.0000 0.63020  0.36400  0.90720  Biso   1.000  H
  H128     1.0000 0.13020  0.13600  0.40720  Biso   1.000  H
  H129     1.0000 0.35670  0.59540  0.16840  Biso   1.000  H
  H130     1.0000 0.85670  0.90460  0.66840  Biso   1.000  H
  H131     1.0000 0.64330  0.40460  0.83160  Biso   1.000  H
  H132     1.0000 0.14330  0.09540  0.33160  Biso   1.000  H
  C85      1.0000 0.17490  0.72540  0.17060  Biso   1.000  C
  C86      1.0000 0.67490  0.77460  0.67060  Biso   1.000  C
  C87      1.0000 0.82510  0.27460  0.82940  Biso   1.000  C
  C88      1.0000 0.32510  0.22540  0.32940  Biso   1.000  C
  H133     1.0000 0.14300  0.77600  0.19090  Biso   1.000  H
  H134     1.0000 0.64300  0.72400  0.69090  Biso   1.000  H
  H135     1.0000 0.85700  0.22400  0.80910  Biso   1.000  H
  H136     1.0000 0.35700  0.27600  0.30910  Biso   1.000  H
  H137     1.0000 0.12730  0.68220  0.19720  Biso   1.000  H
  H138     1.0000 0.62730  0.81780  0.69720  Biso   1.000  H
  H139     1.0000 0.87270  0.31780  0.80280  Biso   1.000  H
  H140     1.0000 0.37270  0.18220  0.30280  Biso   1.000  H
  H141     1.0000 0.14040  0.72280  0.12160  Biso   1.000  H
  H142     1.0000 0.64040  0.77720  0.62160  Biso   1.000  H
  H143     1.0000 0.85960  0.27720  0.87840  Biso   1.000  H
  H144     1.0000 0.35960  0.22280  0.37840  Biso   1.000  H
