data_image0
_cell_length_a       7.614
_cell_length_b       20.703
_cell_length_c       15.326
_cell_angle_alpha    90
_cell_angle_beta     90
_cell_angle_gamma    90

_symmetry_space_group_name_H-M    "P 1"
_symmetry_int_tables_number       1

loop_
  _symmetry_equiv_pos_as_xyz
  'x, y, z'

loop_
  _atom_site_label
  _atom_site_occupancy
  _atom_site_fract_x
  _atom_site_fract_y
  _atom_site_fract_z
  _atom_site_thermal_displace_type
  _atom_site_B_iso_or_equiv
  _atom_site_type_symbol
  Cu1      1.0000 0.25781  0.66347  0.00938  Biso   1.000  Cu
  Cu2      1.0000 0.75781  0.16347  0.49062  Biso   1.000  Cu
  Cu3      1.0000 0.75781  0.33653  0.99062  Biso   1.000  Cu
  Cu4      1.0000 0.25781  0.83653  0.50938  Biso   1.000  Cu
  N1       1.0000 0.15920  0.69793  0.12348  Biso   1.000  N
  N2       1.0000 0.65920  0.19793  0.37652  Biso   1.000  N
  N3       1.0000 0.65920  0.30207  0.87652  Biso   1.000  N
  N4       1.0000 0.15920  0.80207  0.62348  Biso   1.000  N
  N5       1.0000 0.29120  0.75628  0.99437  Biso   1.000  N
  N6       1.0000 0.79120  0.25628  0.50563  Biso   1.000  N
  N7       1.0000 0.79120  0.24372  0.00563  Biso   1.000  N
  N8       1.0000 0.29120  0.74372  0.49437  Biso   1.000  N
  N9       1.0000 0.38870  0.66618  0.89493  Biso   1.000  N
  N10      1.0000 0.88870  0.16618  0.60507  Biso   1.000  N
  N11      1.0000 0.88870  0.33382  0.10507  Biso   1.000  N
  N12      1.0000 0.38870  0.83382  0.39493  Biso   1.000  N
  O1       1.0000 0.26830  0.57160  0.03015  Biso   1.000  O
  O2       1.0000 0.76830  0.07160  0.46985  Biso   1.000  O
  O3       1.0000 0.76830  0.42840  0.96985  Biso   1.000  O
  O4       1.0000 0.26830  0.92840  0.53015  Biso   1.000  O
  O5       1.0000 0.49650  0.34593  0.05829  Biso   1.000  O
  O6       1.0000 0.99650  0.84593  0.44171  Biso   1.000  O
  O7       1.0000 0.99650  0.65407  0.94171  Biso   1.000  O
  O8       1.0000 0.49650  0.15407  0.55829  Biso   1.000  O
  C1       1.0000 0.08900  0.67892  0.19843  Biso   1.000  C
  C2       1.0000 0.58900  0.17892  0.30157  Biso   1.000  C
  C3       1.0000 0.58900  0.32108  0.80157  Biso   1.000  C
  C4       1.0000 0.08900  0.82108  0.69843  Biso   1.000  C
  C5       1.0000 0.04080  0.73172  0.24760  Biso   1.000  C
  C6       1.0000 0.54080  0.23172  0.25240  Biso   1.000  C
  C7       1.0000 0.54080  0.26828  0.75240  Biso   1.000  C
  C8       1.0000 0.04080  0.76828  0.74760  Biso   1.000  C
  C9       1.0000 0.08090  0.78616  0.20197  Biso   1.000  C
  C10      1.0000 0.58090  0.28616  0.29803  Biso   1.000  C
  C11      1.0000 0.58090  0.21384  0.79803  Biso   1.000  C
  C12      1.0000 0.08090  0.71384  0.70197  Biso   1.000  C
  N13      1.0000 0.15520  0.76475  0.12548  Biso   1.000  N
  N14      1.0000 0.65520  0.26475  0.37452  Biso   1.000  N
  N15      1.0000 0.65520  0.23525  0.87452  Biso   1.000  N
  N16      1.0000 0.15520  0.73525  0.62548  Biso   1.000  N
  C13      1.0000 0.23070  0.79723  0.05469  Biso   1.000  C
  C14      1.0000 0.73070  0.29723  0.44531  Biso   1.000  C
  C15      1.0000 0.73070  0.20277  0.94531  Biso   1.000  C
  C16      1.0000 0.23070  0.70277  0.55469  Biso   1.000  C
  C17      1.0000 0.24640  0.86302  0.04523  Biso   1.000  C
  C18      1.0000 0.74640  0.36302  0.45477  Biso   1.000  C
  C19      1.0000 0.74640  0.13698  0.95477  Biso   1.000  C
  C20      1.0000 0.24640  0.63698  0.54523  Biso   1.000  C
  C21      1.0000 0.32930  0.88506  0.97110  Biso   1.000  C
  C22      1.0000 0.82930  0.38506  0.52890  Biso   1.000  C
  C23      1.0000 0.82930  0.11494  0.02890  Biso   1.000  C
  C24      1.0000 0.32930  0.61494  0.47110  Biso   1.000  C
  C25      1.0000 0.39430  0.84357  0.90880  Biso   1.000  C
  C26      1.0000 0.89430  0.34357  0.59120  Biso   1.000  C
  C27      1.0000 0.89430  0.15643  0.09120  Biso   1.000  C
  C28      1.0000 0.39430  0.65643  0.40880  Biso   1.000  C
  C29      1.0000 0.37220  0.77846  0.92300  Biso   1.000  C
  C30      1.0000 0.87220  0.27846  0.57700  Biso   1.000  C
  C31      1.0000 0.87220  0.22154  0.07700  Biso   1.000  C
  C32      1.0000 0.37220  0.72154  0.42300  Biso   1.000  C
  N17      1.0000 0.42950  0.72811  0.86904  Biso   1.000  N
  N18      1.0000 0.92950  0.22811  0.63096  Biso   1.000  N
  N19      1.0000 0.92950  0.27189  0.13096  Biso   1.000  N
  N20      1.0000 0.42950  0.77189  0.36904  Biso   1.000  N
  C33      1.0000 0.51700  0.72774  0.79053  Biso   1.000  C
  C34      1.0000 0.01700  0.22774  0.70947  Biso   1.000  C
  C35      1.0000 0.01700  0.27226  0.20947  Biso   1.000  C
  C36      1.0000 0.51700  0.77226  0.29053  Biso   1.000  C
  C37      1.0000 0.53130  0.66476  0.76730  Biso   1.000  C
  C38      1.0000 0.03130  0.16476  0.73270  Biso   1.000  C
  C39      1.0000 0.03130  0.33524  0.23270  Biso   1.000  C
  C40      1.0000 0.53130  0.83524  0.26730  Biso   1.000  C
  C41      1.0000 0.45000  0.62813  0.83206  Biso   1.000  C
  C42      1.0000 0.95000  0.12813  0.66794  Biso   1.000  C
  C43      1.0000 0.95000  0.37187  0.16794  Biso   1.000  C
  C44      1.0000 0.45000  0.87187  0.33206  Biso   1.000  C
  C45      1.0000 0.06630  0.60933  0.21970  Biso   1.000  C
  C46      1.0000 0.56630  0.10933  0.28030  Biso   1.000  C
  C47      1.0000 0.56630  0.39067  0.78030  Biso   1.000  C
  C48      1.0000 0.06630  0.89067  0.71970  Biso   1.000  C
  C49      1.0000 0.04740  0.85513  0.22340  Biso   1.000  C
  C50      1.0000 0.54740  0.35513  0.27660  Biso   1.000  C
  C51      1.0000 0.54740  0.14487  0.77660  Biso   1.000  C
  C52      1.0000 0.04740  0.64487  0.72340  Biso   1.000  C
  C53      1.0000 0.57950  0.78631  0.74370  Biso   1.000  C
  C54      1.0000 0.07950  0.28631  0.75630  Biso   1.000  C
  C55      1.0000 0.07950  0.21369  0.25630  Biso   1.000  C
  C56      1.0000 0.57950  0.71369  0.24370  Biso   1.000  C
  C57      1.0000 0.42500  0.55660  0.83500  Biso   1.000  C
  C58      1.0000 0.92500  0.05660  0.66500  Biso   1.000  C
  C59      1.0000 0.92500  0.44340  0.16500  Biso   1.000  C
  C60      1.0000 0.42500  0.94340  0.33500  Biso   1.000  C
  H1       1.0000 0.34310  0.54590  0.88040  Biso   1.000  H
  H2       1.0000 0.84310  0.04590  0.61960  Biso   1.000  H
  H3       1.0000 0.84310  0.45410  0.11960  Biso   1.000  H
  H4       1.0000 0.34310  0.95410  0.38040  Biso   1.000  H
  H5       1.0000 0.53550  0.53600  0.84660  Biso   1.000  H
  H6       1.0000 0.03550  0.03600  0.65340  Biso   1.000  H
  H7       1.0000 0.03550  0.46400  0.15340  Biso   1.000  H
  H8       1.0000 0.53550  0.96400  0.34660  Biso   1.000  H
  H9       1.0000 0.38020  0.54190  0.78000  Biso   1.000  H
  H10      1.0000 0.88020  0.04190  0.72000  Biso   1.000  H
  H11      1.0000 0.88020  0.45810  0.22000  Biso   1.000  H
  H12      1.0000 0.38020  0.95810  0.28000  Biso   1.000  H
  C61      1.0000 0.39090  0.55079  0.08024  Biso   1.000  C
  C62      1.0000 0.89090  0.05079  0.41976  Biso   1.000  C
  C63      1.0000 0.89090  0.44921  0.91976  Biso   1.000  C
  C64      1.0000 0.39090  0.94921  0.58024  Biso   1.000  C
  O9       1.0000 0.49340  0.58669  0.11981  Biso   1.000  O
  O10      1.0000 0.99340  0.08669  0.38019  Biso   1.000  O
  O11      1.0000 0.99340  0.41331  0.88019  Biso   1.000  O
  O12      1.0000 0.49340  0.91331  0.61981  Biso   1.000  O
  C65      1.0000 0.40680  0.47842  0.09000  Biso   1.000  C
  C66      1.0000 0.90680  0.97842  0.41000  Biso   1.000  C
  C67      1.0000 0.90680  0.52158  0.91000  Biso   1.000  C
  C68      1.0000 0.40680  0.02158  0.59000  Biso   1.000  C
  C69      1.0000 0.33020  0.43948  0.01648  Biso   1.000  C
  C70      1.0000 0.83020  0.93948  0.48352  Biso   1.000  C
  C71      1.0000 0.83020  0.56052  0.98352  Biso   1.000  C
  C72      1.0000 0.33020  0.06052  0.51648  Biso   1.000  C
  H13      1.0000 0.20410  0.44600  0.01580  Biso   1.000  H
  H14      1.0000 0.70410  0.94600  0.48420  Biso   1.000  H
  H15      1.0000 0.70410  0.55400  0.98420  Biso   1.000  H
  H16      1.0000 0.20410  0.05400  0.51580  Biso   1.000  H
  H17      1.0000 0.37630  0.45600  0.96190  Biso   1.000  H
  H18      1.0000 0.87630  0.95600  0.53810  Biso   1.000  H
  H19      1.0000 0.87630  0.54400  0.03810  Biso   1.000  H
  H20      1.0000 0.37630  0.04400  0.46190  Biso   1.000  H
  C73      1.0000 0.36600  0.36846  0.02055  Biso   1.000  C
  C74      1.0000 0.86600  0.86846  0.47945  Biso   1.000  C
  C75      1.0000 0.86600  0.63154  0.97945  Biso   1.000  C
  C76      1.0000 0.36600  0.13154  0.52055  Biso   1.000  C
  N21      1.0000 0.25410  0.33144  0.97788  Biso   1.000  N
  N22      1.0000 0.75410  0.83144  0.52212  Biso   1.000  N
  N23      1.0000 0.75410  0.66856  0.02212  Biso   1.000  N
  N24      1.0000 0.25410  0.16856  0.47788  Biso   1.000  N
  H21      1.0000 0.99000  0.73640  0.29500  Biso   1.000  H
  H22      1.0000 0.49000  0.23640  0.20500  Biso   1.000  H
  H23      1.0000 0.49000  0.26360  0.70500  Biso   1.000  H
  H24      1.0000 0.99000  0.76360  0.79500  Biso   1.000  H
  H25      1.0000 0.21200  0.88990  0.09000  Biso   1.000  H
  H26      1.0000 0.71200  0.38990  0.41000  Biso   1.000  H
  H27      1.0000 0.71200  0.11010  0.91000  Biso   1.000  H
  H28      1.0000 0.21200  0.61010  0.59000  Biso   1.000  H
  H29      1.0000 0.34200  0.92940  0.95800  Biso   1.000  H
  H30      1.0000 0.84200  0.42940  0.54200  Biso   1.000  H
  H31      1.0000 0.84200  0.07060  0.04200  Biso   1.000  H
  H32      1.0000 0.34200  0.57060  0.45800  Biso   1.000  H
  H33      1.0000 0.46000  0.85670  0.86600  Biso   1.000  H
  H34      1.0000 0.96000  0.35670  0.63400  Biso   1.000  H
  H35      1.0000 0.96000  0.14330  0.13400  Biso   1.000  H
  H36      1.0000 0.46000  0.64330  0.36600  Biso   1.000  H
  H37      1.0000 0.58800  0.65090  0.72000  Biso   1.000  H
  H38      1.0000 0.08800  0.15090  0.78000  Biso   1.000  H
  H39      1.0000 0.08800  0.34910  0.28000  Biso   1.000  H
  H40      1.0000 0.58800  0.84910  0.22000  Biso   1.000  H
  H41      1.0000 0.06000  0.58740  0.17400  Biso   1.000  H
  H42      1.0000 0.56000  0.08740  0.32600  Biso   1.000  H
  H43      1.0000 0.56000  0.41260  0.82600  Biso   1.000  H
  H44      1.0000 0.06000  0.91260  0.67400  Biso   1.000  H
  H45      1.0000 0.98400  0.60000  0.25800  Biso   1.000  H
  H46      1.0000 0.48400  0.10000  0.24200  Biso   1.000  H
  H47      1.0000 0.48400  0.40000  0.74200  Biso   1.000  H
  H48      1.0000 0.98400  0.90000  0.75800  Biso   1.000  H
  H49      1.0000 0.16900  0.59600  0.23600  Biso   1.000  H
  H50      1.0000 0.66900  0.09600  0.26400  Biso   1.000  H
  H51      1.0000 0.66900  0.40400  0.76400  Biso   1.000  H
  H52      1.0000 0.16900  0.90400  0.73600  Biso   1.000  H
  H53      1.0000 0.15300  0.87990  0.22500  Biso   1.000  H
  H54      1.0000 0.65300  0.37990  0.27500  Biso   1.000  H
  H55      1.0000 0.65300  0.12010  0.77500  Biso   1.000  H
  H56      1.0000 0.15300  0.62010  0.72500  Biso   1.000  H
  H57      1.0000 0.96100  0.87380  0.18600  Biso   1.000  H
  H58      1.0000 0.46100  0.37380  0.31400  Biso   1.000  H
  H59      1.0000 0.46100  0.12620  0.81400  Biso   1.000  H
  H60      1.0000 0.96100  0.62620  0.68600  Biso   1.000  H
  H61      1.0000 0.99800  0.85450  0.27700  Biso   1.000  H
  H62      1.0000 0.49800  0.35450  0.22300  Biso   1.000  H
  H63      1.0000 0.49800  0.14550  0.72300  Biso   1.000  H
  H64      1.0000 0.99800  0.64550  0.77700  Biso   1.000  H
  H65      1.0000 0.65500  0.80970  0.78000  Biso   1.000  H
  H66      1.0000 0.15500  0.30970  0.72000  Biso   1.000  H
  H67      1.0000 0.15500  0.19030  0.22000  Biso   1.000  H
  H68      1.0000 0.65500  0.69030  0.28000  Biso   1.000  H
  H69      1.0000 0.47800  0.81590  0.71800  Biso   1.000  H
  H70      1.0000 0.97800  0.31590  0.78200  Biso   1.000  H
  H71      1.0000 0.97800  0.18410  0.28200  Biso   1.000  H
  H72      1.0000 0.47800  0.68410  0.21800  Biso   1.000  H
  H73      1.0000 0.64900  0.77160  0.69100  Biso   1.000  H
  H74      1.0000 0.14900  0.27160  0.80900  Biso   1.000  H
  H75      1.0000 0.14900  0.22840  0.30900  Biso   1.000  H
  H76      1.0000 0.64900  0.72840  0.19100  Biso   1.000  H
  H77      1.0000 0.52000  0.46850  0.09840  Biso   1.000  H
  H78      1.0000 0.02000  0.96850  0.40160  Biso   1.000  H
  H79      1.0000 0.02000  0.53150  0.90160  Biso   1.000  H
  H80      1.0000 0.52000  0.03150  0.59840  Biso   1.000  H
  H81      1.0000 0.33100  0.46440  0.14800  Biso   1.000  H
  H82      1.0000 0.83100  0.96440  0.35200  Biso   1.000  H
  H83      1.0000 0.83100  0.53560  0.85200  Biso   1.000  H
  H84      1.0000 0.33100  0.03560  0.64800  Biso   1.000  H
  H85      1.0000 0.26400  0.28940  0.97870  Biso   1.000  H
  H86      1.0000 0.76400  0.78940  0.52130  Biso   1.000  H
  H87      1.0000 0.76400  0.71060  0.02130  Biso   1.000  H
  H88      1.0000 0.26400  0.21060  0.47870  Biso   1.000  H
  H89      1.0000 0.15200  0.35300  0.95300  Biso   1.000  H
  H90      1.0000 0.65200  0.85300  0.54700  Biso   1.000  H
  H91      1.0000 0.65200  0.64700  0.04700  Biso   1.000  H
  H92      1.0000 0.15200  0.14700  0.45300  Biso   1.000  H
  N25      1.0000 0.28710  0.34256  0.49595  Biso   1.000  N
  N26      1.0000 0.78710  0.84256  0.00405  Biso   1.000  N
  N27      1.0000 0.78710  0.65744  0.50405  Biso   1.000  N
  N28      1.0000 0.28710  0.15744  0.99595  Biso   1.000  N
  O13      1.0000 0.23370  0.31014  0.43493  Biso   1.000  O
  O14      1.0000 0.73370  0.81014  0.06507  Biso   1.000  O
  O15      1.0000 0.73370  0.68986  0.56507  Biso   1.000  O
  O16      1.0000 0.23370  0.18986  0.93493  Biso   1.000  O
  O17      1.0000 0.30410  0.40201  0.48671  Biso   1.000  O
  O18      1.0000 0.80410  0.90201  0.01329  Biso   1.000  O
  O19      1.0000 0.80410  0.59799  0.51329  Biso   1.000  O
  O20      1.0000 0.30410  0.09799  0.98671  Biso   1.000  O
  O21      1.0000 0.32430  0.31749  0.56586  Biso   1.000  O
  O22      1.0000 0.82430  0.81749  0.93414  Biso   1.000  O
  O23      1.0000 0.82430  0.68251  0.43414  Biso   1.000  O
  O24      1.0000 0.32430  0.18251  0.06586  Biso   1.000  O
  O25      1.0000 0.20260  0.47489  0.34130  Biso   1.000  O
  O26      1.0000 0.70260  0.97489  0.15870  Biso   1.000  O
  O27      1.0000 0.70260  0.52511  0.65870  Biso   1.000  O
  O28      1.0000 0.20260  0.02511  0.84130  Biso   1.000  O
  H93      1.0000 0.22400  0.45520  0.37400  Biso   1.000  H
  H94      1.0000 0.72400  0.95520  0.12600  Biso   1.000  H
  H95      1.0000 0.72400  0.54480  0.62600  Biso   1.000  H
  H96      1.0000 0.22400  0.04480  0.87400  Biso   1.000  H
  H97      1.0000 0.29200  0.48700  0.32400  Biso   1.000  H
  H98      1.0000 0.79200  0.98700  0.17600  Biso   1.000  H
  H99      1.0000 0.79200  0.51300  0.67600  Biso   1.000  H
  H100     1.0000 0.29200  0.01300  0.82400  Biso   1.000  H
  O29      1.0000 0.84760  0.51051  0.37590  Biso   1.000  O
  O30      1.0000 0.34760  0.01051  0.12410  Biso   1.000  O
  O31      1.0000 0.34760  0.48949  0.62410  Biso   1.000  O
  O32      1.0000 0.84760  0.98949  0.87590  Biso   1.000  O
  H101     1.0000 0.96100  0.50100  0.36500  Biso   1.000  H
  H102     1.0000 0.46100  0.00100  0.13500  Biso   1.000  H
  H103     1.0000 0.46100  0.49900  0.63500  Biso   1.000  H
  H104     1.0000 0.96100  0.99900  0.86500  Biso   1.000  H
  H105     1.0000 0.84600  0.53540  0.40700  Biso   1.000  H
  H106     1.0000 0.34600  0.03540  0.09300  Biso   1.000  H
  H107     1.0000 0.34600  0.46460  0.59300  Biso   1.000  H
  H108     1.0000 0.84600  0.96460  0.90700  Biso   1.000  H
  O33      1.0000 0.52840  0.53321  0.29060  Biso   1.000  O
  O34      1.0000 0.02840  0.03321  0.20940  Biso   1.000  O
  O35      1.0000 0.02840  0.46679  0.70940  Biso   1.000  O
  O36      1.0000 0.52840  0.96679  0.79060  Biso   1.000  O
  H109     1.0000 0.62500  0.52500  0.30700  Biso   1.000  H
  H110     1.0000 0.12500  0.02500  0.19300  Biso   1.000  H
  H111     1.0000 0.12500  0.47500  0.69300  Biso   1.000  H
  H112     1.0000 0.62500  0.97500  0.80700  Biso   1.000  H
  H113     1.0000 0.54900  0.54700  0.24500  Biso   1.000  H
  H114     1.0000 0.04900  0.04700  0.25500  Biso   1.000  H
  H115     1.0000 0.04900  0.45300  0.75500  Biso   1.000  H
  H116     1.0000 0.54900  0.95300  0.74500  Biso   1.000  H
