data_image0
_cell_length_a       6.225
_cell_length_b       7.009
_cell_length_c       15.469
_cell_angle_alpha    90.73
_cell_angle_beta     97.41
_cell_angle_gamma    98.39

_symmetry_space_group_name_H-M    "P 1"
_symmetry_int_tables_number       1

loop_
  _symmetry_equiv_pos_as_xyz
  'x, y, z'

loop_
  _atom_site_label
  _atom_site_occupancy
  _atom_site_fract_x
  _atom_site_fract_y
  _atom_site_fract_z
  _atom_site_thermal_displace_type
  _atom_site_B_iso_or_equiv
  _atom_site_type_symbol
  Cu1      1.0000 0.50000  0.50000  0.00000  Biso   1.000  Cu
  Cu2      1.0000 0.08596  0.53415  0.23740  Biso   1.000  Cu
  Cu3      1.0000 0.91404  0.46585  0.76260  Biso   1.000  Cu
  P1       1.0000 0.57449  0.57947  0.19932  Biso   1.000  P
  P2       1.0000 0.42551  0.42053  0.80068  Biso   1.000  P
  P3       1.0000 0.28412  0.80233  0.09133  Biso   1.000  P
  P4       1.0000 0.71588  0.19767  0.90867  Biso   1.000  P
  O1       1.0000 0.53170  0.44110  0.12160  Biso   1.000  O
  O2       1.0000 0.46830  0.55890  0.87840  Biso   1.000  O
  O3       1.0000 0.01670  0.29820  0.13880  Biso   1.000  O
  O4       1.0000 0.98330  0.70180  0.86120  Biso   1.000  O
  H1       1.0000 0.12130  0.24820  0.11390  Biso   1.000  H
  H2       1.0000 0.87870  0.75180  0.88610  Biso   1.000  H
  H3       1.0000 0.92410  0.36010  0.10320  Biso   1.000  H
  H4       1.0000 0.07590  0.63990  0.89680  Biso   1.000  H
  O5       1.0000 0.40200  0.53970  0.26120  Biso   1.000  O
  O6       1.0000 0.59800  0.46030  0.73880  Biso   1.000  O
  O7       1.0000 0.80090  0.59340  0.25050  Biso   1.000  O
  O8       1.0000 0.19910  0.40660  0.74950  Biso   1.000  O
  O9       1.0000 0.28030  0.67000  0.01390  Biso   1.000  O
  O10      1.0000 0.71970  0.33000  0.98610  Biso   1.000  O
  O11      1.0000 0.11520  0.74770  0.15290  Biso   1.000  O
  O12      1.0000 0.88480  0.25230  0.84710  Biso   1.000  O
  O13      1.0000 0.25050  0.00800  0.05980  Biso   1.000  O
  O14      1.0000 0.74950  0.99200  0.94020  Biso   1.000  O
  H5       1.0000 0.27490  0.01850  0.00050  Biso   1.000  H
  H6       1.0000 0.72510  0.98150  0.99950  Biso   1.000  H
  O15      1.0000 0.71230  0.84930  0.09240  Biso   1.000  O
  O16      1.0000 0.28770  0.15070  0.90760  Biso   1.000  O
  H7       1.0000 0.85560  0.84580  0.12160  Biso   1.000  H
  H8       1.0000 0.14440  0.15420  0.87840  Biso   1.000  H
  C1       1.0000 0.55490  0.81670  0.15440  Biso   1.000  C
  C2       1.0000 0.44510  0.18330  0.84560  Biso   1.000  C
  C3       1.0000 0.59740  0.97980  0.22480  Biso   1.000  C
  C4       1.0000 0.40260  0.02020  0.77520  Biso   1.000  C
  H9       1.0000 0.74110  0.98250  0.25650  Biso   1.000  H
  H10      1.0000 0.25890  0.01750  0.74350  Biso   1.000  H
  H11      1.0000 0.49000  0.95750  0.26420  Biso   1.000  H
  H12      1.0000 0.51000  0.04250  0.73580  Biso   1.000  H
  H13      1.0000 0.58780  0.10120  0.19760  Biso   1.000  H
  H14      1.0000 0.41220  0.89880  0.80240  Biso   1.000  H
  N1       1.0000 0.05930  0.34660  0.33520  Biso   1.000  N
  N2       1.0000 0.94070  0.65340  0.66480  Biso   1.000  N
  C5       1.0000 0.94190  0.36930  0.39990  Biso   1.000  C
  C6       1.0000 0.05810  0.63070  0.60010  Biso   1.000  C
  H15      1.0000 0.87340  0.48320  0.40150  Biso   1.000  H
  H16      1.0000 0.12660  0.51680  0.59850  Biso   1.000  H
  C7       1.0000 0.91380  0.23870  0.46450  Biso   1.000  C
  C8       1.0000 0.08620  0.76130  0.53550  Biso   1.000  C
  H17      1.0000 0.82680  0.26200  0.50930  Biso   1.000  H
  H18      1.0000 0.17320  0.73800  0.49070  Biso   1.000  H
  C9       1.0000 0.01230  0.07170  0.46460  Biso   1.000  C
  C10      1.0000 0.98770  0.92830  0.53540  Biso   1.000  C
  C11      1.0000 0.13560  0.04920  0.39670  Biso   1.000  C
  C12      1.0000 0.86440  0.95080  0.60330  Biso   1.000  C
  H19      1.0000 0.20750  0.93770  0.39340  Biso   1.000  H
  H20      1.0000 0.79250  0.06230  0.60660  Biso   1.000  H
  C13      1.0000 0.15340  0.18740  0.33480  Biso   1.000  C
  C14      1.0000 0.84660  0.81260  0.66520  Biso   1.000  C
  H21      1.0000 0.23820  0.16830  0.28860  Biso   1.000  H
  H22      1.0000 0.76180  0.83170  0.71140  Biso   1.000  H
  N3       1.0000 0.94440  0.65350  0.66390  Biso   1.000  N
  N4       1.0000 0.05560  0.34650  0.33610  Biso   1.000  N
  C15      1.0000 0.10630  0.66250  0.61470  Biso   1.000  C
  C16      1.0000 0.89370  0.33750  0.38530  Biso   1.000  C
  H23      1.0000 0.20830  0.57230  0.62480  Biso   1.000  H
  H24      1.0000 0.79170  0.42770  0.37520  Biso   1.000  H
  C17      1.0000 0.13500  0.79360  0.55040  Biso   1.000  C
  C18      1.0000 0.86500  0.20640  0.44960  Biso   1.000  C
  H25      1.0000 0.25400  0.79310  0.51670  Biso   1.000  H
  H26      1.0000 0.74600  0.20690  0.48330  Biso   1.000  H
  C19      1.0000 0.99020  0.92800  0.53430  Biso   1.000  C
  C20      1.0000 0.00980  0.07200  0.46570  Biso   1.000  C
  C21      1.0000 0.82140  0.91790  0.58630  Biso   1.000  C
  C22      1.0000 0.17860  0.08210  0.41370  Biso   1.000  C
  H27      1.0000 0.71700  0.00660  0.57850  Biso   1.000  H
  H28      1.0000 0.28300  0.99340  0.42150  Biso   1.000  H
  C23      1.0000 0.80520  0.78080  0.64880  Biso   1.000  C
  C24      1.0000 0.19480  0.21920  0.35120  Biso   1.000  C
  H29      1.0000 0.68740  0.77630  0.68340  Biso   1.000  H
  H30      1.0000 0.31260  0.22370  0.31660  Biso   1.000  H
  O17      1.0000 0.50950  0.69600  0.43000  Biso   1.000  O
  O18      1.0000 0.49050  0.30400  0.57000  Biso   1.000  O
  O19      1.0000 0.50400  0.62600  0.44240  Biso   1.000  O
  O20      1.0000 0.49600  0.37400  0.55760  Biso   1.000  O
