data_image0
_cell_length_a       6.2097
_cell_length_b       7.0149
_cell_length_c       16.081
_cell_angle_alpha    99.085
_cell_angle_beta     94.852
_cell_angle_gamma    97.937

_symmetry_space_group_name_H-M    "P 1"
_symmetry_int_tables_number       1

loop_
  _symmetry_equiv_pos_as_xyz
  'x, y, z'

loop_
  _atom_site_label
  _atom_site_occupancy
  _atom_site_fract_x
  _atom_site_fract_y
  _atom_site_fract_z
  _atom_site_thermal_displace_type
  _atom_site_B_iso_or_equiv
  _atom_site_type_symbol
  Cu1      1.0000 0.50000  0.50000  0.50000  Biso   1.000  Cu
  Cu2      1.0000 0.07574  0.61069  0.73167  Biso   1.000  Cu
  Cu3      1.0000 0.92426  0.38931  0.26833  Biso   1.000  Cu
  P1       1.0000 0.27910  0.83113  0.58921  Biso   1.000  P
  P2       1.0000 0.72090  0.16887  0.41079  Biso   1.000  P
  P3       1.0000 0.56558  0.64245  0.69394  Biso   1.000  P
  P4       1.0000 0.43442  0.35755  0.30606  Biso   1.000  P
  O1       1.0000 0.27770  0.67280  0.51430  Biso   1.000  O
  O2       1.0000 0.72230  0.32720  0.48570  Biso   1.000  O
  O3       1.0000 0.01010  0.34570  0.63480  Biso   1.000  O
  O4       1.0000 0.98990  0.65430  0.36520  Biso   1.000  O
  H1       1.0000 0.14270  0.31030  0.61630  Biso   1.000  H
  H2       1.0000 0.85730  0.68970  0.38370  Biso   1.000  H
  H3       1.0000 0.91240  0.37020  0.59040  Biso   1.000  H
  H4       1.0000 0.08760  0.62980  0.40960  Biso   1.000  H
  O5       1.0000 0.10910  0.79960  0.64910  Biso   1.000  O
  O6       1.0000 0.89090  0.20040  0.35090  Biso   1.000  O
  O7       1.0000 0.24540  0.02770  0.55870  Biso   1.000  O
  O8       1.0000 0.75460  0.97230  0.44130  Biso   1.000  O
  H5       1.0000 0.29050  0.02740  0.50700  Biso   1.000  H
  H6       1.0000 0.70950  0.97260  0.49300  Biso   1.000  H
  O9       1.0000 0.53010  0.47930  0.61860  Biso   1.000  O
  O10      1.0000 0.46990  0.52070  0.38140  Biso   1.000  O
  O11      1.0000 0.38930  0.62480  0.75401  Biso   1.000  O
  O12      1.0000 0.61070  0.37520  0.24599  Biso   1.000  O
  O13      1.0000 0.78780  0.67250  0.74390  Biso   1.000  O
  O14      1.0000 0.21220  0.32750  0.25610  Biso   1.000  O
  O15      1.0000 0.70490  0.87180  0.58790  Biso   1.000  O
  O16      1.0000 0.29510  0.12820  0.41210  Biso   1.000  O
  H7       1.0000 0.84000  0.88200  0.61300  Biso   1.000  H
  H8       1.0000 0.16000  0.11800  0.38700  Biso   1.000  H
  N1       1.0000 0.92700  0.05130  0.99360  Biso   1.000  N
  N2       1.0000 0.07300  0.94870  0.00640  Biso   1.000  N
  N3       1.0000 0.91560  0.00810  0.97460  Biso   1.000  N
  N4       1.0000 0.08440  0.99190  0.02540  Biso   1.000  N
  C1       1.0000 0.54800  0.86610  0.65000  Biso   1.000  C
  C2       1.0000 0.45200  0.13390  0.35000  Biso   1.000  C
  C3       1.0000 0.58940  0.05000  0.71620  Biso   1.000  C
  C4       1.0000 0.41060  0.95000  0.28380  Biso   1.000  C
  H9       1.0000 0.57840  0.16140  0.68920  Biso   1.000  H
  H10      1.0000 0.42160  0.83860  0.31080  Biso   1.000  H
  H11      1.0000 0.73320  0.06290  0.74550  Biso   1.000  H
  H12      1.0000 0.26680  0.93710  0.25450  Biso   1.000  H
  H13      1.0000 0.48270  0.04220  0.75590  Biso   1.000  H
  H14      1.0000 0.51730  0.95780  0.24410  Biso   1.000  H
  N5       1.0000 0.04840  0.45850  0.83070  Biso   1.000  N
  N6       1.0000 0.95160  0.54150  0.16930  Biso   1.000  N
  C5       1.0000 0.18370  0.32780  0.83960  Biso   1.000  C
  C6       1.0000 0.81630  0.67220  0.16040  Biso   1.000  C
  H15      1.0000 0.30640  0.32810  0.80710  Biso   1.000  H
  H16      1.0000 0.69360  0.67190  0.19290  Biso   1.000  H
  C7       1.0000 0.15560  0.19410  0.89270  Biso   1.000  C
  C8       1.0000 0.84440  0.80590  0.10730  Biso   1.000  C
  H17      1.0000 0.25560  0.10240  0.89690  Biso   1.000  H
  H18      1.0000 0.74440  0.89760  0.10310  Biso   1.000  H
  C9       1.0000 0.97900  0.19380  0.94040  Biso   1.000  C
  C10      1.0000 0.02100  0.80620  0.05960  Biso   1.000  C
  C11      1.0000 0.83830  0.32770  0.93140  Biso   1.000  C
  C12      1.0000 0.16170  0.67230  0.06860  Biso   1.000  C
  H19      1.0000 0.71290  0.32940  0.96240  Biso   1.000  H
  H20      1.0000 0.28710  0.67060  0.03760  Biso   1.000  H
  C13      1.0000 0.88090  0.45770  0.87760  Biso   1.000  C
  C14      1.0000 0.11910  0.54230  0.12240  Biso   1.000  C
  H21      1.0000 0.78560  0.55320  0.87340  Biso   1.000  H
  H22      1.0000 0.21440  0.44680  0.12660  Biso   1.000  H
  N7       1.0000 0.03010  0.42310  0.81770  Biso   1.000  N
  N8       1.0000 0.96990  0.57690  0.18230  Biso   1.000  N
  C15      1.0000 0.16020  0.28620  0.82090  Biso   1.000  C
  C16      1.0000 0.83980  0.71380  0.17910  Biso   1.000  C
  H23      1.0000 0.27710  0.28500  0.78550  Biso   1.000  H
  H24      1.0000 0.72290  0.71500  0.21450  Biso   1.000  H
  C17      1.0000 0.13460  0.14840  0.87210  Biso   1.000  C
  C18      1.0000 0.86540  0.85160  0.12790  Biso   1.000  C
  H25      1.0000 0.23080  0.05230  0.87230  Biso   1.000  H
  H26      1.0000 0.76920  0.94770  0.12770  Biso   1.000  H
  C19      1.0000 0.96660  0.15020  0.92410  Biso   1.000  C
  C20      1.0000 0.03340  0.84980  0.07590  Biso   1.000  C
  C21      1.0000 0.83120  0.29050  0.92090  Biso   1.000  C
  C22      1.0000 0.16880  0.70950  0.07910  Biso   1.000  C
  H27      1.0000 0.71150  0.29390  0.95490  Biso   1.000  H
  H28      1.0000 0.28850  0.70610  0.04510  Biso   1.000  H
  C23      1.0000 0.87080  0.42420  0.86850  Biso   1.000  C
  C24      1.0000 0.12920  0.57580  0.13150  Biso   1.000  C
  H29      1.0000 0.77950  0.52400  0.86830  Biso   1.000  H
  H30      1.0000 0.22050  0.47600  0.13170  Biso   1.000  H
  O17      1.0000 0.50200  0.25200  0.07040  Biso   1.000  O
  O18      1.0000 0.49800  0.74800  0.92960  Biso   1.000  O
  O19      1.0000 0.54050  0.18650  0.07700  Biso   1.000  O
  O20      1.0000 0.45950  0.81350  0.92300  Biso   1.000  O
