data_image0
_cell_length_a       8.6483
_cell_length_b       8.8062
_cell_length_c       13.9356
_cell_angle_alpha    80.832
_cell_angle_beta     73.214
_cell_angle_gamma    89.594

_symmetry_space_group_name_H-M    "P 1"
_symmetry_int_tables_number       1

loop_
  _symmetry_equiv_pos_as_xyz
  'x, y, z'

loop_
  _atom_site_label
  _atom_site_occupancy
  _atom_site_fract_x
  _atom_site_fract_y
  _atom_site_fract_z
  _atom_site_thermal_displace_type
  _atom_site_B_iso_or_equiv
  _atom_site_type_symbol
  C1       1.0000 0.86530  0.60549  0.32858  Biso   1.000  C
  C2       1.0000 0.13470  0.39451  0.67142  Biso   1.000  C
  C3       1.0000 0.90400  0.65735  0.41816  Biso   1.000  C
  C4       1.0000 0.09600  0.34265  0.58184  Biso   1.000  C
  C5       1.0000 0.82780  0.60370  0.51958  Biso   1.000  C
  C6       1.0000 0.17220  0.39630  0.48042  Biso   1.000  C
  H1       1.0000 0.74170  0.53180  0.53900  Biso   1.000  H
  H2       1.0000 0.25830  0.46820  0.46100  Biso   1.000  H
  C7       1.0000 0.88340  0.66010  0.59173  Biso   1.000  C
  C8       1.0000 0.11660  0.33990  0.40827  Biso   1.000  C
  H3       1.0000 0.83320  0.62690  0.66050  Biso   1.000  H
  H4       1.0000 0.16680  0.37310  0.33950  Biso   1.000  H
  C9       1.0000 0.01380  0.76590  0.56161  Biso   1.000  C
  C10      1.0000 0.98620  0.23410  0.43839  Biso   1.000  C
  H5       1.0000 0.05420  0.80150  0.60930  Biso   1.000  H
  H6       1.0000 0.94580  0.19850  0.39070  Biso   1.000  H
  C11      1.0000 0.08187  0.81692  0.45860  Biso   1.000  C
  C12      1.0000 0.91813  0.18308  0.54140  Biso   1.000  C
  C13      1.0000 0.21950  0.93596  0.41159  Biso   1.000  C
  C14      1.0000 0.78050  0.06404  0.58841  Biso   1.000  C
  C15      1.0000 0.35970  0.79061  0.07511  Biso   1.000  C
  C16      1.0000 0.64030  0.20939  0.92489  Biso   1.000  C
  C17      1.0000 0.27259  0.92937  0.03939  Biso   1.000  C
  C18      1.0000 0.72741  0.07063  0.96061  Biso   1.000  C
  C19      1.0000 0.30900  0.00490  0.93986  Biso   1.000  C
  C20      1.0000 0.69100  0.99510  0.06014  Biso   1.000  C
  H7       1.0000 0.39000  0.97090  0.88880  Biso   1.000  H
  H8       1.0000 0.61000  0.02910  0.11120  Biso   1.000  H
  C21      1.0000 0.22230  0.13210  0.91799  Biso   1.000  C
  C22      1.0000 0.77770  0.86790  0.08201  Biso   1.000  C
  H9       1.0000 0.24510  0.18470  0.85180  Biso   1.000  H
  H10      1.0000 0.75490  0.81530  0.14820  Biso   1.000  H
  C23      1.0000 0.10150  0.18093  0.99513  Biso   1.000  C
  C24      1.0000 0.89850  0.81907  0.00487  Biso   1.000  C
  H11      1.0000 0.04300  0.26660  0.98160  Biso   1.000  H
  H12      1.0000 0.95700  0.73340  0.01840  Biso   1.000  H
  C25      1.0000 0.06989  0.09966  0.09236  Biso   1.000  C
  C26      1.0000 0.93011  0.90034  0.90764  Biso   1.000  C
  C27      1.0000 0.93650  0.13429  0.18332  Biso   1.000  C
  C28      1.0000 0.06350  0.86571  0.81668  Biso   1.000  C
  Ca1      1.0000 0.63278  0.38210  0.25076  Biso   1.000  Ca
  Ca2      1.0000 0.36722  0.61790  0.74924  Biso   1.000  Ca
  Cu1      1.0000 0.09952  0.86156  0.24998  Biso   1.000  Cu
  Cu2      1.0000 0.90048  0.13844  0.75002  Biso   1.000  Cu
  H13      1.0000 0.44900  0.26200  0.13850  Biso   1.000  H
  H14      1.0000 0.55100  0.73800  0.86150  Biso   1.000  H
  H15      1.0000 0.73200  0.50900  0.02880  Biso   1.000  H
  H16      1.0000 0.26800  0.49100  0.97120  Biso   1.000  H
  H17      1.0000 0.41600  0.63700  0.25130  Biso   1.000  H
  H18      1.0000 0.58400  0.36300  0.74870  Biso   1.000  H
  H19      1.0000 0.60300  0.17000  0.44200  Biso   1.000  H
  H20      1.0000 0.39700  0.83000  0.55800  Biso   1.000  H
  H21      1.0000 0.36500  0.16200  0.24200  Biso   1.000  H
  H22      1.0000 0.63500  0.83800  0.75800  Biso   1.000  H
  H23      1.0000 0.59500  0.57400  0.06400  Biso   1.000  H
  H24      1.0000 0.40500  0.42600  0.93600  Biso   1.000  H
  H25      1.0000 0.52000  0.66900  0.31200  Biso   1.000  H
  H26      1.0000 0.48000  0.33100  0.68800  Biso   1.000  H
  H27      1.0000 0.45200  0.13600  0.42400  Biso   1.000  H
  H28      1.0000 0.54800  0.86400  0.57600  Biso   1.000  H
  N1       1.0000 0.02526  0.76305  0.38993  Biso   1.000  N
  N2       1.0000 0.97474  0.23695  0.61007  Biso   1.000  N
  N3       1.0000 0.15493  0.97649  0.11298  Biso   1.000  N
  N4       1.0000 0.84507  0.02351  0.88702  Biso   1.000  N
  O1       1.0000 0.93853  0.68024  0.24270  Biso   1.000  O
  O2       1.0000 0.06147  0.31976  0.75730  Biso   1.000  O
  O3       1.0000 0.76971  0.49306  0.34590  Biso   1.000  O
  O4       1.0000 0.23029  0.50694  0.65410  Biso   1.000  O
  O5       1.0000 0.24570  0.98406  0.31789  Biso   1.000  O
  O6       1.0000 0.75430  0.01594  0.68211  Biso   1.000  O
  O7       1.0000 0.29571  0.97632  0.46698  Biso   1.000  O
  O8       1.0000 0.70429  0.02368  0.53302  Biso   1.000  O
  O9       1.0000 0.30623  0.73815  0.16937  Biso   1.000  O
  O10      1.0000 0.69377  0.26185  0.83063  Biso   1.000  O
  O11      1.0000 0.47271  0.74155  0.01272  Biso   1.000  O
  O12      1.0000 0.52729  0.25845  0.98728  Biso   1.000  O
  O13      1.0000 0.91096  0.03762  0.26318  Biso   1.000  O
  O14      1.0000 0.08904  0.96238  0.73682  Biso   1.000  O
  O15      1.0000 0.86202  0.25498  0.17144  Biso   1.000  O
  O16      1.0000 0.13798  0.74502  0.82856  Biso   1.000  O
  O17      1.0000 0.43652  0.24369  0.20701  Biso   1.000  O
  O18      1.0000 0.56348  0.75631  0.79299  Biso   1.000  O
  O19      1.0000 0.66158  0.51372  0.08680  Biso   1.000  O
  O20      1.0000 0.33842  0.48628  0.91320  Biso   1.000  O
  O21      1.0000 0.47038  0.59308  0.29332  Biso   1.000  O
  O22      1.0000 0.52962  0.40692  0.70668  Biso   1.000  O
  O23      1.0000 0.54261  0.20012  0.39993  Biso   1.000  O
  O24      1.0000 0.45739  0.79988  0.60007  Biso   1.000  O
  H29      1.0000 0.53600  0.91000  0.37200  Biso   1.000  H
  H30      1.0000 0.46400  0.09000  0.62800  Biso   1.000  H
  H31      1.0000 0.70800  0.89500  0.33000  Biso   1.000  H
  H32      1.0000 0.29200  0.10500  0.67000  Biso   1.000  H
  O25      1.0000 0.61060  0.85110  0.34028  Biso   1.000  O
  O26      1.0000 0.38940  0.14890  0.65972  Biso   1.000  O
  H33      1.0000 0.82800  0.54600  0.86990  Biso   1.000  H
  H34      1.0000 0.17200  0.45400  0.13010  Biso   1.000  H
  H35      1.0000 0.97600  0.57400  0.87800  Biso   1.000  H
  H36      1.0000 0.02400  0.42600  0.12200  Biso   1.000  H
  O27      1.0000 0.89230  0.49510  0.90787  Biso   1.000  O
  O28      1.0000 0.10770  0.50490  0.09213  Biso   1.000  O
