data_image0
_cell_length_a       9.7204
_cell_length_b       23.495
_cell_length_c       14.541
_cell_angle_alpha    90
_cell_angle_beta     107.578
_cell_angle_gamma    90

_symmetry_space_group_name_H-M    "P 1"
_symmetry_int_tables_number       1

loop_
  _symmetry_equiv_pos_as_xyz
  'x, y, z'

loop_
  _atom_site_label
  _atom_site_occupancy
  _atom_site_fract_x
  _atom_site_fract_y
  _atom_site_fract_z
  _atom_site_thermal_displace_type
  _atom_site_B_iso_or_equiv
  _atom_site_type_symbol
  Cu1      1.0000 0.59362  0.08903  0.74915  Biso   1.000  Cu
  Cu2      1.0000 0.59362  0.41097  0.24915  Biso   1.000  Cu
  Cu3      1.0000 0.40638  0.91097  0.25085  Biso   1.000  Cu
  Cu4      1.0000 0.40638  0.58903  0.75085  Biso   1.000  Cu
  Cu5      1.0000 0.91325  0.16962  0.72721  Biso   1.000  Cu
  Cu6      1.0000 0.91325  0.33038  0.22721  Biso   1.000  Cu
  Cu7      1.0000 0.08675  0.83038  0.27279  Biso   1.000  Cu
  Cu8      1.0000 0.08675  0.66962  0.77279  Biso   1.000  Cu
  Cu9      1.0000 0.25229  0.13049  0.73356  Biso   1.000  Cu
  Cu10     1.0000 0.25229  0.36951  0.23356  Biso   1.000  Cu
  Cu11     1.0000 0.74771  0.86951  0.26644  Biso   1.000  Cu
  Cu12     1.0000 0.74771  0.63049  0.76644  Biso   1.000  Cu
  Cl1      1.0000 0.47668  0.09672  0.86343  Biso   1.000  Cl
  Cl2      1.0000 0.47668  0.40328  0.36343  Biso   1.000  Cl
  Cl3      1.0000 0.52332  0.90328  0.13657  Biso   1.000  Cl
  Cl4      1.0000 0.52332  0.59672  0.63657  Biso   1.000  Cl
  Cl5      1.0000 0.43069  0.15234  0.65199  Biso   1.000  Cl
  Cl6      1.0000 0.43069  0.34766  0.15199  Biso   1.000  Cl
  Cl7      1.0000 0.56931  0.84766  0.34801  Biso   1.000  Cl
  Cl8      1.0000 0.56931  0.65234  0.84801  Biso   1.000  Cl
  Cl9      1.0000 0.71926  0.08241  0.64265  Biso   1.000  Cl
  Cl10     1.0000 0.71926  0.41759  0.14265  Biso   1.000  Cl
  Cl11     1.0000 0.28074  0.91759  0.35735  Biso   1.000  Cl
  Cl12     1.0000 0.28074  0.58241  0.85735  Biso   1.000  Cl
  Cl13     1.0000 0.02576  0.16361  0.60900  Biso   1.000  Cl
  Cl14     1.0000 0.02576  0.33639  0.10900  Biso   1.000  Cl
  Cl15     1.0000 0.97424  0.83639  0.39100  Biso   1.000  Cl
  Cl16     1.0000 0.97424  0.66361  0.89100  Biso   1.000  Cl
  Cl17     1.0000 0.07723  0.10545  0.81877  Biso   1.000  Cl
  Cl18     1.0000 0.07723  0.39455  0.31877  Biso   1.000  Cl
  Cl19     1.0000 0.92277  0.89455  0.18123  Biso   1.000  Cl
  Cl20     1.0000 0.92277  0.60545  0.68123  Biso   1.000  Cl
  Cl21     1.0000 0.79360  0.17535  0.83792  Biso   1.000  Cl
  Cl22     1.0000 0.79360  0.32465  0.33792  Biso   1.000  Cl
  Cl23     1.0000 0.20640  0.82465  0.16208  Biso   1.000  Cl
  Cl24     1.0000 0.20640  0.67535  0.66208  Biso   1.000  Cl
  N1       1.0000 0.13440  0.97443  0.59920  Biso   1.000  N
  N2       1.0000 0.13440  0.52557  0.09920  Biso   1.000  N
  N3       1.0000 0.86560  0.02557  0.40080  Biso   1.000  N
  N4       1.0000 0.86560  0.47443  0.90080  Biso   1.000  N
  N5       1.0000 0.27670  0.97471  0.62630  Biso   1.000  N
  N6       1.0000 0.27670  0.52529  0.12630  Biso   1.000  N
  N7       1.0000 0.72330  0.02529  0.37370  Biso   1.000  N
  N8       1.0000 0.72330  0.47471  0.87370  Biso   1.000  N
  N9       1.0000 0.33550  0.02146  0.66951  Biso   1.000  N
  N10      1.0000 0.33550  0.47854  0.16951  Biso   1.000  N
  N11      1.0000 0.66450  0.97854  0.33049  Biso   1.000  N
  N12      1.0000 0.66450  0.52146  0.83049  Biso   1.000  N
  N13      1.0000 0.22520  0.05413  0.67148  Biso   1.000  N
  N14      1.0000 0.22520  0.44587  0.17148  Biso   1.000  N
  N15      1.0000 0.77480  0.94587  0.32852  Biso   1.000  N
  N16      1.0000 0.77480  0.55413  0.82852  Biso   1.000  N
  C1       1.0000 0.10580  0.02475  0.62850  Biso   1.000  C
  C2       1.0000 0.10580  0.47525  0.12850  Biso   1.000  C
  C3       1.0000 0.89420  0.97525  0.37150  Biso   1.000  C
  C4       1.0000 0.89420  0.52475  0.87150  Biso   1.000  C
  H1       1.0000 0.01290  0.03830  0.62010  Biso   1.000  H
  H2       1.0000 0.01290  0.46170  0.12010  Biso   1.000  H
  H3       1.0000 0.98710  0.96170  0.37990  Biso   1.000  H
  H4       1.0000 0.98710  0.53830  0.87990  Biso   1.000  H
  C5       1.0000 0.36390  0.92579  0.61280  Biso   1.000  C
  C6       1.0000 0.36390  0.57421  0.11280  Biso   1.000  C
  C7       1.0000 0.63610  0.07421  0.38720  Biso   1.000  C
  C8       1.0000 0.63610  0.42579  0.88720  Biso   1.000  C
  H5       1.0000 0.33960  0.91690  0.54470  Biso   1.000  H
  H6       1.0000 0.33960  0.58310  0.04470  Biso   1.000  H
  H7       1.0000 0.66040  0.08310  0.45530  Biso   1.000  H
  H8       1.0000 0.66040  0.41690  0.95530  Biso   1.000  H
  H9       1.0000 0.46540  0.93580  0.63560  Biso   1.000  H
  H10      1.0000 0.46540  0.56420  0.13560  Biso   1.000  H
  H11      1.0000 0.53460  0.06420  0.36440  Biso   1.000  H
  H12      1.0000 0.53460  0.43580  0.86440  Biso   1.000  H
  C9       1.0000 0.33860  0.87590  0.66500  Biso   1.000  C
  C10      1.0000 0.33860  0.62410  0.16500  Biso   1.000  C
  C11      1.0000 0.66140  0.12410  0.33500  Biso   1.000  C
  C12      1.0000 0.66140  0.37590  0.83500  Biso   1.000  C
  H13      1.0000 0.36440  0.88020  0.73170  Biso   1.000  H
  H14      1.0000 0.36440  0.61980  0.23170  Biso   1.000  H
  H15      1.0000 0.63560  0.11980  0.26830  Biso   1.000  H
  H16      1.0000 0.63560  0.38020  0.76830  Biso   1.000  H
  C13      1.0000 0.28950  0.82990  0.63550  Biso   1.000  C
  C14      1.0000 0.28950  0.67010  0.13550  Biso   1.000  C
  C15      1.0000 0.71050  0.17010  0.36450  Biso   1.000  C
  C16      1.0000 0.71050  0.32990  0.86450  Biso   1.000  C
  H17      1.0000 0.26110  0.82230  0.56970  Biso   1.000  H
  H18      1.0000 0.26110  0.67770  0.06970  Biso   1.000  H
  H19      1.0000 0.73890  0.17770  0.43030  Biso   1.000  H
  H20      1.0000 0.73890  0.32230  0.93030  Biso   1.000  H
  H21      1.0000 0.28000  0.80200  0.67870  Biso   1.000  H
  H22      1.0000 0.28000  0.69800  0.17870  Biso   1.000  H
  H23      1.0000 0.72000  0.19800  0.32130  Biso   1.000  H
  H24      1.0000 0.72000  0.30200  0.82130  Biso   1.000  H
  N17      1.0000 0.37960  0.28023  0.88680  Biso   1.000  N
  N18      1.0000 0.37960  0.21977  0.38680  Biso   1.000  N
  N19      1.0000 0.62040  0.71977  0.11320  Biso   1.000  N
  N20      1.0000 0.62040  0.78023  0.61320  Biso   1.000  N
  N21      1.0000 0.23740  0.27955  0.86500  Biso   1.000  N
  N22      1.0000 0.23740  0.22045  0.36500  Biso   1.000  N
  N23      1.0000 0.76260  0.72045  0.13500  Biso   1.000  N
  N24      1.0000 0.76260  0.77955  0.63500  Biso   1.000  N
  N25      1.0000 0.17530  0.23598  0.81332  Biso   1.000  N
  N26      1.0000 0.17530  0.26402  0.31332  Biso   1.000  N
  N27      1.0000 0.82470  0.76402  0.18668  Biso   1.000  N
  N28      1.0000 0.82470  0.73598  0.68668  Biso   1.000  N
  N29      1.0000 0.28180  0.20564  0.79990  Biso   1.000  N
  N30      1.0000 0.28180  0.29436  0.29990  Biso   1.000  N
  N31      1.0000 0.71820  0.79436  0.20010  Biso   1.000  N
  N32      1.0000 0.71820  0.70564  0.70010  Biso   1.000  N
  C17      1.0000 0.40410  0.23329  0.84440  Biso   1.000  C
  C18      1.0000 0.40410  0.26671  0.34440  Biso   1.000  C
  C19      1.0000 0.59590  0.76671  0.15560  Biso   1.000  C
  C20      1.0000 0.59590  0.73329  0.65560  Biso   1.000  C
  H25      1.0000 0.49540  0.22090  0.84540  Biso   1.000  H
  H26      1.0000 0.49540  0.27910  0.34540  Biso   1.000  H
  H27      1.0000 0.50460  0.77910  0.15460  Biso   1.000  H
  H28      1.0000 0.50460  0.72090  0.65460  Biso   1.000  H
  C21      1.0000 0.15590  0.32428  0.89640  Biso   1.000  C
  C22      1.0000 0.15590  0.17572  0.39640  Biso   1.000  C
  C23      1.0000 0.84410  0.67572  0.10360  Biso   1.000  C
  C24      1.0000 0.84410  0.82428  0.60360  Biso   1.000  C
  H29      1.0000 0.19130  0.32790  0.96610  Biso   1.000  H
  H30      1.0000 0.19130  0.17210  0.46610  Biso   1.000  H
  H31      1.0000 0.80870  0.67210  0.03390  Biso   1.000  H
  H32      1.0000 0.80870  0.82790  0.53390  Biso   1.000  H
  H33      1.0000 0.05480  0.31370  0.87880  Biso   1.000  H
  H34      1.0000 0.05480  0.18630  0.37880  Biso   1.000  H
  H35      1.0000 0.94520  0.68630  0.12120  Biso   1.000  H
  H36      1.0000 0.94520  0.81370  0.62120  Biso   1.000  H
  C25      1.0000 0.17070  0.38009  0.85100  Biso   1.000  C
  C26      1.0000 0.17070  0.11991  0.35100  Biso   1.000  C
  C27      1.0000 0.82930  0.61991  0.14900  Biso   1.000  C
  C28      1.0000 0.82930  0.88009  0.64900  Biso   1.000  C
  H37      1.0000 0.13590  0.38220  0.78410  Biso   1.000  H
  H38      1.0000 0.13590  0.11780  0.28410  Biso   1.000  H
  H39      1.0000 0.86410  0.61780  0.21590  Biso   1.000  H
  H40      1.0000 0.86410  0.88220  0.71590  Biso   1.000  H
  C29      1.0000 0.22490  0.42370  0.89450  Biso   1.000  C
  C30      1.0000 0.22490  0.07630  0.39450  Biso   1.000  C
  C31      1.0000 0.77510  0.57630  0.10550  Biso   1.000  C
  C32      1.0000 0.77510  0.92370  0.60550  Biso   1.000  C
  H41      1.0000 0.26100  0.42350  0.96140  Biso   1.000  H
  H42      1.0000 0.26100  0.07650  0.46140  Biso   1.000  H
  H43      1.0000 0.73900  0.57650  0.03860  Biso   1.000  H
  H44      1.0000 0.73900  0.92350  0.53860  Biso   1.000  H
  H45      1.0000 0.22960  0.45670  0.86020  Biso   1.000  H
  H46      1.0000 0.22960  0.04330  0.36020  Biso   1.000  H
  H47      1.0000 0.77040  0.54330  0.13980  Biso   1.000  H
  H48      1.0000 0.77040  0.95670  0.63980  Biso   1.000  H
  N33      1.0000 0.65830  0.30261  0.57690  Biso   1.000  N
  N34      1.0000 0.65830  0.19739  0.07690  Biso   1.000  N
  N35      1.0000 0.34170  0.69739  0.42310  Biso   1.000  N
  N36      1.0000 0.34170  0.80261  0.92310  Biso   1.000  N
  N37      1.0000 0.79200  0.32113  0.59997  Biso   1.000  N
  N38      1.0000 0.79200  0.17887  0.09997  Biso   1.000  N
  N39      1.0000 0.20800  0.67887  0.40003  Biso   1.000  N
  N40      1.0000 0.20800  0.82113  0.90003  Biso   1.000  N
  N41      1.0000 0.88630  0.28579  0.65000  Biso   1.000  N
  N42      1.0000 0.88630  0.21421  0.15000  Biso   1.000  N
  N43      1.0000 0.11370  0.71421  0.35000  Biso   1.000  N
  N44      1.0000 0.11370  0.78579  0.85000  Biso   1.000  N
  N45      1.0000 0.81350  0.24002  0.66037  Biso   1.000  N
  N46      1.0000 0.81350  0.25998  0.16037  Biso   1.000  N
  N47      1.0000 0.18650  0.75998  0.33963  Biso   1.000  N
  N48      1.0000 0.18650  0.74002  0.83963  Biso   1.000  N
  C33      1.0000 0.67720  0.25111  0.61590  Biso   1.000  C
  C34      1.0000 0.67720  0.24889  0.11590  Biso   1.000  C
  C35      1.0000 0.32280  0.74889  0.38410  Biso   1.000  C
  C36      1.0000 0.32280  0.75111  0.88410  Biso   1.000  C
  H49      1.0000 0.60230  0.22570  0.61220  Biso   1.000  H
  H50      1.0000 0.60230  0.27430  0.11220  Biso   1.000  H
  H51      1.0000 0.39770  0.77430  0.38780  Biso   1.000  H
  H52      1.0000 0.39770  0.72570  0.88780  Biso   1.000  H
  C37      1.0000 0.82890  0.37777  0.56990  Biso   1.000  C
  C38      1.0000 0.82890  0.12223  0.06990  Biso   1.000  C
  C39      1.0000 0.17110  0.62223  0.43010  Biso   1.000  C
  C40      1.0000 0.17110  0.87777  0.93010  Biso   1.000  C
  H53      1.0000 0.92990  0.37810  0.57280  Biso   1.000  H
  H54      1.0000 0.92990  0.12190  0.07280  Biso   1.000  H
  H55      1.0000 0.07010  0.62190  0.42720  Biso   1.000  H
  H56      1.0000 0.07010  0.87810  0.92720  Biso   1.000  H
  H57      1.0000 0.77210  0.38460  0.50350  Biso   1.000  H
  H58      1.0000 0.77210  0.11540  0.00350  Biso   1.000  H
  H59      1.0000 0.22790  0.61540  0.49650  Biso   1.000  H
  H60      1.0000 0.22790  0.88460  0.99650  Biso   1.000  H
  C41      1.0000 0.80200  0.42393  0.63130  Biso   1.000  C
  C42      1.0000 0.80200  0.07607  0.13130  Biso   1.000  C
  C43      1.0000 0.19800  0.57607  0.36870  Biso   1.000  C
  C44      1.0000 0.19800  0.92393  0.86870  Biso   1.000  C
  H61      1.0000 0.85180  0.42240  0.69690  Biso   1.000  H
  H62      1.0000 0.85180  0.07760  0.19690  Biso   1.000  H
  H63      1.0000 0.14820  0.57760  0.30310  Biso   1.000  H
  H64      1.0000 0.14820  0.92240  0.80310  Biso   1.000  H
  C45      1.0000 0.71730  0.46523  0.60230  Biso   1.000  C
  C46      1.0000 0.71730  0.03477  0.10230  Biso   1.000  C
  C47      1.0000 0.28270  0.53477  0.39770  Biso   1.000  C
  C48      1.0000 0.28270  0.96523  0.89770  Biso   1.000  C
  H65      1.0000 0.66550  0.46840  0.53730  Biso   1.000  H
  H66      1.0000 0.66550  0.03160  0.03730  Biso   1.000  H
  H67      1.0000 0.33450  0.53160  0.46270  Biso   1.000  H
  H68      1.0000 0.33450  0.96840  0.96270  Biso   1.000  H
  H69      1.0000 0.70660  0.49260  0.64580  Biso   1.000  H
  H70      1.0000 0.70660  0.00740  0.14580  Biso   1.000  H
  H71      1.0000 0.29340  0.50740  0.35420  Biso   1.000  H
  H72      1.0000 0.29340  0.99260  0.85420  Biso   1.000  H
  N49      1.0000 0.84910  0.95810  0.90890  Biso   1.000  N
  N50      1.0000 0.84910  0.54190  0.40890  Biso   1.000  N
  N51      1.0000 0.15090  0.04190  0.09110  Biso   1.000  N
  N52      1.0000 0.15090  0.45810  0.59110  Biso   1.000  N
  N53      1.0000 0.71450  0.94159  0.89316  Biso   1.000  N
  N54      1.0000 0.71450  0.55841  0.39316  Biso   1.000  N
  N55      1.0000 0.28550  0.05841  0.10684  Biso   1.000  N
  N56      1.0000 0.28550  0.44159  0.60684  Biso   1.000  N
  N57      1.0000 0.61880  0.97650  0.84140  Biso   1.000  N
  N58      1.0000 0.61880  0.52350  0.34140  Biso   1.000  N
  N59      1.0000 0.38120  0.02350  0.15860  Biso   1.000  N
  N60      1.0000 0.38120  0.47650  0.65860  Biso   1.000  N
  N61      1.0000 0.69340  0.01907  0.82051  Biso   1.000  N
  N62      1.0000 0.69340  0.48093  0.32051  Biso   1.000  N
  N63      1.0000 0.30660  0.98093  0.17949  Biso   1.000  N
  N64      1.0000 0.30660  0.51907  0.67949  Biso   1.000  N
  C49      1.0000 0.83110  0.00703  0.86150  Biso   1.000  C
  C50      1.0000 0.83110  0.49297  0.36150  Biso   1.000  C
  C51      1.0000 0.16890  0.99297  0.13850  Biso   1.000  C
  C52      1.0000 0.16890  0.50703  0.63850  Biso   1.000  C
  H73      1.0000 0.90660  0.03020  0.85750  Biso   1.000  H
  H74      1.0000 0.90660  0.46980  0.35750  Biso   1.000  H
  H75      1.0000 0.09340  0.96980  0.14250  Biso   1.000  H
  H76      1.0000 0.09340  0.53020  0.64250  Biso   1.000  H
  C53      1.0000 0.67490  0.88920  0.93500  Biso   1.000  C
  C54      1.0000 0.67490  0.61080  0.43500  Biso   1.000  C
  C55      1.0000 0.32510  0.11080  0.06500  Biso   1.000  C
  C56      1.0000 0.32510  0.38920  0.56500  Biso   1.000  C
  H77      1.0000 0.57110  0.88830  0.92270  Biso   1.000  H
  H78      1.0000 0.57110  0.61170  0.42270  Biso   1.000  H
  H79      1.0000 0.42890  0.11170  0.07730  Biso   1.000  H
  H80      1.0000 0.42890  0.38830  0.57730  Biso   1.000  H
  H81      1.0000 0.71960  0.88970  0.00440  Biso   1.000  H
  H82      1.0000 0.71960  0.61030  0.50440  Biso   1.000  H
  H83      1.0000 0.28040  0.11030  0.99560  Biso   1.000  H
  H84      1.0000 0.28040  0.38970  0.49560  Biso   1.000  H
  C57      1.0000 0.72080  0.83718  0.89450  Biso   1.000  C
  C58      1.0000 0.72080  0.66282  0.39450  Biso   1.000  C
  C59      1.0000 0.27920  0.16282  0.10550  Biso   1.000  C
  C60      1.0000 0.27920  0.33718  0.60550  Biso   1.000  C
  H85      1.0000 0.67650  0.83240  0.82870  Biso   1.000  H
  H86      1.0000 0.67650  0.66760  0.32870  Biso   1.000  H
  H87      1.0000 0.32350  0.16760  0.17130  Biso   1.000  H
  H88      1.0000 0.32350  0.33240  0.67130  Biso   1.000  H
  C61      1.0000 0.80270  0.80100  0.93010  Biso   1.000  C
  C62      1.0000 0.80270  0.69900  0.43010  Biso   1.000  C
  C63      1.0000 0.19730  0.19900  0.06990  Biso   1.000  C
  C64      1.0000 0.19730  0.30100  0.56990  Biso   1.000  C
  H89      1.0000 0.85210  0.80240  0.99570  Biso   1.000  H
  H90      1.0000 0.85210  0.69760  0.49570  Biso   1.000  H
  H91      1.0000 0.14790  0.19760  0.00430  Biso   1.000  H
  H92      1.0000 0.14790  0.30240  0.50430  Biso   1.000  H
  H93      1.0000 0.81830  0.77100  0.89270  Biso   1.000  H
  H94      1.0000 0.81830  0.72900  0.39270  Biso   1.000  H
  H95      1.0000 0.18170  0.22900  0.10730  Biso   1.000  H
  H96      1.0000 0.18170  0.27100  0.60730  Biso   1.000  H
