data_image0
_cell_length_a       9.7746
_cell_length_b       6.6812
_cell_length_c       9.8524
_cell_angle_alpha    90
_cell_angle_beta     92.311
_cell_angle_gamma    90

_symmetry_space_group_name_H-M    "P 1"
_symmetry_int_tables_number       1

loop_
  _symmetry_equiv_pos_as_xyz
  'x, y, z'

loop_
  _atom_site_label
  _atom_site_occupancy
  _atom_site_fract_x
  _atom_site_fract_y
  _atom_site_fract_z
  _atom_site_thermal_displace_type
  _atom_site_B_iso_or_equiv
  _atom_site_type_symbol
  Cu1      1.0000 0.50000  0.50000  0.50000  Biso   1.000  Cu
  Cu2      1.0000 0.50000  0.00000  0.00000  Biso   1.000  Cu
  N1       1.0000 0.41610  0.69197  0.62433  Biso   1.000  N
  N2       1.0000 0.58390  0.19197  0.87567  Biso   1.000  N
  N3       1.0000 0.58390  0.30803  0.37567  Biso   1.000  N
  N4       1.0000 0.41610  0.80803  0.12433  Biso   1.000  N
  N5       1.0000 0.45662  0.85303  0.69616  Biso   1.000  N
  N6       1.0000 0.54338  0.35303  0.80384  Biso   1.000  N
  N7       1.0000 0.54338  0.14697  0.30384  Biso   1.000  N
  N8       1.0000 0.45662  0.64697  0.19616  Biso   1.000  N
  N9       1.0000 0.27345  0.73290  0.79028  Biso   1.000  N
  N10      1.0000 0.72655  0.23290  0.70972  Biso   1.000  N
  N11      1.0000 0.72655  0.26710  0.20972  Biso   1.000  N
  N12      1.0000 0.27345  0.76710  0.29028  Biso   1.000  N
  C1       1.0000 0.30480  0.62280  0.68433  Biso   1.000  C
  C2       1.0000 0.69520  0.12280  0.81567  Biso   1.000  C
  C3       1.0000 0.69520  0.37720  0.31567  Biso   1.000  C
  C4       1.0000 0.30480  0.87720  0.18433  Biso   1.000  C
  N13      1.0000 0.37114  0.87680  0.79498  Biso   1.000  N
  N14      1.0000 0.62886  0.37680  0.70502  Biso   1.000  N
  N15      1.0000 0.62886  0.12320  0.20502  Biso   1.000  N
  N16      1.0000 0.37114  0.62320  0.29498  Biso   1.000  N
  N17      1.0000 0.33000  0.33897  0.54819  Biso   1.000  N
  N18      1.0000 0.67000  0.83897  0.95181  Biso   1.000  N
  N19      1.0000 0.67000  0.66103  0.45181  Biso   1.000  N
  N20      1.0000 0.33000  0.16103  0.04819  Biso   1.000  N
  C5       1.0000 0.29102  0.15940  0.50186  Biso   1.000  C
  C6       1.0000 0.70898  0.65940  0.99814  Biso   1.000  C
  C7       1.0000 0.70898  0.84060  0.49814  Biso   1.000  C
  C8       1.0000 0.29102  0.34060  0.00186  Biso   1.000  C
  H1       1.0000 0.34670  0.08960  0.44080  Biso   1.000  H
  H2       1.0000 0.65330  0.58960  0.05920  Biso   1.000  H
  H3       1.0000 0.65330  0.91040  0.55920  Biso   1.000  H
  H4       1.0000 0.34670  0.41040  0.94080  Biso   1.000  H
  C9       1.0000 0.24824  0.43230  0.63535  Biso   1.000  C
  C10      1.0000 0.75176  0.93230  0.86465  Biso   1.000  C
  C11      1.0000 0.75176  0.56770  0.36465  Biso   1.000  C
  C12      1.0000 0.24824  0.06770  0.13535  Biso   1.000  C
  N21      1.0000 0.08674  0.16500  0.62729  Biso   1.000  N
  N22      1.0000 0.91326  0.66500  0.87271  Biso   1.000  N
  N23      1.0000 0.91326  0.83500  0.37271  Biso   1.000  N
  N24      1.0000 0.08674  0.33500  0.12729  Biso   1.000  N
  C13      1.0000 0.16981  0.07370  0.54207  Biso   1.000  C
  C14      1.0000 0.83019  0.57370  0.95793  Biso   1.000  C
  C15      1.0000 0.83019  0.92630  0.45793  Biso   1.000  C
  C16      1.0000 0.16981  0.42630  0.04207  Biso   1.000  C
  H5       1.0000 0.14490  0.94530  0.50780  Biso   1.000  H
  H6       1.0000 0.85510  0.44530  0.99220  Biso   1.000  H
  H7       1.0000 0.85510  0.05470  0.49220  Biso   1.000  H
  H8       1.0000 0.14490  0.55470  0.00780  Biso   1.000  H
  C17      1.0000 0.12627  0.34630  0.67317  Biso   1.000  C
  C18      1.0000 0.87373  0.84630  0.82683  Biso   1.000  C
  C19      1.0000 0.87373  0.65370  0.32683  Biso   1.000  C
  C20      1.0000 0.12627  0.15370  0.17317  Biso   1.000  C
  H9       1.0000 0.06950  0.41710  0.73280  Biso   1.000  H
  H10      1.0000 0.93050  0.91710  0.76720  Biso   1.000  H
  H11      1.0000 0.93050  0.58290  0.26720  Biso   1.000  H
  H12      1.0000 0.06950  0.08290  0.23280  Biso   1.000  H
