data_image0
_cell_length_a       10.8633
_cell_length_b       15.3513
_cell_length_c       21.4333
_cell_angle_alpha    90
_cell_angle_beta     93.062
_cell_angle_gamma    90

_symmetry_space_group_name_H-M    "P 1"
_symmetry_int_tables_number       1

loop_
  _symmetry_equiv_pos_as_xyz
  'x, y, z'

loop_
  _atom_site_label
  _atom_site_occupancy
  _atom_site_fract_x
  _atom_site_fract_y
  _atom_site_fract_z
  _atom_site_thermal_displace_type
  _atom_site_B_iso_or_equiv
  _atom_site_type_symbol
  C1       1.0000 0.34890  0.70250  0.30080  Biso   1.000  C
  C2       1.0000 0.65110  0.20250  0.19920  Biso   1.000  C
  C3       1.0000 0.65110  0.29750  0.69920  Biso   1.000  C
  C4       1.0000 0.34890  0.79750  0.80080  Biso   1.000  C
  H1       1.0000 0.29170  0.67330  0.32640  Biso   1.000  H
  H2       1.0000 0.70830  0.17330  0.17360  Biso   1.000  H
  H3       1.0000 0.70830  0.32670  0.67360  Biso   1.000  H
  H4       1.0000 0.29170  0.82670  0.82640  Biso   1.000  H
  H5       1.0000 0.37690  0.75510  0.32120  Biso   1.000  H
  H6       1.0000 0.62310  0.25510  0.17880  Biso   1.000  H
  H7       1.0000 0.62310  0.24490  0.67880  Biso   1.000  H
  H8       1.0000 0.37690  0.74490  0.82120  Biso   1.000  H
  H9       1.0000 0.41800  0.66510  0.29470  Biso   1.000  H
  H10      1.0000 0.58200  0.16510  0.20530  Biso   1.000  H
  H11      1.0000 0.58200  0.33490  0.70530  Biso   1.000  H
  H12      1.0000 0.41800  0.83490  0.79470  Biso   1.000  H
  C5       1.0000 0.22680  0.64810  0.21490  Biso   1.000  C
  C6       1.0000 0.77320  0.14810  0.28510  Biso   1.000  C
  C7       1.0000 0.77320  0.35190  0.78510  Biso   1.000  C
  C8       1.0000 0.22680  0.85190  0.71490  Biso   1.000  C
  H13      1.0000 0.28460  0.60110  0.21250  Biso   1.000  H
  H14      1.0000 0.71540  0.10110  0.28750  Biso   1.000  H
  H15      1.0000 0.71540  0.39890  0.78750  Biso   1.000  H
  H16      1.0000 0.28460  0.89890  0.71250  Biso   1.000  H
  H17      1.0000 0.19290  0.66160  0.17370  Biso   1.000  H
  H18      1.0000 0.80710  0.16160  0.32630  Biso   1.000  H
  H19      1.0000 0.80710  0.33840  0.82630  Biso   1.000  H
  H20      1.0000 0.19290  0.83840  0.67370  Biso   1.000  H
  H21      1.0000 0.16160  0.63130  0.24090  Biso   1.000  H
  H22      1.0000 0.83840  0.13130  0.25910  Biso   1.000  H
  H23      1.0000 0.83840  0.36870  0.75910  Biso   1.000  H
  H24      1.0000 0.16160  0.86870  0.74090  Biso   1.000  H
  C9       1.0000 0.19420  0.78790  0.25150  Biso   1.000  C
  C10      1.0000 0.80580  0.28790  0.24850  Biso   1.000  C
  C11      1.0000 0.80580  0.21210  0.74850  Biso   1.000  C
  C12      1.0000 0.19420  0.71210  0.75150  Biso   1.000  C
  H25      1.0000 0.12070  0.76850  0.22780  Biso   1.000  H
  H26      1.0000 0.87930  0.26850  0.27220  Biso   1.000  H
  H27      1.0000 0.87930  0.23150  0.77220  Biso   1.000  H
  H28      1.0000 0.12070  0.73150  0.72780  Biso   1.000  H
  H29      1.0000 0.17630  0.78320  0.29530  Biso   1.000  H
  H30      1.0000 0.82370  0.28320  0.20470  Biso   1.000  H
  H31      1.0000 0.82370  0.21680  0.70470  Biso   1.000  H
  H32      1.0000 0.17630  0.71680  0.79530  Biso   1.000  H
  C13      1.0000 0.20530  0.87360  0.23960  Biso   1.000  C
  C14      1.0000 0.79470  0.37360  0.26040  Biso   1.000  C
  C15      1.0000 0.79470  0.12640  0.76040  Biso   1.000  C
  C16      1.0000 0.20530  0.62640  0.73960  Biso   1.000  C
  H33      1.0000 0.22070  0.90490  0.27860  Biso   1.000  H
  H34      1.0000 0.77930  0.40490  0.22140  Biso   1.000  H
  H35      1.0000 0.77930  0.09510  0.72140  Biso   1.000  H
  H36      1.0000 0.22070  0.59510  0.77860  Biso   1.000  H
  H37      1.0000 0.12900  0.89530  0.21980  Biso   1.000  H
  H38      1.0000 0.87100  0.39530  0.28020  Biso   1.000  H
  H39      1.0000 0.87100  0.10470  0.78020  Biso   1.000  H
  H40      1.0000 0.12900  0.60470  0.71980  Biso   1.000  H
  C17      1.0000 0.32310  0.96610  0.17780  Biso   1.000  C
  C18      1.0000 0.67690  0.46610  0.32220  Biso   1.000  C
  C19      1.0000 0.67690  0.03390  0.82220  Biso   1.000  C
  C20      1.0000 0.32310  0.53390  0.67780  Biso   1.000  C
  H41      1.0000 0.26850  0.00870  0.19000  Biso   1.000  H
  H42      1.0000 0.73150  0.50870  0.31000  Biso   1.000  H
  H43      1.0000 0.73150  0.99130  0.81000  Biso   1.000  H
  H44      1.0000 0.26850  0.49130  0.69000  Biso   1.000  H
  C21      1.0000 0.41740  0.99350  0.13730  Biso   1.000  C
  C22      1.0000 0.58260  0.49350  0.36270  Biso   1.000  C
  C23      1.0000 0.58260  0.00650  0.86270  Biso   1.000  C
  C24      1.0000 0.41740  0.50650  0.63730  Biso   1.000  C
  C25      1.0000 0.40910  0.07770  0.11220  Biso   1.000  C
  C26      1.0000 0.59090  0.57770  0.38780  Biso   1.000  C
  C27      1.0000 0.59090  0.92230  0.88780  Biso   1.000  C
  C28      1.0000 0.40910  0.42230  0.61220  Biso   1.000  C
  H45      1.0000 0.34320  0.11260  0.12250  Biso   1.000  H
  H46      1.0000 0.65680  0.61260  0.37750  Biso   1.000  H
  H47      1.0000 0.65680  0.88740  0.87750  Biso   1.000  H
  H48      1.0000 0.34320  0.38740  0.62250  Biso   1.000  H
  C29      1.0000 0.49460  0.11150  0.07280  Biso   1.000  C
  C30      1.0000 0.50540  0.61150  0.42720  Biso   1.000  C
  C31      1.0000 0.50540  0.88850  0.92720  Biso   1.000  C
  C32      1.0000 0.49460  0.38850  0.57280  Biso   1.000  C
  C33      1.0000 0.48270  0.20300  0.04710  Biso   1.000  C
  C34      1.0000 0.51730  0.70300  0.45290  Biso   1.000  C
  C35      1.0000 0.51730  0.79700  0.95290  Biso   1.000  C
  C36      1.0000 0.48270  0.29700  0.54710  Biso   1.000  C
  H49      1.0000 0.55900  0.23360  0.05520  Biso   1.000  H
  H50      1.0000 0.44100  0.73360  0.44480  Biso   1.000  H
  H51      1.0000 0.44100  0.76640  0.94480  Biso   1.000  H
  H52      1.0000 0.55900  0.26640  0.55520  Biso   1.000  H
  H53      1.0000 0.41780  0.23290  0.06690  Biso   1.000  H
  H54      1.0000 0.58220  0.73290  0.43310  Biso   1.000  H
  H55      1.0000 0.58220  0.76710  0.93310  Biso   1.000  H
  H56      1.0000 0.41780  0.26710  0.56690  Biso   1.000  H
  H57      1.0000 0.46390  0.20050  0.00290  Biso   1.000  H
  H58      1.0000 0.53610  0.70050  0.49710  Biso   1.000  H
  H59      1.0000 0.53610  0.79950  0.99710  Biso   1.000  H
  H60      1.0000 0.46390  0.29950  0.50290  Biso   1.000  H
  C37      1.0000 0.59330  0.05890  0.05940  Biso   1.000  C
  C38      1.0000 0.40670  0.55890  0.44060  Biso   1.000  C
  C39      1.0000 0.40670  0.94110  0.94060  Biso   1.000  C
  C40      1.0000 0.59330  0.44110  0.55940  Biso   1.000  C
  H61      1.0000 0.65220  0.08040  0.03340  Biso   1.000  H
  H62      1.0000 0.34780  0.58040  0.46660  Biso   1.000  H
  H63      1.0000 0.34780  0.91960  0.96660  Biso   1.000  H
  H64      1.0000 0.65220  0.41960  0.53340  Biso   1.000  H
  C41      1.0000 0.60770  0.97430  0.08360  Biso   1.000  C
  C42      1.0000 0.39230  0.47430  0.41640  Biso   1.000  C
  C43      1.0000 0.39230  0.02570  0.91640  Biso   1.000  C
  C44      1.0000 0.60770  0.52570  0.58360  Biso   1.000  C
  C45      1.0000 0.51930  0.94000  0.12320  Biso   1.000  C
  C46      1.0000 0.48070  0.44000  0.37680  Biso   1.000  C
  C47      1.0000 0.48070  0.06000  0.87680  Biso   1.000  C
  C48      1.0000 0.51930  0.56000  0.62320  Biso   1.000  C
  C49      1.0000 0.71340  0.92580  0.06470  Biso   1.000  C
  C50      1.0000 0.28660  0.42580  0.43530  Biso   1.000  C
  C51      1.0000 0.28660  0.07420  0.93530  Biso   1.000  C
  C52      1.0000 0.71340  0.57420  0.56470  Biso   1.000  C
  H65      1.0000 0.76390  0.95320  0.03700  Biso   1.000  H
  H66      1.0000 0.23610  0.45320  0.46300  Biso   1.000  H
  H67      1.0000 0.23610  0.04680  0.96300  Biso   1.000  H
  H68      1.0000 0.76390  0.54680  0.53700  Biso   1.000  H
  C53      1.0000 0.85280  0.80660  0.05600  Biso   1.000  C
  C54      1.0000 0.14720  0.30660  0.44400  Biso   1.000  C
  C55      1.0000 0.14720  0.19340  0.94400  Biso   1.000  C
  C56      1.0000 0.85280  0.69340  0.55600  Biso   1.000  C
  H69      1.0000 0.91940  0.84830  0.05320  Biso   1.000  H
  H70      1.0000 0.08060  0.34830  0.44680  Biso   1.000  H
  H71      1.0000 0.08060  0.15170  0.94680  Biso   1.000  H
  H72      1.0000 0.91940  0.65170  0.55320  Biso   1.000  H
  H73      1.0000 0.83130  0.78450  0.01450  Biso   1.000  H
  H74      1.0000 0.16870  0.28450  0.48550  Biso   1.000  H
  H75      1.0000 0.16870  0.21550  0.98550  Biso   1.000  H
  H76      1.0000 0.83130  0.71550  0.51450  Biso   1.000  H
  C57      1.0000 0.89230  0.73260  0.09930  Biso   1.000  C
  C58      1.0000 0.10770  0.23260  0.40070  Biso   1.000  C
  C59      1.0000 0.10770  0.26740  0.90070  Biso   1.000  C
  C60      1.0000 0.89230  0.76740  0.59930  Biso   1.000  C
  H77      1.0000 0.94920  0.69510  0.07860  Biso   1.000  H
  H78      1.0000 0.05080  0.19510  0.42140  Biso   1.000  H
  H79      1.0000 0.05080  0.30490  0.92140  Biso   1.000  H
  H80      1.0000 0.94920  0.80490  0.57860  Biso   1.000  H
  H81      1.0000 0.93490  0.75600  0.13650  Biso   1.000  H
  H82      1.0000 0.06510  0.25600  0.36350  Biso   1.000  H
  H83      1.0000 0.06510  0.24400  0.86350  Biso   1.000  H
  H84      1.0000 0.93490  0.74400  0.63650  Biso   1.000  H
  C61      1.0000 0.82050  0.62120  0.16800  Biso   1.000  C
  C62      1.0000 0.17950  0.12120  0.33200  Biso   1.000  C
  C63      1.0000 0.17950  0.37880  0.83200  Biso   1.000  C
  C64      1.0000 0.82050  0.87880  0.66800  Biso   1.000  C
  H85      1.0000 0.75010  0.58890  0.18020  Biso   1.000  H
  H86      1.0000 0.24990  0.08890  0.31980  Biso   1.000  H
  H87      1.0000 0.24990  0.41110  0.81980  Biso   1.000  H
  H88      1.0000 0.75010  0.91110  0.68020  Biso   1.000  H
  H89      1.0000 0.85410  0.65400  0.20310  Biso   1.000  H
  H90      1.0000 0.14590  0.15400  0.29690  Biso   1.000  H
  H91      1.0000 0.14590  0.34600  0.79690  Biso   1.000  H
  H92      1.0000 0.85410  0.84600  0.70310  Biso   1.000  H
  H93      1.0000 0.88180  0.58170  0.15420  Biso   1.000  H
  H94      1.0000 0.11820  0.08170  0.34580  Biso   1.000  H
  H95      1.0000 0.11820  0.41830  0.84580  Biso   1.000  H
  H96      1.0000 0.88180  0.91830  0.65420  Biso   1.000  H
  C65      1.0000 0.73060  0.63070  0.06340  Biso   1.000  C
  C66      1.0000 0.26940  0.13070  0.43660  Biso   1.000  C
  C67      1.0000 0.26940  0.36930  0.93660  Biso   1.000  C
  C68      1.0000 0.73060  0.86930  0.56340  Biso   1.000  C
  H97      1.0000 0.79220  0.59240  0.04840  Biso   1.000  H
  H98      1.0000 0.20780  0.09240  0.45160  Biso   1.000  H
  H99      1.0000 0.20780  0.40760  0.95160  Biso   1.000  H
  H100     1.0000 0.79220  0.90760  0.54840  Biso   1.000  H
  H101     1.0000 0.70360  0.67020  0.03080  Biso   1.000  H
  H102     1.0000 0.29640  0.17020  0.46920  Biso   1.000  H
  H103     1.0000 0.29640  0.32980  0.96920  Biso   1.000  H
  H104     1.0000 0.70360  0.82980  0.53080  Biso   1.000  H
  H105     1.0000 0.66170  0.59710  0.07610  Biso   1.000  H
  H106     1.0000 0.33830  0.09710  0.42390  Biso   1.000  H
  H107     1.0000 0.33830  0.40290  0.92390  Biso   1.000  H
  H108     1.0000 0.66170  0.90290  0.57610  Biso   1.000  H
  C69      1.0000 0.22680  0.79680  0.05700  Biso   1.000  C
  C70      1.0000 0.77320  0.29680  0.44300  Biso   1.000  C
  C71      1.0000 0.77320  0.20320  0.94300  Biso   1.000  C
  C72      1.0000 0.22680  0.70320  0.55700  Biso   1.000  C
  H109     1.0000 0.20950  0.85180  0.07230  Biso   1.000  H
  H110     1.0000 0.79050  0.35180  0.42770  Biso   1.000  H
  H111     1.0000 0.79050  0.14820  0.92770  Biso   1.000  H
  H112     1.0000 0.20950  0.64820  0.57230  Biso   1.000  H
  C73      1.0000 0.16410  0.76980  0.00310  Biso   1.000  C
  C74      1.0000 0.83590  0.26980  0.49690  Biso   1.000  C
  C75      1.0000 0.83590  0.23020  0.99690  Biso   1.000  C
  C76      1.0000 0.16410  0.73020  0.50310  Biso   1.000  C
  H113     1.0000 0.10730  0.80670  0.98260  Biso   1.000  H
  H114     1.0000 0.89270  0.30670  0.51740  Biso   1.000  H
  H115     1.0000 0.89270  0.19330  0.01740  Biso   1.000  H
  H116     1.0000 0.10730  0.69330  0.48260  Biso   1.000  H
  C77      1.0000 0.18530  0.68770  0.97930  Biso   1.000  C
  C78      1.0000 0.81470  0.18770  0.52070  Biso   1.000  C
  C79      1.0000 0.81470  0.31230  0.02070  Biso   1.000  C
  C80      1.0000 0.18530  0.81230  0.47930  Biso   1.000  C
  C81      1.0000 0.27460  0.63880  0.01180  Biso   1.000  C
  C82      1.0000 0.72540  0.13880  0.48820  Biso   1.000  C
  C83      1.0000 0.72540  0.36120  0.98820  Biso   1.000  C
  C84      1.0000 0.27460  0.86120  0.51180  Biso   1.000  C
  H117     1.0000 0.29410  0.58340  0.99780  Biso   1.000  H
  H118     1.0000 0.70590  0.08340  0.50220  Biso   1.000  H
  H119     1.0000 0.70590  0.41660  0.00220  Biso   1.000  H
  H120     1.0000 0.29410  0.91660  0.49780  Biso   1.000  H
  C85      1.0000 0.33370  0.67170  0.06420  Biso   1.000  C
  C86      1.0000 0.66630  0.17170  0.43580  Biso   1.000  C
  C87      1.0000 0.66630  0.32830  0.93580  Biso   1.000  C
  C88      1.0000 0.33370  0.82830  0.56420  Biso   1.000  C
  H121     1.0000 0.39440  0.63760  0.08440  Biso   1.000  H
  H122     1.0000 0.60560  0.13760  0.41560  Biso   1.000  H
  H123     1.0000 0.60560  0.36240  0.91560  Biso   1.000  H
  H124     1.0000 0.39440  0.86240  0.58440  Biso   1.000  H
  C89      1.0000 0.10960  0.65070  0.92490  Biso   1.000  C
  C90      1.0000 0.89040  0.15070  0.57510  Biso   1.000  C
  C91      1.0000 0.89040  0.34930  0.07510  Biso   1.000  C
  C92      1.0000 0.10960  0.84930  0.42490  Biso   1.000  C
  H125     1.0000 0.15490  0.60410  0.90590  Biso   1.000  H
  H126     1.0000 0.84510  0.10410  0.59410  Biso   1.000  H
  H127     1.0000 0.84510  0.39590  0.09410  Biso   1.000  H
  H128     1.0000 0.15490  0.89590  0.40590  Biso   1.000  H
  H129     1.0000 0.09350  0.69560  0.89370  Biso   1.000  H
  H130     1.0000 0.90650  0.19560  0.60630  Biso   1.000  H
  H131     1.0000 0.90650  0.30440  0.10630  Biso   1.000  H
  H132     1.0000 0.09350  0.80440  0.39370  Biso   1.000  H
  C93      1.0000 0.98800  0.61570  0.94700  Biso   1.000  C
  C94      1.0000 0.01200  0.11570  0.55300  Biso   1.000  C
  C95      1.0000 0.01200  0.38430  0.05300  Biso   1.000  C
  C96      1.0000 0.98800  0.88430  0.44700  Biso   1.000  C
  H133     1.0000 0.93720  0.66460  0.95820  Biso   1.000  H
  H134     1.0000 0.06280  0.16460  0.54180  Biso   1.000  H
  H135     1.0000 0.06280  0.33540  0.04180  Biso   1.000  H
  H136     1.0000 0.93720  0.83540  0.45820  Biso   1.000  H
  H137     1.0000 0.00520  0.58150  0.98450  Biso   1.000  H
  H138     1.0000 0.99480  0.08150  0.51550  Biso   1.000  H
  H139     1.0000 0.99480  0.41850  0.01550  Biso   1.000  H
  H140     1.0000 0.00520  0.91850  0.48450  Biso   1.000  H
  C97      1.0000 0.91530  0.56040  0.90030  Biso   1.000  C
  C98      1.0000 0.08470  0.06040  0.59970  Biso   1.000  C
  C99      1.0000 0.08470  0.43960  0.09970  Biso   1.000  C
  C100     1.0000 0.91530  0.93960  0.40030  Biso   1.000  C
  H141     1.0000 0.96560  0.51080  0.89000  Biso   1.000  H
  H142     1.0000 0.03440  0.01080  0.61000  Biso   1.000  H
  H143     1.0000 0.03440  0.48920  0.11000  Biso   1.000  H
  H144     1.0000 0.96560  0.98920  0.39000  Biso   1.000  H
  H145     1.0000 0.84350  0.53810  0.92020  Biso   1.000  H
  H146     1.0000 0.15650  0.03810  0.57980  Biso   1.000  H
  H147     1.0000 0.15650  0.46190  0.07980  Biso   1.000  H
  H148     1.0000 0.84350  0.96190  0.42020  Biso   1.000  H
  C101     1.0000 0.87230  0.60460  0.84040  Biso   1.000  C
  C102     1.0000 0.12770  0.10460  0.65960  Biso   1.000  C
  C103     1.0000 0.12770  0.39540  0.15960  Biso   1.000  C
  C104     1.0000 0.87230  0.89540  0.34040  Biso   1.000  C
  C105     1.0000 0.88830  0.56820  0.78320  Biso   1.000  C
  C106     1.0000 0.11170  0.06820  0.71680  Biso   1.000  C
  C107     1.0000 0.11170  0.43180  0.21680  Biso   1.000  C
  C108     1.0000 0.88830  0.93180  0.28320  Biso   1.000  C
  H149     1.0000 0.93300  0.51680  0.78060  Biso   1.000  H
  H150     1.0000 0.06700  0.01680  0.71940  Biso   1.000  H
  H151     1.0000 0.06700  0.48320  0.21940  Biso   1.000  H
  H152     1.0000 0.93300  0.98320  0.28060  Biso   1.000  H
  C109     1.0000 0.83930  0.60640  0.72970  Biso   1.000  C
  C110     1.0000 0.16070  0.10640  0.77030  Biso   1.000  C
  C111     1.0000 0.16070  0.39360  0.27030  Biso   1.000  C
  C112     1.0000 0.83930  0.89360  0.22970  Biso   1.000  C
  H153     1.0000 0.85260  0.57940  0.69180  Biso   1.000  H
  H154     1.0000 0.14740  0.07940  0.80820  Biso   1.000  H
  H155     1.0000 0.14740  0.42060  0.30820  Biso   1.000  H
  H156     1.0000 0.85260  0.92060  0.19180  Biso   1.000  H
  C113     1.0000 0.76100  0.71520  0.78390  Biso   1.000  C
  C114     1.0000 0.23900  0.21520  0.71610  Biso   1.000  C
  C115     1.0000 0.23900  0.28480  0.21610  Biso   1.000  C
  C116     1.0000 0.76100  0.78480  0.28390  Biso   1.000  C
  H157     1.0000 0.71600  0.76670  0.78500  Biso   1.000  H
  H158     1.0000 0.28400  0.26670  0.71500  Biso   1.000  H
  H159     1.0000 0.28400  0.23330  0.21500  Biso   1.000  H
  H160     1.0000 0.71600  0.73330  0.28500  Biso   1.000  H
  C117     1.0000 0.80810  0.68250  0.83960  Biso   1.000  C
  C118     1.0000 0.19190  0.18250  0.66040  Biso   1.000  C
  C119     1.0000 0.19190  0.31750  0.16040  Biso   1.000  C
  C120     1.0000 0.80810  0.81750  0.33960  Biso   1.000  C
  H161     1.0000 0.79710  0.71250  0.87660  Biso   1.000  H
  H162     1.0000 0.20290  0.21250  0.62340  Biso   1.000  H
  H163     1.0000 0.20290  0.28750  0.12340  Biso   1.000  H
  H164     1.0000 0.79710  0.78750  0.37660  Biso   1.000  H
  N1       1.0000 0.30690  0.88930  0.19850  Biso   1.000  N
  N2       1.0000 0.69310  0.38930  0.30150  Biso   1.000  N
  N3       1.0000 0.69310  0.11070  0.80150  Biso   1.000  N
  N4       1.0000 0.30690  0.61070  0.69850  Biso   1.000  N
  N5       1.0000 0.28850  0.72340  0.24100  Biso   1.000  N
  N6       1.0000 0.71150  0.22340  0.25900  Biso   1.000  N
  N7       1.0000 0.71150  0.27660  0.75900  Biso   1.000  N
  N8       1.0000 0.28850  0.77660  0.74100  Biso   1.000  N
  N9       1.0000 0.74420  0.84910  0.08230  Biso   1.000  N
  N10      1.0000 0.25580  0.34910  0.41770  Biso   1.000  N
  N11      1.0000 0.25580  0.15090  0.91770  Biso   1.000  N
  N12      1.0000 0.74420  0.65090  0.58230  Biso   1.000  N
  N13      1.0000 0.78340  0.68070  0.11730  Biso   1.000  N
  N14      1.0000 0.21660  0.18070  0.38270  Biso   1.000  N
  N15      1.0000 0.21660  0.31930  0.88270  Biso   1.000  N
  N16      1.0000 0.78340  0.81930  0.61730  Biso   1.000  N
  N17      1.0000 0.31020  0.74910  0.08830  Biso   1.000  N
  N18      1.0000 0.68980  0.24910  0.41170  Biso   1.000  N
  N19      1.0000 0.68980  0.25090  0.91170  Biso   1.000  N
  N20      1.0000 0.31020  0.75090  0.58830  Biso   1.000  N
  N21      1.0000 0.77440  0.67920  0.72870  Biso   1.000  N
  N22      1.0000 0.22560  0.17920  0.77130  Biso   1.000  N
  N23      1.0000 0.22560  0.32080  0.27130  Biso   1.000  N
  N24      1.0000 0.77440  0.82080  0.22870  Biso   1.000  N
  O1       1.0000 0.52930  0.86020  0.14574  Biso   1.000  O
  O2       1.0000 0.47070  0.36020  0.35426  Biso   1.000  O
  O3       1.0000 0.47070  0.13980  0.85426  Biso   1.000  O
  O4       1.0000 0.52930  0.63980  0.64574  Biso   1.000  O
  O5       1.0000 0.54320  0.70880  0.18387  Biso   1.000  O
  O6       1.0000 0.45680  0.20880  0.31613  Biso   1.000  O
  O7       1.0000 0.45680  0.29120  0.81613  Biso   1.000  O
  O8       1.0000 0.54320  0.79120  0.68387  Biso   1.000  O
  H165     1.0000 0.55000  0.65250  0.19970  Biso   1.000  H
  H166     1.0000 0.45000  0.15250  0.30030  Biso   1.000  H
  H167     1.0000 0.45000  0.34750  0.80030  Biso   1.000  H
  H168     1.0000 0.55000  0.84750  0.69970  Biso   1.000  H
  Cu1      1.0000 0.40522  0.78708  0.18479  Biso   1.000  Cu
  Cu2      1.0000 0.59478  0.28708  0.31521  Biso   1.000  Cu
  Cu3      1.0000 0.59478  0.21292  0.81521  Biso   1.000  Cu
  Cu4      1.0000 0.40522  0.71292  0.68479  Biso   1.000  Cu
  Cu5      1.0000 0.66326  0.77533  0.14218  Biso   1.000  Cu
  Cu6      1.0000 0.33674  0.27533  0.35782  Biso   1.000  Cu
  Cu7      1.0000 0.33674  0.22467  0.85782  Biso   1.000  Cu
  Cu8      1.0000 0.66326  0.72467  0.64218  Biso   1.000  Cu
  O9       1.0000 0.08670  0.11990  0.08670  Biso   1.000  O
  O10      1.0000 0.91330  0.61990  0.41330  Biso   1.000  O
  O11      1.0000 0.91330  0.88010  0.91330  Biso   1.000  O
  O12      1.0000 0.08670  0.38010  0.58670  Biso   1.000  O
  O13      1.0000 0.05590  0.08220  0.18910  Biso   1.000  O
  O14      1.0000 0.94410  0.58220  0.31090  Biso   1.000  O
  O15      1.0000 0.94410  0.91780  0.81090  Biso   1.000  O
  O16      1.0000 0.05590  0.41780  0.68910  Biso   1.000  O
  O17      1.0000 0.04180  0.97710  0.11330  Biso   1.000  O
  O18      1.0000 0.95820  0.47710  0.38670  Biso   1.000  O
  O19      1.0000 0.95820  0.02290  0.88670  Biso   1.000  O
  O20      1.0000 0.04180  0.52290  0.61330  Biso   1.000  O
  O21      1.0000 0.88960  0.08190  0.11480  Biso   1.000  O
  O22      1.0000 0.11040  0.58190  0.38520  Biso   1.000  O
  O23      1.0000 0.11040  0.91810  0.88520  Biso   1.000  O
  O24      1.0000 0.88960  0.41810  0.61480  Biso   1.000  O
  Cl1      1.0000 0.01777  0.06625  0.12490  Biso   1.000  Cl
  Cl2      1.0000 0.98223  0.56625  0.37510  Biso   1.000  Cl
  Cl3      1.0000 0.98223  0.93375  0.87510  Biso   1.000  Cl
  Cl4      1.0000 0.01777  0.43375  0.62490  Biso   1.000  Cl
  O25      1.0000 0.51040  0.52390  0.18320  Biso   1.000  O
  O26      1.0000 0.48960  0.02390  0.31680  Biso   1.000  O
  O27      1.0000 0.48960  0.47610  0.81680  Biso   1.000  O
  O28      1.0000 0.51040  0.97610  0.68320  Biso   1.000  O
  O29      1.0000 0.61660  0.43700  0.12180  Biso   1.000  O
  O30      1.0000 0.38340  0.93700  0.37820  Biso   1.000  O
  O31      1.0000 0.38340  0.56300  0.87820  Biso   1.000  O
  O32      1.0000 0.61660  0.06300  0.62180  Biso   1.000  O
  O33      1.0000 0.47780  0.37760  0.18570  Biso   1.000  O
  O34      1.0000 0.52220  0.87760  0.31430  Biso   1.000  O
  O35      1.0000 0.52220  0.62240  0.81430  Biso   1.000  O
  O36      1.0000 0.47780  0.12240  0.68570  Biso   1.000  O
  O37      1.0000 0.40790  0.46010  0.10120  Biso   1.000  O
  O38      1.0000 0.59210  0.96010  0.39880  Biso   1.000  O
  O39      1.0000 0.59210  0.53990  0.89880  Biso   1.000  O
  O40      1.0000 0.40790  0.03990  0.60120  Biso   1.000  O
  Cl5      1.0000 0.50132  0.44978  0.14676  Biso   1.000  Cl
  Cl6      1.0000 0.49868  0.94978  0.35324  Biso   1.000  Cl
  Cl7      1.0000 0.49868  0.55022  0.85324  Biso   1.000  Cl
  Cl8      1.0000 0.50132  0.05022  0.64676  Biso   1.000  Cl
