data_image0
_cell_length_a       9.0134
_cell_length_b       10.8785
_cell_length_c       6.4702
_cell_angle_alpha    90
_cell_angle_beta     91.679
_cell_angle_gamma    90

_symmetry_space_group_name_H-M    "P 1"
_symmetry_int_tables_number       1

loop_
  _symmetry_equiv_pos_as_xyz
  'x, y, z'

loop_
  _atom_site_label
  _atom_site_occupancy
  _atom_site_fract_x
  _atom_site_fract_y
  _atom_site_fract_z
  _atom_site_thermal_displace_type
  _atom_site_B_iso_or_equiv
  _atom_site_type_symbol
  Cu1      1.0000 0.00000  0.50000  0.00000  Biso   1.000  Cu
  Cu2      1.0000 0.00000  0.00000  0.50000  Biso   1.000  Cu
  O1       1.0000 0.19323  0.46168  0.13076  Biso   1.000  O
  O2       1.0000 0.80677  0.96168  0.36924  Biso   1.000  O
  O3       1.0000 0.80677  0.53832  0.86924  Biso   1.000  O
  O4       1.0000 0.19323  0.03832  0.63076  Biso   1.000  O
  O5       1.0000 0.12257  0.59968  0.35743  Biso   1.000  O
  O6       1.0000 0.87743  0.09968  0.14257  Biso   1.000  O
  O7       1.0000 0.87743  0.40032  0.64257  Biso   1.000  O
  O8       1.0000 0.12257  0.90032  0.85743  Biso   1.000  O
  N1       1.0000 0.90113  0.37707  0.17730  Biso   1.000  N
  N2       1.0000 0.09887  0.87707  0.32270  Biso   1.000  N
  N3       1.0000 0.09887  0.62293  0.82270  Biso   1.000  N
  N4       1.0000 0.90113  0.12293  0.67730  Biso   1.000  N
  C1       1.0000 0.36344  0.51158  0.40120  Biso   1.000  C
  C2       1.0000 0.63656  0.01158  0.09880  Biso   1.000  C
  C3       1.0000 0.63656  0.48842  0.59880  Biso   1.000  C
  C4       1.0000 0.36344  0.98842  0.90120  Biso   1.000  C
  C5       1.0000 0.48326  0.57974  0.33050  Biso   1.000  C
  C6       1.0000 0.51674  0.07974  0.16950  Biso   1.000  C
  C7       1.0000 0.51674  0.42026  0.66950  Biso   1.000  C
  C8       1.0000 0.48326  0.92026  0.83050  Biso   1.000  C
  C9       1.0000 0.37857  0.43159  0.56850  Biso   1.000  C
  C10      1.0000 0.62143  0.93159  0.93150  Biso   1.000  C
  C11      1.0000 0.62143  0.56841  0.43150  Biso   1.000  C
  C12      1.0000 0.37857  0.06841  0.06850  Biso   1.000  C
  C13      1.0000 0.21533  0.52645  0.29210  Biso   1.000  C
  C14      1.0000 0.78467  0.02645  0.20790  Biso   1.000  C
  C15      1.0000 0.78467  0.47355  0.70790  Biso   1.000  C
  C16      1.0000 0.21533  0.97355  0.79210  Biso   1.000  C
  C17      1.0000 0.46365  0.66625  0.15070  Biso   1.000  C
  C18      1.0000 0.53635  0.16625  0.34930  Biso   1.000  C
  C19      1.0000 0.53635  0.33375  0.84930  Biso   1.000  C
  C20      1.0000 0.46365  0.83375  0.65070  Biso   1.000  C
  C21      1.0000 0.24936  0.35525  0.63610  Biso   1.000  C
  C22      1.0000 0.75064  0.85525  0.86390  Biso   1.000  C
  C23      1.0000 0.75064  0.64475  0.36390  Biso   1.000  C
  C24      1.0000 0.24936  0.14475  0.13610  Biso   1.000  C
  H1       1.0000 0.36800  0.67600  0.11000  Biso   1.000  H
  H2       1.0000 0.63200  0.17600  0.39000  Biso   1.000  H
  H3       1.0000 0.63200  0.32400  0.89000  Biso   1.000  H
  H4       1.0000 0.36800  0.82400  0.61000  Biso   1.000  H
  H5       1.0000 0.26400  0.27400  0.61500  Biso   1.000  H
  H6       1.0000 0.73600  0.77400  0.88500  Biso   1.000  H
  H7       1.0000 0.73600  0.72600  0.38500  Biso   1.000  H
  H8       1.0000 0.26400  0.22600  0.11500  Biso   1.000  H
  H9       1.0000 0.23400  0.36670  0.78300  Biso   1.000  H
  H10      1.0000 0.76600  0.86670  0.71700  Biso   1.000  H
  H11      1.0000 0.76600  0.63330  0.21700  Biso   1.000  H
  H12      1.0000 0.23400  0.13330  0.28300  Biso   1.000  H
  H13      1.0000 0.16300  0.37500  0.56400  Biso   1.000  H
  H14      1.0000 0.83700  0.87500  0.93600  Biso   1.000  H
  H15      1.0000 0.83700  0.62500  0.43600  Biso   1.000  H
  H16      1.0000 0.16300  0.12500  0.06400  Biso   1.000  H
  H17      1.0000 0.91500  0.38900  0.31100  Biso   1.000  H
  H18      1.0000 0.08500  0.88900  0.18900  Biso   1.000  H
  H19      1.0000 0.08500  0.61100  0.68900  Biso   1.000  H
  H20      1.0000 0.91500  0.11100  0.81100  Biso   1.000  H
  H21      1.0000 0.51000  0.74500  0.17600  Biso   1.000  H
  H22      1.0000 0.49000  0.24500  0.32400  Biso   1.000  H
  H23      1.0000 0.49000  0.25500  0.82400  Biso   1.000  H
  H24      1.0000 0.51000  0.75500  0.67600  Biso   1.000  H
  H25      1.0000 0.91900  0.30600  0.15200  Biso   1.000  H
  H26      1.0000 0.08100  0.80600  0.34800  Biso   1.000  H
  H27      1.0000 0.08100  0.69400  0.84800  Biso   1.000  H
  H28      1.0000 0.91900  0.19400  0.65200  Biso   1.000  H
  H29      1.0000 0.50700  0.63300  0.04900  Biso   1.000  H
  H30      1.0000 0.49300  0.13300  0.45100  Biso   1.000  H
  H31      1.0000 0.49300  0.36700  0.95100  Biso   1.000  H
  H32      1.0000 0.50700  0.86700  0.54900  Biso   1.000  H
  H33      1.0000 0.80700  0.37400  0.16000  Biso   1.000  H
  H34      1.0000 0.19300  0.87400  0.34000  Biso   1.000  H
  H35      1.0000 0.19300  0.62600  0.84000  Biso   1.000  H
  H36      1.0000 0.80700  0.12600  0.66000  Biso   1.000  H
