data_image0
_cell_length_a       5.0281
_cell_length_b       8.8165
_cell_length_c       12.78
_cell_angle_alpha    102.241
_cell_angle_beta     99.953
_cell_angle_gamma    105.858

_symmetry_space_group_name_H-M    "P 1"
_symmetry_int_tables_number       1

loop_
  _symmetry_equiv_pos_as_xyz
  'x, y, z'

loop_
  _atom_site_label
  _atom_site_occupancy
  _atom_site_fract_x
  _atom_site_fract_y
  _atom_site_fract_z
  _atom_site_thermal_displace_type
  _atom_site_B_iso_or_equiv
  _atom_site_type_symbol
  Cu1      1.0000 0.00000  0.50000  0.00000  Biso   1.000  Cu
  N1       1.0000 0.95260  0.65440  0.13320  Biso   1.000  N
  N2       1.0000 0.04740  0.34560  0.86680  Biso   1.000  N
  C1       1.0000 0.14680  0.80290  0.18060  Biso   1.000  C
  C2       1.0000 0.85320  0.19710  0.81940  Biso   1.000  C
  H1       1.0000 0.29120  0.83900  0.14620  Biso   1.000  H
  H2       1.0000 0.70880  0.16100  0.85380  Biso   1.000  H
  C3       1.0000 0.14260  0.90340  0.27670  Biso   1.000  C
  C4       1.0000 0.85740  0.09660  0.72330  Biso   1.000  C
  H3       1.0000 0.28170  0.00570  0.30650  Biso   1.000  H
  H4       1.0000 0.71830  0.99430  0.69350  Biso   1.000  H
  C5       1.0000 0.93090  0.85300  0.32980  Biso   1.000  C
  C6       1.0000 0.06910  0.14700  0.67020  Biso   1.000  C
  H5       1.0000 0.92500  0.92020  0.39550  Biso   1.000  H
  H6       1.0000 0.07500  0.07980  0.60450  Biso   1.000  H
  C7       1.0000 0.72860  0.70040  0.28290  Biso   1.000  C
  C8       1.0000 0.27140  0.29960  0.71710  Biso   1.000  C
  C9       1.0000 0.74640  0.60580  0.18430  Biso   1.000  C
  C10      1.0000 0.25360  0.39420  0.81570  Biso   1.000  C
  H7       1.0000 0.60840  0.50360  0.15220  Biso   1.000  H
  H8       1.0000 0.39160  0.49640  0.84780  Biso   1.000  H
  N3       1.0000 0.50500  0.62920  0.32930  Biso   1.000  N
  N4       1.0000 0.49500  0.37080  0.67070  Biso   1.000  N
  H9       1.0000 0.38700  0.53480  0.29130  Biso   1.000  H
  H10      1.0000 0.61300  0.46520  0.70870  Biso   1.000  H
  C11      1.0000 0.45930  0.69550  0.42780  Biso   1.000  C
  C12      1.0000 0.54070  0.30450  0.57220  Biso   1.000  C
  O1       1.0000 0.60230  0.83260  0.48770  Biso   1.000  O
  O2       1.0000 0.39770  0.16740  0.51230  Biso   1.000  O
  C13      1.0000 0.21880  0.59050  0.46150  Biso   1.000  C
  C14      1.0000 0.78120  0.40950  0.53850  Biso   1.000  C
  C15      1.0000 0.11380  0.66650  0.54230  Biso   1.000  C
  C16      1.0000 0.88620  0.33350  0.45770  Biso   1.000  C
  H11      1.0000 0.19050  0.77960  0.57170  Biso   1.000  H
  H12      1.0000 0.80950  0.22040  0.42830  Biso   1.000  H
  C17      1.0000 0.10270  0.42020  0.41890  Biso   1.000  C
  C18      1.0000 0.89730  0.57980  0.58110  Biso   1.000  C
  H13      1.0000 0.17110  0.36540  0.36450  Biso   1.000  H
  H14      1.0000 0.82890  0.63460  0.63550  Biso   1.000  H
  O3       1.0000 0.75840  0.31370  0.03220  Biso   1.000  O
  O4       1.0000 0.24160  0.68630  0.96780  Biso   1.000  O
  C19      1.0000 0.89150  0.27170  0.11100  Biso   1.000  C
  C20      1.0000 0.10850  0.72830  0.88900  Biso   1.000  C
  O5       1.0000 0.14620  0.34080  0.15690  Biso   1.000  O
  O6       1.0000 0.85380  0.65920  0.84310  Biso   1.000  O
  C21      1.0000 0.71490  0.13200  0.14440  Biso   1.000  C
  C22      1.0000 0.28510  0.86800  0.85560  Biso   1.000  C
  H15      1.0000 0.68850  0.03060  0.09150  Biso   1.000  H
  H16      1.0000 0.31150  0.96940  0.90850  Biso   1.000  H
  H17      1.0000 0.53250  0.14500  0.14710  Biso   1.000  H
  H18      1.0000 0.46750  0.85500  0.85290  Biso   1.000  H
  H19      1.0000 0.81040  0.13100  0.21600  Biso   1.000  H
  H20      1.0000 0.18960  0.86900  0.78400  Biso   1.000  H
