data_image0
_cell_length_a       8.7533
_cell_length_b       9.7738
_cell_length_c       11.2575
_cell_angle_alpha    86.045
_cell_angle_beta     69.815
_cell_angle_gamma    85.415

_symmetry_space_group_name_H-M    "P 1"
_symmetry_int_tables_number       1

loop_
  _symmetry_equiv_pos_as_xyz
  'x, y, z'

loop_
  _atom_site_label
  _atom_site_occupancy
  _atom_site_fract_x
  _atom_site_fract_y
  _atom_site_fract_z
  _atom_site_thermal_displace_type
  _atom_site_B_iso_or_equiv
  _atom_site_type_symbol
  Cu1      1.0000 0.00000  0.50000  0.00000  Biso   1.000  Cu
  N1       1.0000 0.98250  0.32260  0.92070  Biso   1.000  N
  N2       1.0000 0.01750  0.67740  0.07930  Biso   1.000  N
  C1       1.0000 0.86210  0.31000  0.87460  Biso   1.000  C
  C2       1.0000 0.13790  0.69000  0.12540  Biso   1.000  C
  H1       1.0000 0.78100  0.38320  0.88480  Biso   1.000  H
  H2       1.0000 0.21900  0.61680  0.11520  Biso   1.000  H
  C3       1.0000 0.85020  0.19550  0.81310  Biso   1.000  C
  C4       1.0000 0.14980  0.80450  0.18690  Biso   1.000  C
  C5       1.0000 0.96100  0.08450  0.80690  Biso   1.000  C
  C6       1.0000 0.03900  0.91550  0.19310  Biso   1.000  C
  H3       1.0000 0.95450  0.00330  0.76740  Biso   1.000  H
  H4       1.0000 0.04550  0.99670  0.23260  Biso   1.000  H
  C7       1.0000 0.08070  0.09400  0.85910  Biso   1.000  C
  C8       1.0000 0.91930  0.90600  0.14090  Biso   1.000  C
  H5       1.0000 0.15580  0.01800  0.85830  Biso   1.000  H
  H6       1.0000 0.84420  0.98200  0.14170  Biso   1.000  H
  C9       1.0000 0.09110  0.21460  0.91260  Biso   1.000  C
  C10      1.0000 0.90890  0.78540  0.08740  Biso   1.000  C
  H7       1.0000 0.17730  0.22160  0.94450  Biso   1.000  H
  H8       1.0000 0.82270  0.77840  0.05550  Biso   1.000  H
  N3       1.0000 0.72520  0.19020  0.76200  Biso   1.000  N
  N4       1.0000 0.27480  0.80980  0.23800  Biso   1.000  N
  H9       1.0000 0.68330  0.11060  0.76510  Biso   1.000  H
  H10      1.0000 0.31670  0.88940  0.23490  Biso   1.000  H
  C11      1.0000 0.66530  0.30030  0.70830  Biso   1.000  C
  C12      1.0000 0.33470  0.69970  0.29170  Biso   1.000  C
  O1       1.0000 0.71670  0.41460  0.69620  Biso   1.000  O
  O2       1.0000 0.28330  0.58540  0.30380  Biso   1.000  O
  C13      1.0000 0.53040  0.27460  0.65910  Biso   1.000  C
  C14      1.0000 0.46960  0.72540  0.34090  Biso   1.000  C
  C15      1.0000 0.44160  0.38970  0.63220  Biso   1.000  C
  C16      1.0000 0.55840  0.61030  0.36780  Biso   1.000  C
  H11      1.0000 0.46240  0.47830  0.65090  Biso   1.000  H
  H12      1.0000 0.53760  0.52170  0.34910  Biso   1.000  H
  C17      1.0000 0.32290  0.37650  0.57820  Biso   1.000  C
  C18      1.0000 0.67710  0.62350  0.42180  Biso   1.000  C
  H13      1.0000 0.26350  0.45560  0.55920  Biso   1.000  H
  H14      1.0000 0.73650  0.54440  0.44080  Biso   1.000  H
  C19      1.0000 0.29190  0.24670  0.55220  Biso   1.000  C
  C20      1.0000 0.70810  0.75330  0.44780  Biso   1.000  C
  C21      1.0000 0.37700  0.13150  0.58380  Biso   1.000  C
  C22      1.0000 0.62300  0.86850  0.41620  Biso   1.000  C
  H15      1.0000 0.35210  0.04240  0.56980  Biso   1.000  H
  H16      1.0000 0.64790  0.95760  0.43020  Biso   1.000  H
  C23      1.0000 0.49690  0.14520  0.63510  Biso   1.000  C
  C24      1.0000 0.50310  0.85480  0.36490  Biso   1.000  C
  H17      1.0000 0.55630  0.06610  0.65400  Biso   1.000  H
  H18      1.0000 0.44370  0.93390  0.34600  Biso   1.000  H
  C25      1.0000 0.16620  0.21900  0.49450  Biso   1.000  C
  C26      1.0000 0.83380  0.78100  0.50550  Biso   1.000  C
  O3       1.0000 0.10330  0.11000  0.51420  Biso   1.000  O
  O4       1.0000 0.89670  0.89000  0.48580  Biso   1.000  O
  N5       1.0000 0.13050  0.32400  0.41980  Biso   1.000  N
  N6       1.0000 0.86950  0.67600  0.58020  Biso   1.000  N
  H19      1.0000 0.17690  0.40210  0.41320  Biso   1.000  H
  H20      1.0000 0.82310  0.59790  0.58680  Biso   1.000  H
  C27      1.0000 0.02280  0.31320  0.35280  Biso   1.000  C
  C28      1.0000 0.97720  0.68680  0.64720  Biso   1.000  C
  C29      1.0000 0.05580  0.38610  0.23780  Biso   1.000  C
  C30      1.0000 0.94420  0.61390  0.76220  Biso   1.000  C
  H21      1.0000 0.15120  0.43650  0.20750  Biso   1.000  H
  H22      1.0000 0.84880  0.56350  0.79250  Biso   1.000  H
  N7       1.0000 0.04060  0.61090  0.83300  Biso   1.000  N
  N8       1.0000 0.95940  0.38910  0.16700  Biso   1.000  N
  C31      1.0000 0.17300  0.68500  0.79020  Biso   1.000  C
  C32      1.0000 0.82700  0.31500  0.20980  Biso   1.000  C
  H23      1.0000 0.24180  0.68520  0.83950  Biso   1.000  H
  H24      1.0000 0.75820  0.31480  0.16050  Biso   1.000  H
  C33      1.0000 0.78770  0.23940  0.32280  Biso   1.000  C
  C34      1.0000 0.21230  0.76060  0.67720  Biso   1.000  C
  H25      1.0000 0.69210  0.18910  0.35050  Biso   1.000  H
  H26      1.0000 0.30790  0.81090  0.64950  Biso   1.000  H
  C35      1.0000 0.88600  0.23590  0.39640  Biso   1.000  C
  C36      1.0000 0.11400  0.76410  0.60360  Biso   1.000  C
  H27      1.0000 0.86110  0.18260  0.47380  Biso   1.000  H
  H28      1.0000 0.13890  0.81740  0.52620  Biso   1.000  H
  O5       1.0000 0.69130  0.54070  0.05270  Biso   1.000  O
  O6       1.0000 0.30870  0.45930  0.94730  Biso   1.000  O
  H29      1.0000 0.62000  0.49900  0.09200  Biso   1.000  H
  H30      1.0000 0.38000  0.50100  0.90800  Biso   1.000  H
  H31      1.0000 0.64600  0.61100  0.03300  Biso   1.000  H
  H32      1.0000 0.35400  0.38900  0.96700  Biso   1.000  H
  Cl1      1.0000 0.46193  0.18471  0.12861  Biso   1.000  Cl
  Cl2      1.0000 0.53807  0.81529  0.87139  Biso   1.000  Cl
  O7       1.0000 0.46040  0.31860  0.17640  Biso   1.000  O
  O8       1.0000 0.53960  0.68140  0.82360  Biso   1.000  O
  O9       1.0000 0.61700  0.11330  0.10880  Biso   1.000  O
  O10      1.0000 0.38300  0.88670  0.89120  Biso   1.000  O
  O11      1.0000 0.43150  0.20210  0.01020  Biso   1.000  O
  O12      1.0000 0.56850  0.79790  0.98980  Biso   1.000  O
  O13      1.0000 0.33520  0.10880  0.21850  Biso   1.000  O
  O14      1.0000 0.66480  0.89120  0.78150  Biso   1.000  O
