data_image0
_cell_length_a       19.739
_cell_length_b       8.5688
_cell_length_c       13.02
_cell_angle_alpha    90
_cell_angle_beta     95.77
_cell_angle_gamma    90

_symmetry_space_group_name_H-M    "P 1"
_symmetry_int_tables_number       1

loop_
  _symmetry_equiv_pos_as_xyz
  'x, y, z'

loop_
  _atom_site_label
  _atom_site_occupancy
  _atom_site_fract_x
  _atom_site_fract_y
  _atom_site_fract_z
  _atom_site_thermal_displace_type
  _atom_site_B_iso_or_equiv
  _atom_site_type_symbol
  Cu1      1.0000 0.50000  0.62819  0.75000  Biso   1.000  Cu
  Cu2      1.0000 0.00000  0.12819  0.75000  Biso   1.000  Cu
  Cu3      1.0000 0.50000  0.37181  0.25000  Biso   1.000  Cu
  Cu4      1.0000 0.00000  0.87181  0.25000  Biso   1.000  Cu
  Cl1      1.0000 0.60675  0.53606  0.77959  Biso   1.000  Cl
  Cl2      1.0000 0.10675  0.03606  0.77959  Biso   1.000  Cl
  Cl3      1.0000 0.60675  0.46394  0.27959  Biso   1.000  Cl
  Cl4      1.0000 0.10675  0.96394  0.27959  Biso   1.000  Cl
  Cl5      1.0000 0.39325  0.46394  0.22041  Biso   1.000  Cl
  Cl6      1.0000 0.89325  0.96394  0.22041  Biso   1.000  Cl
  Cl7      1.0000 0.39325  0.53606  0.72041  Biso   1.000  Cl
  Cl8      1.0000 0.89325  0.03606  0.72041  Biso   1.000  Cl
  O1       1.0000 0.48998  0.66410  0.89585  Biso   1.000  O
  O2       1.0000 0.98998  0.16410  0.89585  Biso   1.000  O
  O3       1.0000 0.48998  0.33590  0.39585  Biso   1.000  O
  O4       1.0000 0.98998  0.83590  0.39585  Biso   1.000  O
  O5       1.0000 0.51002  0.33590  0.10415  Biso   1.000  O
  O6       1.0000 0.01002  0.83590  0.10415  Biso   1.000  O
  O7       1.0000 0.51002  0.66410  0.60415  Biso   1.000  O
  O8       1.0000 0.01002  0.16410  0.60415  Biso   1.000  O
  O9       1.0000 0.55637  0.87490  0.90536  Biso   1.000  O
  O10      1.0000 0.05637  0.37490  0.90536  Biso   1.000  O
  O11      1.0000 0.55637  0.12510  0.40536  Biso   1.000  O
  O12      1.0000 0.05637  0.62510  0.40536  Biso   1.000  O
  O13      1.0000 0.44363  0.12510  0.09464  Biso   1.000  O
  O14      1.0000 0.94363  0.62510  0.09464  Biso   1.000  O
  O15      1.0000 0.44363  0.87490  0.59464  Biso   1.000  O
  O16      1.0000 0.94363  0.37490  0.59464  Biso   1.000  O
  O17      1.0000 0.72393  0.55052  0.06158  Biso   1.000  O
  O18      1.0000 0.22393  0.05052  0.06158  Biso   1.000  O
  O19      1.0000 0.72393  0.44948  0.56158  Biso   1.000  O
  O20      1.0000 0.22393  0.94948  0.56158  Biso   1.000  O
  O21      1.0000 0.27607  0.44948  0.93842  Biso   1.000  O
  O22      1.0000 0.77607  0.94948  0.93842  Biso   1.000  O
  O23      1.0000 0.27607  0.55052  0.43842  Biso   1.000  O
  O24      1.0000 0.77607  0.05052  0.43842  Biso   1.000  O
  N1       1.0000 0.59292  0.82430  0.11291  Biso   1.000  N
  N2       1.0000 0.09292  0.32430  0.11291  Biso   1.000  N
  N3       1.0000 0.59292  0.17570  0.61291  Biso   1.000  N
  N4       1.0000 0.09292  0.67570  0.61291  Biso   1.000  N
  N5       1.0000 0.40708  0.17570  0.88709  Biso   1.000  N
  N6       1.0000 0.90708  0.67570  0.88709  Biso   1.000  N
  N7       1.0000 0.40708  0.82430  0.38709  Biso   1.000  N
  N8       1.0000 0.90708  0.32430  0.38709  Biso   1.000  N
  C1       1.0000 0.52706  0.76770  0.94317  Biso   1.000  C
  C2       1.0000 0.02706  0.26770  0.94317  Biso   1.000  C
  C3       1.0000 0.52706  0.23230  0.44317  Biso   1.000  C
  C4       1.0000 0.02706  0.73230  0.44317  Biso   1.000  C
  C5       1.0000 0.47294  0.23230  0.05683  Biso   1.000  C
  C6       1.0000 0.97294  0.73230  0.05683  Biso   1.000  C
  C7       1.0000 0.47294  0.76770  0.55683  Biso   1.000  C
  C8       1.0000 0.97294  0.26770  0.55683  Biso   1.000  C
  C9       1.0000 0.53076  0.75050  0.06166  Biso   1.000  C
  C10      1.0000 0.03076  0.25050  0.06166  Biso   1.000  C
  C11      1.0000 0.53076  0.24950  0.56166  Biso   1.000  C
  C12      1.0000 0.03076  0.74950  0.56166  Biso   1.000  C
  C13      1.0000 0.46924  0.24950  0.93834  Biso   1.000  C
  C14      1.0000 0.96924  0.74950  0.93834  Biso   1.000  C
  C15      1.0000 0.46924  0.75050  0.43834  Biso   1.000  C
  C16      1.0000 0.96924  0.25050  0.43834  Biso   1.000  C
  H1       1.0000 0.49100  0.79870  0.08630  Biso   1.000  H
  H2       1.0000 0.99100  0.29870  0.08630  Biso   1.000  H
  H3       1.0000 0.49100  0.20130  0.58630  Biso   1.000  H
  H4       1.0000 0.99100  0.70130  0.58630  Biso   1.000  H
  H5       1.0000 0.50900  0.20130  0.91370  Biso   1.000  H
  H6       1.0000 0.00900  0.70130  0.91370  Biso   1.000  H
  H7       1.0000 0.50900  0.79870  0.41370  Biso   1.000  H
  H8       1.0000 0.00900  0.29870  0.41370  Biso   1.000  H
  H9       1.0000 0.53040  0.64070  0.07950  Biso   1.000  H
  H10      1.0000 0.03040  0.14070  0.07950  Biso   1.000  H
  H11      1.0000 0.53040  0.35930  0.57950  Biso   1.000  H
  H12      1.0000 0.03040  0.85930  0.57950  Biso   1.000  H
  H13      1.0000 0.46960  0.35930  0.92050  Biso   1.000  H
  H14      1.0000 0.96960  0.85930  0.92050  Biso   1.000  H
  H15      1.0000 0.46960  0.64070  0.42050  Biso   1.000  H
  H16      1.0000 0.96960  0.14070  0.42050  Biso   1.000  H
  C17      1.0000 0.58758  0.96140  0.16300  Biso   1.000  C
  C18      1.0000 0.08758  0.46140  0.16300  Biso   1.000  C
  C19      1.0000 0.58758  0.03860  0.66300  Biso   1.000  C
  C20      1.0000 0.08758  0.53860  0.66300  Biso   1.000  C
  C21      1.0000 0.41242  0.03860  0.83700  Biso   1.000  C
  C22      1.0000 0.91242  0.53860  0.83700  Biso   1.000  C
  C23      1.0000 0.41242  0.96140  0.33700  Biso   1.000  C
  C24      1.0000 0.91242  0.46140  0.33700  Biso   1.000  C
  H17      1.0000 0.54470  0.00450  0.16740  Biso   1.000  H
  H18      1.0000 0.04470  0.50450  0.16740  Biso   1.000  H
  H19      1.0000 0.54470  0.99550  0.66740  Biso   1.000  H
  H20      1.0000 0.04470  0.49550  0.66740  Biso   1.000  H
  H21      1.0000 0.45530  0.99550  0.83260  Biso   1.000  H
  H22      1.0000 0.95530  0.49550  0.83260  Biso   1.000  H
  H23      1.0000 0.45530  0.00450  0.33260  Biso   1.000  H
  H24      1.0000 0.95530  0.50450  0.33260  Biso   1.000  H
  C25      1.0000 0.64379  0.03770  0.20710  Biso   1.000  C
  C26      1.0000 0.14379  0.53770  0.20710  Biso   1.000  C
  C27      1.0000 0.64379  0.96230  0.70710  Biso   1.000  C
  C28      1.0000 0.14379  0.46230  0.70710  Biso   1.000  C
  C29      1.0000 0.35621  0.96230  0.79290  Biso   1.000  C
  C30      1.0000 0.85621  0.46230  0.79290  Biso   1.000  C
  C31      1.0000 0.35621  0.03770  0.29290  Biso   1.000  C
  C32      1.0000 0.85621  0.53770  0.29290  Biso   1.000  C
  H25      1.0000 0.63950  0.13130  0.24200  Biso   1.000  H
  H26      1.0000 0.13950  0.63130  0.24200  Biso   1.000  H
  H27      1.0000 0.63950  0.86870  0.74200  Biso   1.000  H
  H28      1.0000 0.13950  0.36870  0.74200  Biso   1.000  H
  H29      1.0000 0.36050  0.86870  0.75800  Biso   1.000  H
  H30      1.0000 0.86050  0.36870  0.75800  Biso   1.000  H
  H31      1.0000 0.36050  0.13130  0.25800  Biso   1.000  H
  H32      1.0000 0.86050  0.63130  0.25800  Biso   1.000  H
  C33      1.0000 0.70757  0.97340  0.19907  Biso   1.000  C
  C34      1.0000 0.20757  0.47340  0.19907  Biso   1.000  C
  C35      1.0000 0.70757  0.02660  0.69907  Biso   1.000  C
  C36      1.0000 0.20757  0.52660  0.69907  Biso   1.000  C
  C37      1.0000 0.29243  0.02660  0.80093  Biso   1.000  C
  C38      1.0000 0.79243  0.52660  0.80093  Biso   1.000  C
  C39      1.0000 0.29243  0.97340  0.30093  Biso   1.000  C
  C40      1.0000 0.79243  0.47340  0.30093  Biso   1.000  C
  H33      1.0000 0.74660  0.02490  0.22700  Biso   1.000  H
  H34      1.0000 0.24660  0.52490  0.22700  Biso   1.000  H
  H35      1.0000 0.74660  0.97510  0.72700  Biso   1.000  H
  H36      1.0000 0.24660  0.47510  0.72700  Biso   1.000  H
  H37      1.0000 0.25340  0.97510  0.77300  Biso   1.000  H
  H38      1.0000 0.75340  0.47510  0.77300  Biso   1.000  H
  H39      1.0000 0.25340  0.02490  0.27300  Biso   1.000  H
  H40      1.0000 0.75340  0.52490  0.27300  Biso   1.000  H
  C41      1.0000 0.71265  0.83210  0.14925  Biso   1.000  C
  C42      1.0000 0.21265  0.33210  0.14925  Biso   1.000  C
  C43      1.0000 0.71265  0.16790  0.64925  Biso   1.000  C
  C44      1.0000 0.21265  0.66790  0.64925  Biso   1.000  C
  C45      1.0000 0.28735  0.16790  0.85075  Biso   1.000  C
  C46      1.0000 0.78735  0.66790  0.85075  Biso   1.000  C
  C47      1.0000 0.28735  0.83210  0.35075  Biso   1.000  C
  C48      1.0000 0.78735  0.33210  0.35075  Biso   1.000  C
  H41      1.0000 0.75520  0.78720  0.14510  Biso   1.000  H
  H42      1.0000 0.25520  0.28720  0.14510  Biso   1.000  H
  H43      1.0000 0.75520  0.21280  0.64510  Biso   1.000  H
  H44      1.0000 0.25520  0.71280  0.64510  Biso   1.000  H
  H45      1.0000 0.24480  0.21280  0.85490  Biso   1.000  H
  H46      1.0000 0.74480  0.71280  0.85490  Biso   1.000  H
  H47      1.0000 0.24480  0.78720  0.35490  Biso   1.000  H
  H48      1.0000 0.74480  0.28720  0.35490  Biso   1.000  H
  C49      1.0000 0.65474  0.75740  0.10558  Biso   1.000  C
  C50      1.0000 0.15474  0.25740  0.10558  Biso   1.000  C
  C51      1.0000 0.65474  0.24260  0.60558  Biso   1.000  C
  C52      1.0000 0.15474  0.74260  0.60558  Biso   1.000  C
  C53      1.0000 0.34526  0.24260  0.89442  Biso   1.000  C
  C54      1.0000 0.84526  0.74260  0.89442  Biso   1.000  C
  C55      1.0000 0.34526  0.75740  0.39442  Biso   1.000  C
  C56      1.0000 0.84526  0.25740  0.39442  Biso   1.000  C
  C57      1.0000 0.65554  0.60320  0.05167  Biso   1.000  C
  C58      1.0000 0.15554  0.10320  0.05167  Biso   1.000  C
  C59      1.0000 0.65554  0.39680  0.55167  Biso   1.000  C
  C60      1.0000 0.15554  0.89680  0.55167  Biso   1.000  C
  C61      1.0000 0.34446  0.39680  0.94833  Biso   1.000  C
  C62      1.0000 0.84446  0.89680  0.94833  Biso   1.000  C
  C63      1.0000 0.34446  0.60320  0.44833  Biso   1.000  C
  C64      1.0000 0.84446  0.10320  0.44833  Biso   1.000  C
  H49      1.0000 0.62670  0.52900  0.08300  Biso   1.000  H
  H50      1.0000 0.12670  0.02900  0.08300  Biso   1.000  H
  H51      1.0000 0.62670  0.47100  0.58300  Biso   1.000  H
  H52      1.0000 0.12670  0.97100  0.58300  Biso   1.000  H
  H53      1.0000 0.37330  0.47100  0.91700  Biso   1.000  H
  H54      1.0000 0.87330  0.97100  0.91700  Biso   1.000  H
  H55      1.0000 0.37330  0.52900  0.41700  Biso   1.000  H
  H56      1.0000 0.87330  0.02900  0.41700  Biso   1.000  H
  H57      1.0000 0.63890  0.61460  0.97940  Biso   1.000  H
  H58      1.0000 0.13890  0.11460  0.97940  Biso   1.000  H
  H59      1.0000 0.63890  0.38540  0.47940  Biso   1.000  H
  H60      1.0000 0.13890  0.88540  0.47940  Biso   1.000  H
  H61      1.0000 0.36110  0.38540  0.02060  Biso   1.000  H
  H62      1.0000 0.86110  0.88540  0.02060  Biso   1.000  H
  H63      1.0000 0.36110  0.61460  0.52060  Biso   1.000  H
  H64      1.0000 0.86110  0.11460  0.52060  Biso   1.000  H
  C65      1.0000 0.73402  0.39910  0.02970  Biso   1.000  C
  C66      1.0000 0.23402  0.89910  0.02970  Biso   1.000  C
  C67      1.0000 0.73402  0.60090  0.52970  Biso   1.000  C
  C68      1.0000 0.23402  0.10090  0.52970  Biso   1.000  C
  C69      1.0000 0.26598  0.60090  0.97030  Biso   1.000  C
  C70      1.0000 0.76598  0.10090  0.97030  Biso   1.000  C
  C71      1.0000 0.26598  0.39910  0.47030  Biso   1.000  C
  C72      1.0000 0.76598  0.89910  0.47030  Biso   1.000  C
  C73      1.0000 0.68265  0.30020  0.99020  Biso   1.000  C
  C74      1.0000 0.18265  0.80020  0.99020  Biso   1.000  C
  C75      1.0000 0.68265  0.69980  0.49020  Biso   1.000  C
  C76      1.0000 0.18265  0.19980  0.49020  Biso   1.000  C
  C77      1.0000 0.31735  0.69980  0.00980  Biso   1.000  C
  C78      1.0000 0.81735  0.19980  0.00980  Biso   1.000  C
  C79      1.0000 0.31735  0.30020  0.50980  Biso   1.000  C
  C80      1.0000 0.81735  0.80020  0.50980  Biso   1.000  C
  H65      1.0000 0.63760  0.33390  0.98350  Biso   1.000  H
  H66      1.0000 0.13760  0.83390  0.98350  Biso   1.000  H
  H67      1.0000 0.63760  0.66610  0.48350  Biso   1.000  H
  H68      1.0000 0.13760  0.16610  0.48350  Biso   1.000  H
  H69      1.0000 0.36240  0.66610  0.01650  Biso   1.000  H
  H70      1.0000 0.86240  0.16610  0.01650  Biso   1.000  H
  H71      1.0000 0.36240  0.33390  0.51650  Biso   1.000  H
  H72      1.0000 0.86240  0.83390  0.51650  Biso   1.000  H
  C81      1.0000 0.80140  0.35010  0.03944  Biso   1.000  C
  C82      1.0000 0.30140  0.85010  0.03944  Biso   1.000  C
  C83      1.0000 0.80140  0.64990  0.53944  Biso   1.000  C
  C84      1.0000 0.30140  0.14990  0.53944  Biso   1.000  C
  C85      1.0000 0.19860  0.64990  0.96056  Biso   1.000  C
  C86      1.0000 0.69860  0.14990  0.96056  Biso   1.000  C
  C87      1.0000 0.19860  0.35010  0.46056  Biso   1.000  C
  C88      1.0000 0.69860  0.85010  0.46056  Biso   1.000  C
  H73      1.0000 0.83580  0.41760  0.06570  Biso   1.000  H
  H74      1.0000 0.33580  0.91760  0.06570  Biso   1.000  H
  H75      1.0000 0.83580  0.58240  0.56570  Biso   1.000  H
  H76      1.0000 0.33580  0.08240  0.56570  Biso   1.000  H
  H77      1.0000 0.16420  0.58240  0.93430  Biso   1.000  H
  H78      1.0000 0.66420  0.08240  0.93430  Biso   1.000  H
  H79      1.0000 0.16420  0.41760  0.43430  Biso   1.000  H
  H80      1.0000 0.66420  0.91760  0.43430  Biso   1.000  H
