data_image0
_cell_length_a       21.8718
_cell_length_b       6.8726
_cell_length_c       8.8127
_cell_angle_alpha    90
_cell_angle_beta     100.199
_cell_angle_gamma    90

_symmetry_space_group_name_H-M    "P 1"
_symmetry_int_tables_number       1

loop_
  _symmetry_equiv_pos_as_xyz
  'x, y, z'

loop_
  _atom_site_label
  _atom_site_occupancy
  _atom_site_fract_x
  _atom_site_fract_y
  _atom_site_fract_z
  _atom_site_thermal_displace_type
  _atom_site_B_iso_or_equiv
  _atom_site_type_symbol
  C1       1.0000 0.44119  0.12766  0.33155  Biso   1.000  C
  C2       1.0000 0.55881  0.12766  0.16845  Biso   1.000  C
  C3       1.0000 0.94119  0.62766  0.33155  Biso   1.000  C
  C4       1.0000 0.05881  0.62766  0.16845  Biso   1.000  C
  C5       1.0000 0.55881  0.87234  0.66845  Biso   1.000  C
  C6       1.0000 0.44119  0.87234  0.83155  Biso   1.000  C
  C7       1.0000 0.05881  0.37234  0.66845  Biso   1.000  C
  C8       1.0000 0.94119  0.37234  0.83155  Biso   1.000  C
  C9       1.0000 0.37036  0.94449  0.16356  Biso   1.000  C
  C10      1.0000 0.62964  0.94449  0.33644  Biso   1.000  C
  C11      1.0000 0.87036  0.44449  0.16356  Biso   1.000  C
  C12      1.0000 0.12964  0.44449  0.33644  Biso   1.000  C
  C13      1.0000 0.62964  0.05551  0.83644  Biso   1.000  C
  C14      1.0000 0.37036  0.05551  0.66356  Biso   1.000  C
  C15      1.0000 0.12964  0.55551  0.83644  Biso   1.000  C
  C16      1.0000 0.87036  0.55551  0.66356  Biso   1.000  C
  C17      1.0000 0.63496  0.41278  0.45826  Biso   1.000  C
  C18      1.0000 0.36504  0.41278  0.04174  Biso   1.000  C
  C19      1.0000 0.13496  0.91278  0.45826  Biso   1.000  C
  C20      1.0000 0.86504  0.91278  0.04174  Biso   1.000  C
  C21      1.0000 0.36504  0.58722  0.54174  Biso   1.000  C
  C22      1.0000 0.63496  0.58722  0.95826  Biso   1.000  C
  C23      1.0000 0.86504  0.08722  0.54174  Biso   1.000  C
  C24      1.0000 0.13496  0.08722  0.95826  Biso   1.000  C
  C25      1.0000 0.70609  0.34567  0.30535  Biso   1.000  C
  C26      1.0000 0.29391  0.34567  0.19465  Biso   1.000  C
  C27      1.0000 0.20609  0.84567  0.30535  Biso   1.000  C
  C28      1.0000 0.79391  0.84567  0.19465  Biso   1.000  C
  C29      1.0000 0.29391  0.65433  0.69465  Biso   1.000  C
  C30      1.0000 0.70609  0.65433  0.80535  Biso   1.000  C
  C31      1.0000 0.79391  0.15433  0.69465  Biso   1.000  C
  C32      1.0000 0.20609  0.15433  0.80535  Biso   1.000  C
  N1       1.0000 0.46328  0.25590  0.40637  Biso   1.000  N
  N2       1.0000 0.53672  0.25590  0.09363  Biso   1.000  N
  N3       1.0000 0.96328  0.75590  0.40637  Biso   1.000  N
  N4       1.0000 0.03672  0.75590  0.09363  Biso   1.000  N
  N5       1.0000 0.53672  0.74410  0.59363  Biso   1.000  N
  N6       1.0000 0.46328  0.74410  0.90637  Biso   1.000  N
  N7       1.0000 0.03672  0.24410  0.59363  Biso   1.000  N
  N8       1.0000 0.96328  0.24410  0.90637  Biso   1.000  N
  N9       1.0000 0.42392  0.97208  0.25123  Biso   1.000  N
  N10      1.0000 0.57608  0.97208  0.24877  Biso   1.000  N
  N11      1.0000 0.92392  0.47208  0.25123  Biso   1.000  N
  N12      1.0000 0.07608  0.47208  0.24877  Biso   1.000  N
  N13      1.0000 0.57608  0.02792  0.74877  Biso   1.000  N
  N14      1.0000 0.42392  0.02792  0.75123  Biso   1.000  N
  N15      1.0000 0.07608  0.52792  0.74877  Biso   1.000  N
  N16      1.0000 0.92392  0.52792  0.75123  Biso   1.000  N
  N17      1.0000 0.32634  0.89792  0.07919  Biso   1.000  N
  N18      1.0000 0.67366  0.89792  0.42081  Biso   1.000  N
  N19      1.0000 0.82634  0.39792  0.07919  Biso   1.000  N
  N20      1.0000 0.17366  0.39792  0.42081  Biso   1.000  N
  N21      1.0000 0.67366  0.10208  0.92081  Biso   1.000  N
  N22      1.0000 0.32634  0.10208  0.57919  Biso   1.000  N
  N23      1.0000 0.17366  0.60208  0.92081  Biso   1.000  N
  N24      1.0000 0.82634  0.60208  0.57919  Biso   1.000  N
  N25      1.0000 0.58718  0.40561  0.49784  Biso   1.000  N
  N26      1.0000 0.41282  0.40561  0.00216  Biso   1.000  N
  N27      1.0000 0.08718  0.90561  0.49784  Biso   1.000  N
  N28      1.0000 0.91282  0.90561  0.00216  Biso   1.000  N
  N29      1.0000 0.41282  0.59439  0.50216  Biso   1.000  N
  N30      1.0000 0.58718  0.59439  0.99784  Biso   1.000  N
  N31      1.0000 0.91282  0.09439  0.50216  Biso   1.000  N
  N32      1.0000 0.08718  0.09439  0.99784  Biso   1.000  N
  N33      1.0000 0.69099  0.43171  0.42618  Biso   1.000  N
  N34      1.0000 0.30901  0.43171  0.07382  Biso   1.000  N
  N35      1.0000 0.19099  0.93171  0.42618  Biso   1.000  N
  N36      1.0000 0.80901  0.93171  0.07382  Biso   1.000  N
  N37      1.0000 0.30901  0.56829  0.57382  Biso   1.000  N
  N38      1.0000 0.69099  0.56829  0.92618  Biso   1.000  N
  N39      1.0000 0.80901  0.06829  0.57382  Biso   1.000  N
  N40      1.0000 0.19099  0.06829  0.92618  Biso   1.000  N
  N41      1.0000 0.72458  0.27637  0.20277  Biso   1.000  N
  N42      1.0000 0.27542  0.27637  0.29723  Biso   1.000  N
  N43      1.0000 0.22458  0.77637  0.20277  Biso   1.000  N
  N44      1.0000 0.77542  0.77637  0.29723  Biso   1.000  N
  N45      1.0000 0.27542  0.72363  0.79723  Biso   1.000  N
  N46      1.0000 0.72458  0.72363  0.70277  Biso   1.000  N
  N47      1.0000 0.77542  0.22363  0.79723  Biso   1.000  N
  N48      1.0000 0.22458  0.22363  0.70277  Biso   1.000  N
  O1       1.0000 0.50000  0.63494  0.25000  Biso   1.000  O
  O2       1.0000 0.00000  0.13494  0.25000  Biso   1.000  O
  O3       1.0000 0.50000  0.36506  0.75000  Biso   1.000  O
  O4       1.0000 0.00000  0.86506  0.75000  Biso   1.000  O
  H1       1.0000 0.52970  0.72000  0.24800  Biso   1.000  H
  H2       1.0000 0.47030  0.72000  0.25200  Biso   1.000  H
  H3       1.0000 0.02970  0.22000  0.24800  Biso   1.000  H
  H4       1.0000 0.97030  0.22000  0.25200  Biso   1.000  H
  H5       1.0000 0.47030  0.28000  0.75200  Biso   1.000  H
  H6       1.0000 0.52970  0.28000  0.74800  Biso   1.000  H
  H7       1.0000 0.97030  0.78000  0.75200  Biso   1.000  H
  H8       1.0000 0.02970  0.78000  0.74800  Biso   1.000  H
  Cu1      1.0000 0.50000  0.50000  0.50000  Biso   1.000  Cu
  Cu2      1.0000 0.50000  0.50000  0.00000  Biso   1.000  Cu
  Cu3      1.0000 0.00000  0.00000  0.50000  Biso   1.000  Cu
  Cu4      1.0000 0.00000  0.00000  0.00000  Biso   1.000  Cu
  Cu5      1.0000 0.75000  0.25000  0.00000  Biso   1.000  Cu
  Cu6      1.0000 0.25000  0.25000  0.50000  Biso   1.000  Cu
  Cu7      1.0000 0.25000  0.75000  0.00000  Biso   1.000  Cu
  Cu8      1.0000 0.75000  0.75000  0.50000  Biso   1.000  Cu
