data_image0
_cell_length_a       13.0756
_cell_length_b       10.3423
_cell_length_c       21.152
_cell_angle_alpha    90
_cell_angle_beta     97.9173
_cell_angle_gamma    90

_symmetry_space_group_name_H-M    "P 1"
_symmetry_int_tables_number       1

loop_
  _symmetry_equiv_pos_as_xyz
  'x, y, z'

loop_
  _atom_site_label
  _atom_site_occupancy
  _atom_site_fract_x
  _atom_site_fract_y
  _atom_site_fract_z
  _atom_site_thermal_displace_type
  _atom_site_B_iso_or_equiv
  _atom_site_type_symbol
  Cu1      1.0000 0.98078  0.23248  0.33992  Biso   1.000  Cu
  Cu2      1.0000 0.01922  0.73248  0.16008  Biso   1.000  Cu
  Cu3      1.0000 0.01922  0.76752  0.66008  Biso   1.000  Cu
  Cu4      1.0000 0.98078  0.26752  0.83992  Biso   1.000  Cu
  Cu5      1.0000 0.12926  0.01405  0.30897  Biso   1.000  Cu
  Cu6      1.0000 0.87074  0.51405  0.19103  Biso   1.000  Cu
  Cu7      1.0000 0.87074  0.98595  0.69103  Biso   1.000  Cu
  Cu8      1.0000 0.12926  0.48595  0.80897  Biso   1.000  Cu
  O1       1.0000 0.11030  0.30430  0.38236  Biso   1.000  O
  O2       1.0000 0.88970  0.80430  0.11764  Biso   1.000  O
  O3       1.0000 0.88970  0.69570  0.61764  Biso   1.000  O
  O4       1.0000 0.11030  0.19570  0.88236  Biso   1.000  O
  O5       1.0000 0.21590  0.14180  0.36064  Biso   1.000  O
  O6       1.0000 0.78410  0.64180  0.13936  Biso   1.000  O
  O7       1.0000 0.78410  0.85820  0.63936  Biso   1.000  O
  O8       1.0000 0.21590  0.35820  0.86064  Biso   1.000  O
  O9       1.0000 0.38410  0.10190  0.43950  Biso   1.000  O
  O10      1.0000 0.61590  0.60190  0.06050  Biso   1.000  O
  O11      1.0000 0.61590  0.89810  0.56050  Biso   1.000  O
  O12      1.0000 0.38410  0.39810  0.93950  Biso   1.000  O
  O13      1.0000 0.04080  0.21150  0.26054  Biso   1.000  O
  O14      1.0000 0.95920  0.71150  0.23946  Biso   1.000  O
  O15      1.0000 0.95920  0.78850  0.73946  Biso   1.000  O
  O16      1.0000 0.04080  0.28850  0.76054  Biso   1.000  O
  O17      1.0000 0.96730  0.52190  0.13176  Biso   1.000  O
  O18      1.0000 0.03270  0.02190  0.36824  Biso   1.000  O
  O19      1.0000 0.03270  0.47810  0.86824  Biso   1.000  O
  O20      1.0000 0.96730  0.97810  0.63176  Biso   1.000  O
  O21      1.0000 0.95460  0.39230  0.24404  Biso   1.000  O
  O22      1.0000 0.04540  0.89230  0.25596  Biso   1.000  O
  O23      1.0000 0.04540  0.60770  0.75596  Biso   1.000  O
  O24      1.0000 0.95460  0.10770  0.74404  Biso   1.000  O
  O25      1.0000 0.24120  0.98330  0.25766  Biso   1.000  O
  O26      1.0000 0.75880  0.48330  0.24234  Biso   1.000  O
  O27      1.0000 0.75880  0.01670  0.74234  Biso   1.000  O
  O28      1.0000 0.24120  0.51670  0.75766  Biso   1.000  O
  O29      1.0000 0.28830  0.86980  0.34530  Biso   1.000  O
  O30      1.0000 0.71170  0.36980  0.15470  Biso   1.000  O
  O31      1.0000 0.71170  0.13020  0.65470  Biso   1.000  O
  O32      1.0000 0.28830  0.63020  0.84530  Biso   1.000  O
  O33      1.0000 0.33630  0.93830  0.16240  Biso   1.000  O
  O34      1.0000 0.66370  0.43830  0.33760  Biso   1.000  O
  O35      1.0000 0.66370  0.06170  0.83760  Biso   1.000  O
  O36      1.0000 0.33630  0.56170  0.66240  Biso   1.000  O
  N1       1.0000 0.91000  0.26360  0.41630  Biso   1.000  N
  N2       1.0000 0.09000  0.76360  0.08370  Biso   1.000  N
  N3       1.0000 0.09000  0.73640  0.58370  Biso   1.000  N
  N4       1.0000 0.91000  0.23640  0.91630  Biso   1.000  N
  N5       1.0000 0.84350  0.15940  0.30460  Biso   1.000  N
  N6       1.0000 0.15650  0.65940  0.19540  Biso   1.000  N
  N7       1.0000 0.15650  0.84060  0.69540  Biso   1.000  N
  N8       1.0000 0.84350  0.34060  0.80460  Biso   1.000  N
  C1       1.0000 0.94780  0.31000  0.47270  Biso   1.000  C
  C2       1.0000 0.05220  0.81000  0.02730  Biso   1.000  C
  C3       1.0000 0.05220  0.69000  0.52730  Biso   1.000  C
  C4       1.0000 0.94780  0.19000  0.97270  Biso   1.000  C
  C5       1.0000 0.89720  0.29900  0.52620  Biso   1.000  C
  C6       1.0000 0.10280  0.79900  0.97380  Biso   1.000  C
  C7       1.0000 0.10280  0.70100  0.47380  Biso   1.000  C
  C8       1.0000 0.89720  0.20100  0.02620  Biso   1.000  C
  C9       1.0000 0.80470  0.23500  0.52130  Biso   1.000  C
  C10      1.0000 0.19530  0.73500  0.97870  Biso   1.000  C
  C11      1.0000 0.19530  0.76500  0.47870  Biso   1.000  C
  C12      1.0000 0.80470  0.26500  0.02130  Biso   1.000  C
  C13      1.0000 0.76150  0.18490  0.46190  Biso   1.000  C
  C14      1.0000 0.23850  0.68490  0.03810  Biso   1.000  C
  C15      1.0000 0.23850  0.81510  0.53810  Biso   1.000  C
  C16      1.0000 0.76150  0.31510  0.96190  Biso   1.000  C
  C17      1.0000 0.66610  0.11170  0.45060  Biso   1.000  C
  C18      1.0000 0.33390  0.61170  0.04940  Biso   1.000  C
  C19      1.0000 0.33390  0.88830  0.54940  Biso   1.000  C
  C20      1.0000 0.66610  0.38830  0.95060  Biso   1.000  C
  C21      1.0000 0.63210  0.06260  0.39350  Biso   1.000  C
  C22      1.0000 0.36790  0.56260  0.10650  Biso   1.000  C
  C23      1.0000 0.36790  0.93740  0.60650  Biso   1.000  C
  C24      1.0000 0.63210  0.43740  0.89350  Biso   1.000  C
  C25      1.0000 0.68820  0.07600  0.34050  Biso   1.000  C
  C26      1.0000 0.31180  0.57600  0.15950  Biso   1.000  C
  C27      1.0000 0.31180  0.92400  0.65950  Biso   1.000  C
  C28      1.0000 0.68820  0.42400  0.84050  Biso   1.000  C
  C29      1.0000 0.65950  0.02270  0.28000  Biso   1.000  C
  C30      1.0000 0.34050  0.52270  0.22000  Biso   1.000  C
  C31      1.0000 0.34050  0.97730  0.72000  Biso   1.000  C
  C32      1.0000 0.65950  0.47730  0.78000  Biso   1.000  C
  C33      1.0000 0.72220  0.03620  0.23410  Biso   1.000  C
  C34      1.0000 0.27780  0.53620  0.26590  Biso   1.000  C
  C35      1.0000 0.27780  0.96380  0.76590  Biso   1.000  C
  C36      1.0000 0.72220  0.46380  0.73410  Biso   1.000  C
  C37      1.0000 0.81410  0.10440  0.24850  Biso   1.000  C
  C38      1.0000 0.18590  0.60440  0.25150  Biso   1.000  C
  C39      1.0000 0.18590  0.89560  0.75150  Biso   1.000  C
  C40      1.0000 0.81410  0.39560  0.74850  Biso   1.000  C
  C41      1.0000 0.78100  0.14580  0.35010  Biso   1.000  C
  C42      1.0000 0.21900  0.64580  0.14990  Biso   1.000  C
  C43      1.0000 0.21900  0.85420  0.64990  Biso   1.000  C
  C44      1.0000 0.78100  0.35420  0.85010  Biso   1.000  C
  C45      1.0000 0.81710  0.20160  0.41120  Biso   1.000  C
  C46      1.0000 0.18290  0.70160  0.08880  Biso   1.000  C
  C47      1.0000 0.18290  0.79840  0.58880  Biso   1.000  C
  C48      1.0000 0.81710  0.29840  0.91120  Biso   1.000  C
  C49      1.0000 0.19640  0.24540  0.38910  Biso   1.000  C
  C50      1.0000 0.80360  0.74540  0.11090  Biso   1.000  C
  C51      1.0000 0.80360  0.75460  0.61090  Biso   1.000  C
  C52      1.0000 0.19640  0.25460  0.88910  Biso   1.000  C
  C53      1.0000 0.28160  0.29880  0.43590  Biso   1.000  C
  C54      1.0000 0.71840  0.79880  0.06410  Biso   1.000  C
  C55      1.0000 0.71840  0.70120  0.56410  Biso   1.000  C
  C56      1.0000 0.28160  0.20120  0.93590  Biso   1.000  C
  C57      1.0000 0.36660  0.22320  0.46000  Biso   1.000  C
  C58      1.0000 0.63340  0.72320  0.04000  Biso   1.000  C
  C59      1.0000 0.63340  0.77680  0.54000  Biso   1.000  C
  C60      1.0000 0.36660  0.27680  0.96000  Biso   1.000  C
  C61      1.0000 0.43740  0.27160  0.50920  Biso   1.000  C
  C62      1.0000 0.56260  0.77160  0.99080  Biso   1.000  C
  C63      1.0000 0.56260  0.72840  0.49080  Biso   1.000  C
  C64      1.0000 0.43740  0.22840  0.00920  Biso   1.000  C
  C65      1.0000 0.42600  0.39390  0.53280  Biso   1.000  C
  C66      1.0000 0.57400  0.89390  0.96720  Biso   1.000  C
  C67      1.0000 0.57400  0.60610  0.46720  Biso   1.000  C
  C68      1.0000 0.42600  0.10610  0.03280  Biso   1.000  C
  C69      1.0000 0.34440  0.47110  0.50790  Biso   1.000  C
  C70      1.0000 0.65560  0.97110  0.99210  Biso   1.000  C
  C71      1.0000 0.65560  0.52890  0.49210  Biso   1.000  C
  C72      1.0000 0.34440  0.02890  0.00790  Biso   1.000  C
  C73      1.0000 0.27260  0.42310  0.46050  Biso   1.000  C
  C74      1.0000 0.72740  0.92310  0.03950  Biso   1.000  C
  C75      1.0000 0.72740  0.57690  0.53950  Biso   1.000  C
  C76      1.0000 0.27260  0.07690  0.96050  Biso   1.000  C
  C77      1.0000 0.01630  0.31070  0.22530  Biso   1.000  C
  C78      1.0000 0.98370  0.81070  0.27470  Biso   1.000  C
  C79      1.0000 0.98370  0.68930  0.77470  Biso   1.000  C
  C80      1.0000 0.01630  0.18930  0.72530  Biso   1.000  C
  C81      1.0000 0.06000  0.32490  0.16600  Biso   1.000  C
  C82      1.0000 0.94000  0.82490  0.33400  Biso   1.000  C
  C83      1.0000 0.94000  0.67510  0.83400  Biso   1.000  C
  C84      1.0000 0.06000  0.17510  0.66600  Biso   1.000  C
  C85      1.0000 0.03480  0.42870  0.12330  Biso   1.000  C
  C86      1.0000 0.96520  0.92870  0.37670  Biso   1.000  C
  C87      1.0000 0.96520  0.57130  0.87670  Biso   1.000  C
  C88      1.0000 0.03480  0.07130  0.62330  Biso   1.000  C
  C89      1.0000 0.08310  0.43470  0.06820  Biso   1.000  C
  C90      1.0000 0.91690  0.93470  0.43180  Biso   1.000  C
  C91      1.0000 0.91690  0.56530  0.93180  Biso   1.000  C
  C92      1.0000 0.08310  0.06530  0.56820  Biso   1.000  C
  C93      1.0000 0.15500  0.34470  0.05630  Biso   1.000  C
  C94      1.0000 0.84500  0.84470  0.44370  Biso   1.000  C
  C95      1.0000 0.84500  0.65530  0.94370  Biso   1.000  C
  C96      1.0000 0.15500  0.15530  0.55630  Biso   1.000  C
  C97      1.0000 0.18150  0.24220  0.09810  Biso   1.000  C
  C98      1.0000 0.81850  0.74220  0.40190  Biso   1.000  C
  C99      1.0000 0.81850  0.75780  0.90190  Biso   1.000  C
  C100     1.0000 0.18150  0.25780  0.59810  Biso   1.000  C
  C101     1.0000 0.13440  0.23270  0.15160  Biso   1.000  C
  C102     1.0000 0.86560  0.73270  0.34840  Biso   1.000  C
  C103     1.0000 0.86560  0.76730  0.84840  Biso   1.000  C
  C104     1.0000 0.13440  0.26730  0.65160  Biso   1.000  C
  C105     1.0000 0.30200  0.90430  0.29110  Biso   1.000  C
  C106     1.0000 0.69800  0.40430  0.20890  Biso   1.000  C
  C107     1.0000 0.69800  0.09570  0.70890  Biso   1.000  C
  C108     1.0000 0.30200  0.59570  0.79110  Biso   1.000  C
  C109     1.0000 0.39150  0.85240  0.26130  Biso   1.000  C
  C110     1.0000 0.60850  0.35240  0.23870  Biso   1.000  C
  C111     1.0000 0.60850  0.14760  0.73870  Biso   1.000  C
  C112     1.0000 0.39150  0.64760  0.76130  Biso   1.000  C
  C113     1.0000 0.46380  0.77200  0.29760  Biso   1.000  C
  C114     1.0000 0.53620  0.27200  0.20240  Biso   1.000  C
  C115     1.0000 0.53620  0.22800  0.70240  Biso   1.000  C
  C116     1.0000 0.46380  0.72800  0.79760  Biso   1.000  C
  C117     1.0000 0.54540  0.72160  0.27080  Biso   1.000  C
  C118     1.0000 0.45460  0.22160  0.22920  Biso   1.000  C
  C119     1.0000 0.45460  0.27840  0.72920  Biso   1.000  C
  C120     1.0000 0.54540  0.77840  0.77080  Biso   1.000  C
  C121     1.0000 0.55560  0.74760  0.20810  Biso   1.000  C
  C122     1.0000 0.44440  0.24760  0.29190  Biso   1.000  C
  C123     1.0000 0.44440  0.25240  0.79190  Biso   1.000  C
  C124     1.0000 0.55560  0.75240  0.70810  Biso   1.000  C
  C125     1.0000 0.48570  0.82460  0.17230  Biso   1.000  C
  C126     1.0000 0.51430  0.32460  0.32770  Biso   1.000  C
  C127     1.0000 0.51430  0.17540  0.82770  Biso   1.000  C
  C128     1.0000 0.48570  0.67540  0.67230  Biso   1.000  C
  C129     1.0000 0.40300  0.87740  0.19780  Biso   1.000  C
  C130     1.0000 0.59700  0.37740  0.30220  Biso   1.000  C
  C131     1.0000 0.59700  0.12260  0.80220  Biso   1.000  C
  C132     1.0000 0.40300  0.62260  0.69780  Biso   1.000  C
  H1       1.0000 0.00500  0.34700  0.47600  Biso   1.000  H
  H2       1.0000 0.99500  0.84700  0.02400  Biso   1.000  H
  H3       1.0000 0.99500  0.65300  0.52400  Biso   1.000  H
  H4       1.0000 0.00500  0.15300  0.97600  Biso   1.000  H
  H5       1.0000 0.92700  0.33900  0.56200  Biso   1.000  H
  H6       1.0000 0.07300  0.83900  0.93800  Biso   1.000  H
  H7       1.0000 0.07300  0.66100  0.43800  Biso   1.000  H
  H8       1.0000 0.92700  0.16100  0.06200  Biso   1.000  H
  H9       1.0000 0.77700  0.22500  0.55400  Biso   1.000  H
  H10      1.0000 0.22300  0.72500  0.94600  Biso   1.000  H
  H11      1.0000 0.22300  0.77500  0.44600  Biso   1.000  H
  H12      1.0000 0.77700  0.27500  0.05400  Biso   1.000  H
  H13      1.0000 0.63800  0.09800  0.48600  Biso   1.000  H
  H14      1.0000 0.36200  0.59800  0.01400  Biso   1.000  H
  H15      1.0000 0.36200  0.90200  0.51400  Biso   1.000  H
  H16      1.0000 0.63800  0.40200  0.98600  Biso   1.000  H
  H17      1.0000 0.57700  0.01500  0.38700  Biso   1.000  H
  H18      1.0000 0.42300  0.51500  0.11300  Biso   1.000  H
  H19      1.0000 0.42300  0.98500  0.61300  Biso   1.000  H
  H20      1.0000 0.57700  0.48500  0.88700  Biso   1.000  H
  H21      1.0000 0.60200  0.97600  0.27200  Biso   1.000  H
  H22      1.0000 0.39800  0.47600  0.22800  Biso   1.000  H
  H23      1.0000 0.39800  0.02400  0.72800  Biso   1.000  H
  H24      1.0000 0.60200  0.52400  0.77200  Biso   1.000  H
  H25      1.0000 0.70800  0.99200  0.19300  Biso   1.000  H
  H26      1.0000 0.29200  0.49200  0.30700  Biso   1.000  H
  H27      1.0000 0.29200  0.00800  0.80700  Biso   1.000  H
  H28      1.0000 0.70800  0.50800  0.69300  Biso   1.000  H
  H29      1.0000 0.85100  0.11700  0.22300  Biso   1.000  H
  H30      1.0000 0.14900  0.61700  0.27700  Biso   1.000  H
  H31      1.0000 0.14900  0.88300  0.77700  Biso   1.000  H
  H32      1.0000 0.85100  0.38300  0.72300  Biso   1.000  H
  H33      1.0000 0.34900  0.09200  0.41500  Biso   1.000  H
  H34      1.0000 0.65100  0.59200  0.08500  Biso   1.000  H
  H35      1.0000 0.65100  0.90800  0.58500  Biso   1.000  H
  H36      1.0000 0.34900  0.40800  0.91500  Biso   1.000  H
  H37      1.0000 0.48400  0.22100  0.52500  Biso   1.000  H
  H38      1.0000 0.51600  0.72100  0.97500  Biso   1.000  H
  H39      1.0000 0.51600  0.77900  0.47500  Biso   1.000  H
  H40      1.0000 0.48400  0.27900  0.02500  Biso   1.000  H
  H41      1.0000 0.46600  0.42300  0.56100  Biso   1.000  H
  H42      1.0000 0.53400  0.92300  0.93900  Biso   1.000  H
  H43      1.0000 0.53400  0.57700  0.43900  Biso   1.000  H
  H44      1.0000 0.46600  0.07700  0.06100  Biso   1.000  H
  H45      1.0000 0.33600  0.54600  0.52300  Biso   1.000  H
  H46      1.0000 0.66400  0.04600  0.97700  Biso   1.000  H
  H47      1.0000 0.66400  0.45400  0.47700  Biso   1.000  H
  H48      1.0000 0.33600  0.95400  0.02300  Biso   1.000  H
  H49      1.0000 0.22000  0.46300  0.44800  Biso   1.000  H
  H50      1.0000 0.78000  0.96300  0.05200  Biso   1.000  H
  H51      1.0000 0.78000  0.53700  0.55200  Biso   1.000  H
  H52      1.0000 0.22000  0.03700  0.94800  Biso   1.000  H
  H53      1.0000 0.06600  0.50300  0.04400  Biso   1.000  H
  H54      1.0000 0.93400  0.00300  0.45600  Biso   1.000  H
  H55      1.0000 0.93400  0.49700  0.95600  Biso   1.000  H
  H56      1.0000 0.06600  0.99700  0.54400  Biso   1.000  H
  H57      1.0000 0.18400  0.35000  0.02300  Biso   1.000  H
  H58      1.0000 0.81600  0.85000  0.47700  Biso   1.000  H
  H59      1.0000 0.81600  0.65000  0.97700  Biso   1.000  H
  H60      1.0000 0.18400  0.15000  0.52300  Biso   1.000  H
  H61      1.0000 0.23700  0.18000  0.09100  Biso   1.000  H
  H62      1.0000 0.76300  0.68000  0.40900  Biso   1.000  H
  H63      1.0000 0.76300  0.82000  0.90900  Biso   1.000  H
  H64      1.0000 0.23700  0.32000  0.59100  Biso   1.000  H
  H65      1.0000 0.15100  0.16200  0.17900  Biso   1.000  H
  H66      1.0000 0.84900  0.66200  0.32100  Biso   1.000  H
  H67      1.0000 0.84900  0.83800  0.82100  Biso   1.000  H
  H68      1.0000 0.15100  0.33800  0.67900  Biso   1.000  H
  H69      1.0000 0.30700  0.95700  0.17600  Biso   1.000  H
  H70      1.0000 0.69300  0.45700  0.32400  Biso   1.000  H
  H71      1.0000 0.69300  0.04300  0.82400  Biso   1.000  H
  H72      1.0000 0.30700  0.54300  0.67600  Biso   1.000  H
  H73      1.0000 0.49000  0.83900  0.13600  Biso   1.000  H
  H74      1.0000 0.51000  0.33900  0.36400  Biso   1.000  H
  H75      1.0000 0.51000  0.16100  0.86400  Biso   1.000  H
  H76      1.0000 0.49000  0.66100  0.63600  Biso   1.000  H
  H77      1.0000 0.60600  0.71100  0.19000  Biso   1.000  H
  H78      1.0000 0.39400  0.21100  0.31000  Biso   1.000  H
  H79      1.0000 0.39400  0.28900  0.81000  Biso   1.000  H
  H80      1.0000 0.60600  0.78900  0.69000  Biso   1.000  H
  H81      1.0000 0.59000  0.67500  0.29600  Biso   1.000  H
  H82      1.0000 0.41000  0.17500  0.20400  Biso   1.000  H
  H83      1.0000 0.41000  0.32500  0.70400  Biso   1.000  H
  H84      1.0000 0.59000  0.82500  0.79600  Biso   1.000  H
  O37      1.0000 0.44370  0.73480  0.34930  Biso   1.000  O
  O38      1.0000 0.55630  0.23480  0.15070  Biso   1.000  O
  O39      1.0000 0.55630  0.26520  0.65070  Biso   1.000  O
  O40      1.0000 0.44370  0.76520  0.84930  Biso   1.000  O
