data_image0
_cell_length_a       13.2402
_cell_length_b       10.3757
_cell_length_c       21.3011
_cell_angle_alpha    90
_cell_angle_beta     97.6789
_cell_angle_gamma    90

_symmetry_space_group_name_H-M    "P 1"
_symmetry_int_tables_number       1

loop_
  _symmetry_equiv_pos_as_xyz
  'x, y, z'

loop_
  _atom_site_label
  _atom_site_occupancy
  _atom_site_fract_x
  _atom_site_fract_y
  _atom_site_fract_z
  _atom_site_thermal_displace_type
  _atom_site_B_iso_or_equiv
  _atom_site_type_symbol
  Cu1      1.0000 0.98140  0.22778  0.34047  Biso   1.000  Cu
  Cu2      1.0000 0.01860  0.72778  0.15953  Biso   1.000  Cu
  Cu3      1.0000 0.01860  0.77222  0.65953  Biso   1.000  Cu
  Cu4      1.0000 0.98140  0.27222  0.84047  Biso   1.000  Cu
  Cu5      1.0000 0.12859  0.00770  0.30915  Biso   1.000  Cu
  Cu6      1.0000 0.87141  0.50770  0.19085  Biso   1.000  Cu
  Cu7      1.0000 0.87141  0.99230  0.69085  Biso   1.000  Cu
  Cu8      1.0000 0.12859  0.49230  0.80915  Biso   1.000  Cu
  O1       1.0000 0.11030  0.29740  0.38170  Biso   1.000  O
  O2       1.0000 0.88970  0.79740  0.11830  Biso   1.000  O
  O3       1.0000 0.88970  0.70260  0.61830  Biso   1.000  O
  O4       1.0000 0.11030  0.20260  0.88170  Biso   1.000  O
  O5       1.0000 0.21340  0.13620  0.36020  Biso   1.000  O
  O6       1.0000 0.78660  0.63620  0.13980  Biso   1.000  O
  O7       1.0000 0.78660  0.86380  0.63980  Biso   1.000  O
  O8       1.0000 0.21340  0.36380  0.86020  Biso   1.000  O
  O9       1.0000 0.37990  0.09820  0.43650  Biso   1.000  O
  O10      1.0000 0.62010  0.59820  0.06350  Biso   1.000  O
  O11      1.0000 0.62010  0.90180  0.56350  Biso   1.000  O
  O12      1.0000 0.37990  0.40180  0.93650  Biso   1.000  O
  O13      1.0000 0.03900  0.20830  0.26080  Biso   1.000  O
  O14      1.0000 0.96100  0.70830  0.23920  Biso   1.000  O
  O15      1.0000 0.96100  0.79170  0.73920  Biso   1.000  O
  O16      1.0000 0.03900  0.29170  0.76080  Biso   1.000  O
  O17      1.0000 0.96750  0.51550  0.13250  Biso   1.000  O
  O18      1.0000 0.03250  0.01550  0.36750  Biso   1.000  O
  O19      1.0000 0.03250  0.48450  0.86750  Biso   1.000  O
  O20      1.0000 0.96750  0.98450  0.63250  Biso   1.000  O
  O21      1.0000 0.95360  0.38720  0.24410  Biso   1.000  O
  O22      1.0000 0.04640  0.88720  0.25590  Biso   1.000  O
  O23      1.0000 0.04640  0.61280  0.75590  Biso   1.000  O
  O24      1.0000 0.95360  0.11280  0.74410  Biso   1.000  O
  O25      1.0000 0.23970  0.97730  0.25870  Biso   1.000  O
  O26      1.0000 0.76030  0.47730  0.24130  Biso   1.000  O
  O27      1.0000 0.76030  0.02270  0.74130  Biso   1.000  O
  O28      1.0000 0.23970  0.52270  0.75870  Biso   1.000  O
  O29      1.0000 0.28390  0.86300  0.34410  Biso   1.000  O
  O30      1.0000 0.71610  0.36300  0.15590  Biso   1.000  O
  O31      1.0000 0.71610  0.13700  0.65590  Biso   1.000  O
  O32      1.0000 0.28390  0.63700  0.84410  Biso   1.000  O
  O33      1.0000 0.33600  0.93720  0.16480  Biso   1.000  O
  O34      1.0000 0.66400  0.43720  0.33520  Biso   1.000  O
  O35      1.0000 0.66400  0.06280  0.83520  Biso   1.000  O
  O36      1.0000 0.33600  0.56280  0.66480  Biso   1.000  O
  N1       1.0000 0.91200  0.26120  0.41640  Biso   1.000  N
  N2       1.0000 0.08800  0.76120  0.08360  Biso   1.000  N
  N3       1.0000 0.08800  0.73880  0.58360  Biso   1.000  N
  N4       1.0000 0.91200  0.23880  0.91640  Biso   1.000  N
  N5       1.0000 0.84500  0.15440  0.30650  Biso   1.000  N
  N6       1.0000 0.15500  0.65440  0.19350  Biso   1.000  N
  N7       1.0000 0.15500  0.84560  0.69350  Biso   1.000  N
  N8       1.0000 0.84500  0.34560  0.80650  Biso   1.000  N
  C1       1.0000 0.95100  0.31190  0.47220  Biso   1.000  C
  C2       1.0000 0.04900  0.81190  0.02780  Biso   1.000  C
  C3       1.0000 0.04900  0.68810  0.52780  Biso   1.000  C
  C4       1.0000 0.95100  0.18810  0.97220  Biso   1.000  C
  C5       1.0000 0.89920  0.30330  0.52470  Biso   1.000  C
  C6       1.0000 0.10080  0.80330  0.97530  Biso   1.000  C
  C7       1.0000 0.10080  0.69670  0.47530  Biso   1.000  C
  C8       1.0000 0.89920  0.19670  0.02470  Biso   1.000  C
  C9       1.0000 0.80890  0.24080  0.52140  Biso   1.000  C
  C10      1.0000 0.19110  0.74080  0.97860  Biso   1.000  C
  C11      1.0000 0.19110  0.75920  0.47860  Biso   1.000  C
  C12      1.0000 0.80890  0.25920  0.02140  Biso   1.000  C
  C13      1.0000 0.76490  0.18680  0.46270  Biso   1.000  C
  C14      1.0000 0.23510  0.68680  0.03730  Biso   1.000  C
  C15      1.0000 0.23510  0.81320  0.53730  Biso   1.000  C
  C16      1.0000 0.76490  0.31320  0.96270  Biso   1.000  C
  C17      1.0000 0.66960  0.11400  0.45190  Biso   1.000  C
  C18      1.0000 0.33040  0.61400  0.04810  Biso   1.000  C
  C19      1.0000 0.33040  0.88600  0.54810  Biso   1.000  C
  C20      1.0000 0.66960  0.38600  0.95190  Biso   1.000  C
  C21      1.0000 0.63630  0.06420  0.39550  Biso   1.000  C
  C22      1.0000 0.36370  0.56420  0.10450  Biso   1.000  C
  C23      1.0000 0.36370  0.93580  0.60450  Biso   1.000  C
  C24      1.0000 0.63630  0.43580  0.89550  Biso   1.000  C
  C25      1.0000 0.69060  0.07440  0.34250  Biso   1.000  C
  C26      1.0000 0.30940  0.57440  0.15750  Biso   1.000  C
  C27      1.0000 0.30940  0.92560  0.65750  Biso   1.000  C
  C28      1.0000 0.69060  0.42560  0.84250  Biso   1.000  C
  C29      1.0000 0.66300  0.01960  0.28300  Biso   1.000  C
  C30      1.0000 0.33700  0.51960  0.21700  Biso   1.000  C
  C31      1.0000 0.33700  0.98040  0.71700  Biso   1.000  C
  C32      1.0000 0.66300  0.48040  0.78300  Biso   1.000  C
  C33      1.0000 0.72500  0.03090  0.23810  Biso   1.000  C
  C34      1.0000 0.27500  0.53090  0.26190  Biso   1.000  C
  C35      1.0000 0.27500  0.96910  0.76190  Biso   1.000  C
  C36      1.0000 0.72500  0.46910  0.73810  Biso   1.000  C
  C37      1.0000 0.81660  0.09800  0.25040  Biso   1.000  C
  C38      1.0000 0.18340  0.59800  0.24960  Biso   1.000  C
  C39      1.0000 0.18340  0.90200  0.74960  Biso   1.000  C
  C40      1.0000 0.81660  0.40200  0.75040  Biso   1.000  C
  C41      1.0000 0.78420  0.14250  0.35220  Biso   1.000  C
  C42      1.0000 0.21580  0.64250  0.14780  Biso   1.000  C
  C43      1.0000 0.21580  0.85750  0.64780  Biso   1.000  C
  C44      1.0000 0.78420  0.35750  0.85220  Biso   1.000  C
  C45      1.0000 0.82040  0.20080  0.41160  Biso   1.000  C
  C46      1.0000 0.17960  0.70080  0.08840  Biso   1.000  C
  C47      1.0000 0.17960  0.79920  0.58840  Biso   1.000  C
  C48      1.0000 0.82040  0.29920  0.91160  Biso   1.000  C
  C49      1.0000 0.19400  0.24020  0.38810  Biso   1.000  C
  C50      1.0000 0.80600  0.74020  0.11190  Biso   1.000  C
  C51      1.0000 0.80600  0.75980  0.61190  Biso   1.000  C
  C52      1.0000 0.19400  0.25980  0.88810  Biso   1.000  C
  C53      1.0000 0.27920  0.29220  0.43420  Biso   1.000  C
  C54      1.0000 0.72080  0.79220  0.06580  Biso   1.000  C
  C55      1.0000 0.72080  0.70780  0.56580  Biso   1.000  C
  C56      1.0000 0.27920  0.20780  0.93420  Biso   1.000  C
  C57      1.0000 0.36300  0.21780  0.45720  Biso   1.000  C
  C58      1.0000 0.63700  0.71780  0.04280  Biso   1.000  C
  C59      1.0000 0.63700  0.78220  0.54280  Biso   1.000  C
  C60      1.0000 0.36300  0.28220  0.95720  Biso   1.000  C
  C61      1.0000 0.43450  0.26640  0.50560  Biso   1.000  C
  C62      1.0000 0.56550  0.76640  0.99440  Biso   1.000  C
  C63      1.0000 0.56550  0.73360  0.49440  Biso   1.000  C
  C64      1.0000 0.43450  0.23360  0.00560  Biso   1.000  C
  C65      1.0000 0.42280  0.38950  0.52920  Biso   1.000  C
  C66      1.0000 0.57720  0.88950  0.97080  Biso   1.000  C
  C67      1.0000 0.57720  0.61050  0.47080  Biso   1.000  C
  C68      1.0000 0.42280  0.11050  0.02920  Biso   1.000  C
  C69      1.0000 0.34160  0.46560  0.50480  Biso   1.000  C
  C70      1.0000 0.65840  0.96560  0.99520  Biso   1.000  C
  C71      1.0000 0.65840  0.53440  0.49520  Biso   1.000  C
  C72      1.0000 0.34160  0.03440  0.00480  Biso   1.000  C
  C73      1.0000 0.27040  0.41670  0.45840  Biso   1.000  C
  C74      1.0000 0.72960  0.91670  0.04160  Biso   1.000  C
  C75      1.0000 0.72960  0.58330  0.54160  Biso   1.000  C
  C76      1.0000 0.27040  0.08330  0.95840  Biso   1.000  C
  C77      1.0000 0.01490  0.30540  0.22590  Biso   1.000  C
  C78      1.0000 0.98510  0.80540  0.27410  Biso   1.000  C
  C79      1.0000 0.98510  0.69460  0.77410  Biso   1.000  C
  C80      1.0000 0.01490  0.19460  0.72590  Biso   1.000  C
  C81      1.0000 0.05890  0.31880  0.16670  Biso   1.000  C
  C82      1.0000 0.94110  0.81880  0.33330  Biso   1.000  C
  C83      1.0000 0.94110  0.68120  0.83330  Biso   1.000  C
  C84      1.0000 0.05890  0.18120  0.66670  Biso   1.000  C
  C85      1.0000 0.03380  0.42240  0.12410  Biso   1.000  C
  C86      1.0000 0.96620  0.92240  0.37590  Biso   1.000  C
  C87      1.0000 0.96620  0.57760  0.87590  Biso   1.000  C
  C88      1.0000 0.03380  0.07760  0.62410  Biso   1.000  C
  C89      1.0000 0.08210  0.42810  0.06940  Biso   1.000  C
  C90      1.0000 0.91790  0.92810  0.43060  Biso   1.000  C
  C91      1.0000 0.91790  0.57190  0.93060  Biso   1.000  C
  C92      1.0000 0.08210  0.07190  0.56940  Biso   1.000  C
  C93      1.0000 0.15360  0.33830  0.05870  Biso   1.000  C
  C94      1.0000 0.84640  0.83830  0.44130  Biso   1.000  C
  C95      1.0000 0.84640  0.66170  0.94130  Biso   1.000  C
  C96      1.0000 0.15360  0.16170  0.55870  Biso   1.000  C
  C97      1.0000 0.17900  0.23650  0.10010  Biso   1.000  C
  C98      1.0000 0.82100  0.73650  0.39990  Biso   1.000  C
  C99      1.0000 0.82100  0.76350  0.89990  Biso   1.000  C
  C100     1.0000 0.17900  0.26350  0.60010  Biso   1.000  C
  C101     1.0000 0.13270  0.22890  0.15330  Biso   1.000  C
  C102     1.0000 0.86730  0.72890  0.34670  Biso   1.000  C
  C103     1.0000 0.86730  0.77110  0.84670  Biso   1.000  C
  C104     1.0000 0.13270  0.27110  0.65330  Biso   1.000  C
  C105     1.0000 0.29890  0.89900  0.29080  Biso   1.000  C
  C106     1.0000 0.70110  0.39900  0.20920  Biso   1.000  C
  C107     1.0000 0.70110  0.10100  0.70920  Biso   1.000  C
  C108     1.0000 0.29890  0.60100  0.79080  Biso   1.000  C
  C109     1.0000 0.38890  0.84820  0.26220  Biso   1.000  C
  C110     1.0000 0.61110  0.34820  0.23780  Biso   1.000  C
  C111     1.0000 0.61110  0.15180  0.73780  Biso   1.000  C
  C112     1.0000 0.38890  0.65180  0.76220  Biso   1.000  C
  C113     1.0000 0.40070  0.87530  0.19950  Biso   1.000  C
  C114     1.0000 0.59930  0.37530  0.30050  Biso   1.000  C
  C115     1.0000 0.59930  0.12470  0.80050  Biso   1.000  C
  C116     1.0000 0.40070  0.62470  0.69950  Biso   1.000  C
  C117     1.0000 0.48410  0.82510  0.17380  Biso   1.000  C
  C118     1.0000 0.51590  0.32510  0.32620  Biso   1.000  C
  C119     1.0000 0.51590  0.17490  0.82620  Biso   1.000  C
  C120     1.0000 0.48410  0.67490  0.67380  Biso   1.000  C
  C121     1.0000 0.55250  0.74840  0.20960  Biso   1.000  C
  C122     1.0000 0.44750  0.24840  0.29040  Biso   1.000  C
  C123     1.0000 0.44750  0.25160  0.79040  Biso   1.000  C
  C124     1.0000 0.55250  0.75160  0.70960  Biso   1.000  C
  C125     1.0000 0.54260  0.72000  0.27200  Biso   1.000  C
  C126     1.0000 0.45740  0.22000  0.22800  Biso   1.000  C
  C127     1.0000 0.45740  0.28000  0.72800  Biso   1.000  C
  C128     1.0000 0.54260  0.78000  0.77200  Biso   1.000  C
  C129     1.0000 0.45950  0.76890  0.29750  Biso   1.000  C
  C130     1.0000 0.54050  0.26890  0.20250  Biso   1.000  C
  C131     1.0000 0.54050  0.23110  0.70250  Biso   1.000  C
  C132     1.0000 0.45950  0.73110  0.79750  Biso   1.000  C
  H1       1.0000 0.03090  0.34720  0.47370  Biso   1.000  H
  H2       1.0000 0.96910  0.84720  0.02630  Biso   1.000  H
  H3       1.0000 0.96910  0.65280  0.52630  Biso   1.000  H
  H4       1.0000 0.03090  0.15280  0.97370  Biso   1.000  H
  H5       1.0000 0.92200  0.31990  0.57160  Biso   1.000  H
  H6       1.0000 0.07800  0.81990  0.92840  Biso   1.000  H
  H7       1.0000 0.07800  0.68010  0.42840  Biso   1.000  H
  H8       1.0000 0.92200  0.18010  0.07160  Biso   1.000  H
  H9       1.0000 0.76670  0.24310  0.56020  Biso   1.000  H
  H10      1.0000 0.23330  0.74310  0.93980  Biso   1.000  H
  H11      1.0000 0.23330  0.75690  0.43980  Biso   1.000  H
  H12      1.0000 0.76670  0.25690  0.06020  Biso   1.000  H
  H13      1.0000 0.62120  0.09650  0.48820  Biso   1.000  H
  H14      1.0000 0.37880  0.59650  0.01180  Biso   1.000  H
  H15      1.0000 0.37880  0.90350  0.51180  Biso   1.000  H
  H16      1.0000 0.62120  0.40350  0.98820  Biso   1.000  H
  H17      1.0000 0.56090  0.02100  0.37610  Biso   1.000  H
  H18      1.0000 0.43910  0.52100  0.12390  Biso   1.000  H
  H19      1.0000 0.43910  0.97900  0.62390  Biso   1.000  H
  H20      1.0000 0.56090  0.47900  0.87610  Biso   1.000  H
  H21      1.0000 0.58950  0.96360  0.26400  Biso   1.000  H
  H22      1.0000 0.41050  0.46360  0.23600  Biso   1.000  H
  H23      1.0000 0.41050  0.03640  0.73600  Biso   1.000  H
  H24      1.0000 0.58950  0.53640  0.76400  Biso   1.000  H
  H25      1.0000 0.69650  0.01670  0.19290  Biso   1.000  H
  H26      1.0000 0.30350  0.51670  0.30710  Biso   1.000  H
  H27      1.0000 0.30350  0.98330  0.80710  Biso   1.000  H
  H28      1.0000 0.69650  0.48330  0.69290  Biso   1.000  H
  H29      1.0000 0.86990  0.11350  0.21870  Biso   1.000  H
  H30      1.0000 0.13010  0.61350  0.28130  Biso   1.000  H
  H31      1.0000 0.13010  0.88650  0.78130  Biso   1.000  H
  H32      1.0000 0.86990  0.38650  0.71870  Biso   1.000  H
  H33      1.0000 0.32140  0.07440  0.40140  Biso   1.000  H
  H34      1.0000 0.67860  0.57440  0.09860  Biso   1.000  H
  H35      1.0000 0.67860  0.92560  0.59860  Biso   1.000  H
  H36      1.0000 0.32140  0.42560  0.90140  Biso   1.000  H
  H37      1.0000 0.49850  0.20950  0.52590  Biso   1.000  H
  H38      1.0000 0.50150  0.70950  0.97410  Biso   1.000  H
  H39      1.0000 0.50150  0.79050  0.47410  Biso   1.000  H
  H40      1.0000 0.49850  0.29050  0.02590  Biso   1.000  H
  H41      1.0000 0.47310  0.41670  0.56570  Biso   1.000  H
  H42      1.0000 0.52690  0.91670  0.93430  Biso   1.000  H
  H43      1.0000 0.52690  0.58330  0.43430  Biso   1.000  H
  H44      1.0000 0.47310  0.08330  0.06570  Biso   1.000  H
  H45      1.0000 0.32650  0.56250  0.51840  Biso   1.000  H
  H46      1.0000 0.67350  0.06250  0.98160  Biso   1.000  H
  H47      1.0000 0.67350  0.43750  0.48160  Biso   1.000  H
  H48      1.0000 0.32650  0.93750  0.01840  Biso   1.000  H
  H49      1.0000 0.20190  0.46470  0.44300  Biso   1.000  H
  H50      1.0000 0.79810  0.96470  0.05700  Biso   1.000  H
  H51      1.0000 0.79810  0.53530  0.55700  Biso   1.000  H
  H52      1.0000 0.20190  0.03530  0.94300  Biso   1.000  H
  H53      1.0000 0.07000  0.51920  0.03810  Biso   1.000  H
  H54      1.0000 0.93000  0.01920  0.46190  Biso   1.000  H
  H55      1.0000 0.93000  0.48080  0.96190  Biso   1.000  H
  H56      1.0000 0.07000  0.98080  0.53810  Biso   1.000  H
  H57      1.0000 0.19100  0.34140  0.02300  Biso   1.000  H
  H58      1.0000 0.80900  0.84140  0.47700  Biso   1.000  H
  H59      1.0000 0.80900  0.65860  0.97700  Biso   1.000  H
  H60      1.0000 0.19100  0.15860  0.52300  Biso   1.000  H
  H61      1.0000 0.22780  0.15950  0.09360  Biso   1.000  H
  H62      1.0000 0.77220  0.65950  0.40640  Biso   1.000  H
  H63      1.0000 0.77220  0.84050  0.90640  Biso   1.000  H
  H64      1.0000 0.22780  0.34050  0.59360  Biso   1.000  H
  H65      1.0000 0.15200  0.14850  0.18280  Biso   1.000  H
  H66      1.0000 0.84800  0.64850  0.31720  Biso   1.000  H
  H67      1.0000 0.84800  0.85150  0.81720  Biso   1.000  H
  H68      1.0000 0.15200  0.35150  0.68280  Biso   1.000  H
  H69      1.0000 0.28060  0.96090  0.18530  Biso   1.000  H
  H70      1.0000 0.71940  0.46090  0.31470  Biso   1.000  H
  H71      1.0000 0.71940  0.03910  0.81470  Biso   1.000  H
  H72      1.0000 0.28060  0.53910  0.68530  Biso   1.000  H
  H73      1.0000 0.49580  0.85080  0.12530  Biso   1.000  H
  H74      1.0000 0.50420  0.35080  0.37470  Biso   1.000  H
  H75      1.0000 0.50420  0.14920  0.87470  Biso   1.000  H
  H76      1.0000 0.49580  0.64920  0.62530  Biso   1.000  H
  H77      1.0000 0.60370  0.71510  0.18400  Biso   1.000  H
  H78      1.0000 0.39630  0.21510  0.31600  Biso   1.000  H
  H79      1.0000 0.39630  0.28490  0.81600  Biso   1.000  H
  H80      1.0000 0.60370  0.78490  0.68400  Biso   1.000  H
  H81      1.0000 0.60010  0.64780  0.29600  Biso   1.000  H
  H82      1.0000 0.39990  0.14780  0.20400  Biso   1.000  H
  H83      1.0000 0.39990  0.35220  0.70400  Biso   1.000  H
  H84      1.0000 0.60010  0.85220  0.79600  Biso   1.000  H
  O37      1.0000 0.44170  0.73350  0.34840  Biso   1.000  O
  O38      1.0000 0.55830  0.23350  0.15160  Biso   1.000  O
  O39      1.0000 0.55830  0.26650  0.65160  Biso   1.000  O
  O40      1.0000 0.44170  0.76650  0.84840  Biso   1.000  O
