data_image0
_cell_length_a       5.5987
_cell_length_b       7.4837
_cell_length_c       17.214
_cell_angle_alpha    92.97
_cell_angle_beta     94.311
_cell_angle_gamma    109.156

_symmetry_space_group_name_H-M    "P 1"
_symmetry_int_tables_number       1

loop_
  _symmetry_equiv_pos_as_xyz
  'x, y, z'

loop_
  _atom_site_label
  _atom_site_occupancy
  _atom_site_fract_x
  _atom_site_fract_y
  _atom_site_fract_z
  _atom_site_thermal_displace_type
  _atom_site_B_iso_or_equiv
  _atom_site_type_symbol
  Cu1      1.0000 0.80086  0.13903  0.24979  Biso   1.000  Cu
  Cu2      1.0000 0.19914  0.86097  0.75021  Biso   1.000  Cu
  S1       1.0000 0.99879  0.88781  0.32120  Biso   1.000  S
  S2       1.0000 0.00121  0.11219  0.67880  Biso   1.000  S
  S3       1.0000 0.18290  0.73302  0.06795  Biso   1.000  S
  S4       1.0000 0.81710  0.26698  0.93205  Biso   1.000  S
  O1       1.0000 0.39520  0.57650  0.35262  Biso   1.000  O
  O2       1.0000 0.60480  0.42350  0.64738  Biso   1.000  O
  N1       1.0000 0.09740  0.25180  0.18447  Biso   1.000  N
  N2       1.0000 0.90260  0.74820  0.81553  Biso   1.000  N
  N3       1.0000 0.02270  0.35700  0.32479  Biso   1.000  N
  N4       1.0000 0.97730  0.64300  0.67521  Biso   1.000  N
  N5       1.0000 0.02470  0.42950  0.40111  Biso   1.000  N
  N6       1.0000 0.97530  0.57050  0.59889  Biso   1.000  N
  N7       1.0000 0.35450  0.67260  0.47948  Biso   1.000  N
  N8       1.0000 0.64550  0.32740  0.52052  Biso   1.000  N
  H1       1.0000 0.26610  0.66660  0.51860  Biso   1.000  H
  H2       1.0000 0.73390  0.33340  0.48140  Biso   1.000  H
  N9       1.0000 0.60070  0.96450  0.16480  Biso   1.000  N
  N10      1.0000 0.39930  0.03550  0.83520  Biso   1.000  N
  N11      1.0000 0.50950  0.08760  0.31180  Biso   1.000  N
  N12      1.0000 0.49050  0.91240  0.68820  Biso   1.000  N
  C1       1.0000 0.11950  0.19120  0.11220  Biso   1.000  C
  C2       1.0000 0.88050  0.80880  0.88780  Biso   1.000  C
  H3       1.0000 0.98330  0.09460  0.08550  Biso   1.000  H
  H4       1.0000 0.01670  0.90540  0.91450  Biso   1.000  H
  C3       1.0000 0.33850  0.26670  0.07490  Biso   1.000  C
  C4       1.0000 0.66150  0.73330  0.92510  Biso   1.000  C
  H5       1.0000 0.34870  0.22160  0.02440  Biso   1.000  H
  H6       1.0000 0.65130  0.77840  0.97560  Biso   1.000  H
  C5       1.0000 0.54150  0.41070  0.11470  Biso   1.000  C
  C6       1.0000 0.45850  0.58930  0.88530  Biso   1.000  C
  H7       1.0000 0.69100  0.46210  0.09140  Biso   1.000  H
  H8       1.0000 0.30900  0.53790  0.90860  Biso   1.000  H
  C7       1.0000 0.51970  0.47690  0.18920  Biso   1.000  C
  C8       1.0000 0.48030  0.52310  0.81080  Biso   1.000  C
  H9       1.0000 0.65250  0.57440  0.21680  Biso   1.000  H
  H10      1.0000 0.34750  0.42560  0.78320  Biso   1.000  H
  C9       1.0000 0.29670  0.39510  0.22150  Biso   1.000  C
  C10      1.0000 0.70330  0.60490  0.77850  Biso   1.000  C
  C11      1.0000 0.23630  0.44410  0.29900  Biso   1.000  C
  C12      1.0000 0.76370  0.55590  0.70100  Biso   1.000  C
  C13      1.0000 0.25180  0.56130  0.41540  Biso   1.000  C
  C14      1.0000 0.74820  0.43870  0.58460  Biso   1.000  C
  C15      1.0000 0.61600  0.80660  0.48590  Biso   1.000  C
  C16      1.0000 0.38400  0.19340  0.51410  Biso   1.000  C
  H11      1.0000 0.65590  0.87470  0.53660  Biso   1.000  H
  H12      1.0000 0.34410  0.12530  0.46340  Biso   1.000  H
  H13      1.0000 0.63110  0.89460  0.44640  Biso   1.000  H
  H14      1.0000 0.36890  0.10540  0.55360  Biso   1.000  H
  H15      1.0000 0.73170  0.73800  0.47890  Biso   1.000  H
  H16      1.0000 0.26830  0.26200  0.52110  Biso   1.000  H
  C17      1.0000 0.42390  0.86710  0.12530  Biso   1.000  C
  C18      1.0000 0.57610  0.13290  0.87470  Biso   1.000  C
  C19      1.0000 0.29640  0.00300  0.31480  Biso   1.000  C
  C20      1.0000 0.70360  0.99700  0.68520  Biso   1.000  C
