data_image0
_cell_length_a       12.096
_cell_length_b       8.242
_cell_length_c       15.771
_cell_angle_alpha    90
_cell_angle_beta     107.32
_cell_angle_gamma    90

_symmetry_space_group_name_H-M    "P 1"
_symmetry_int_tables_number       1

loop_
  _symmetry_equiv_pos_as_xyz
  'x, y, z'

loop_
  _atom_site_label
  _atom_site_occupancy
  _atom_site_fract_x
  _atom_site_fract_y
  _atom_site_fract_z
  _atom_site_thermal_displace_type
  _atom_site_B_iso_or_equiv
  _atom_site_type_symbol
  Cu1      1.0000 0.17140  0.14249  0.23471  Biso   1.000  Cu
  Cu2      1.0000 0.32860  0.64249  0.26529  Biso   1.000  Cu
  Cu3      1.0000 0.82860  0.85751  0.76529  Biso   1.000  Cu
  Cu4      1.0000 0.67140  0.35751  0.73471  Biso   1.000  Cu
  N1       1.0000 0.22110  0.08400  0.36410  Biso   1.000  N
  N2       1.0000 0.27890  0.58400  0.13590  Biso   1.000  N
  N3       1.0000 0.77890  0.91600  0.63590  Biso   1.000  N
  N4       1.0000 0.72110  0.41600  0.86410  Biso   1.000  N
  N5       1.0000 0.02360  0.04140  0.24040  Biso   1.000  N
  N6       1.0000 0.47640  0.54140  0.25960  Biso   1.000  N
  N7       1.0000 0.97640  0.95860  0.75960  Biso   1.000  N
  N8       1.0000 0.52360  0.45860  0.74040  Biso   1.000  N
  C1       1.0000 0.14290  0.99030  0.38760  Biso   1.000  C
  C2       1.0000 0.35710  0.49030  0.11240  Biso   1.000  C
  C3       1.0000 0.85710  0.00970  0.61240  Biso   1.000  C
  C4       1.0000 0.64290  0.50970  0.88760  Biso   1.000  C
  N9       1.0000 0.88250  0.70840  0.43740  Biso   1.000  N
  N10      1.0000 0.61750  0.20840  0.06260  Biso   1.000  N
  N11      1.0000 0.11750  0.29160  0.56260  Biso   1.000  N
  N12      1.0000 0.38250  0.79160  0.93740  Biso   1.000  N
  C5       1.0000 0.03440  0.96550  0.31890  Biso   1.000  C
  C6       1.0000 0.46560  0.46550  0.18110  Biso   1.000  C
  C7       1.0000 0.96560  0.03450  0.68110  Biso   1.000  C
  C8       1.0000 0.53440  0.53450  0.81890  Biso   1.000  C
  N13      1.0000 0.09170  0.76360  0.57150  Biso   1.000  N
  N14      1.0000 0.40830  0.26360  0.92850  Biso   1.000  N
  N15      1.0000 0.90830  0.23640  0.42850  Biso   1.000  N
  N16      1.0000 0.59170  0.73640  0.07150  Biso   1.000  N
  C9       1.0000 0.94660  0.87450  0.33570  Biso   1.000  C
  C10      1.0000 0.55340  0.37450  0.16430  Biso   1.000  C
  C11      1.0000 0.05340  0.12550  0.66430  Biso   1.000  C
  C12      1.0000 0.44660  0.62550  0.83570  Biso   1.000  C
  C13      1.0000 0.16240  0.92570  0.47160  Biso   1.000  C
  C14      1.0000 0.33760  0.42570  0.02840  Biso   1.000  C
  C15      1.0000 0.83760  0.07430  0.52840  Biso   1.000  C
  C16      1.0000 0.66240  0.57430  0.97160  Biso   1.000  C
  C17      1.0000 0.96740  0.79980  0.42220  Biso   1.000  C
  C18      1.0000 0.53260  0.29980  0.07780  Biso   1.000  C
  C19      1.0000 0.03260  0.20020  0.57780  Biso   1.000  C
  C20      1.0000 0.46740  0.70020  0.92220  Biso   1.000  C
  C21      1.0000 0.32050  0.11830  0.42550  Biso   1.000  C
  C22      1.0000 0.17950  0.61830  0.07450  Biso   1.000  C
  C23      1.0000 0.67950  0.88170  0.57450  Biso   1.000  C
  C24      1.0000 0.82050  0.38170  0.92550  Biso   1.000  C
  H1       1.0000 0.37440  0.18350  0.41030  Biso   1.000  H
  H2       1.0000 0.12560  0.68350  0.08970  Biso   1.000  H
  H3       1.0000 0.62560  0.81650  0.58970  Biso   1.000  H
  H4       1.0000 0.87440  0.31650  0.91030  Biso   1.000  H
  C25      1.0000 0.26860  0.96240  0.53560  Biso   1.000  C
  C26      1.0000 0.23140  0.46240  0.96440  Biso   1.000  C
  C27      1.0000 0.73140  0.03760  0.46440  Biso   1.000  C
  C28      1.0000 0.76860  0.53760  0.03560  Biso   1.000  C
  H5       1.0000 0.28580  0.92120  0.59300  Biso   1.000  H
  H6       1.0000 0.21420  0.42120  0.90700  Biso   1.000  H
  H7       1.0000 0.71420  0.07880  0.40700  Biso   1.000  H
  H8       1.0000 0.78580  0.57880  0.09300  Biso   1.000  H
  C29      1.0000 0.07220  0.82630  0.48960  Biso   1.000  C
  C30      1.0000 0.42780  0.32630  0.01040  Biso   1.000  C
  C31      1.0000 0.92780  0.17370  0.51040  Biso   1.000  C
  C32      1.0000 0.57220  0.67370  0.98960  Biso   1.000  C
  C33      1.0000 0.92370  0.02900  0.17670  Biso   1.000  C
  C34      1.0000 0.57630  0.52900  0.32330  Biso   1.000  C
  C35      1.0000 0.07630  0.97100  0.82330  Biso   1.000  C
  C36      1.0000 0.42370  0.47100  0.67670  Biso   1.000  C
  H9       1.0000 0.91520  0.08050  0.12270  Biso   1.000  H
  H10      1.0000 0.58480  0.58050  0.37730  Biso   1.000  H
  H11      1.0000 0.08480  0.91950  0.87730  Biso   1.000  H
  H12      1.0000 0.41520  0.41950  0.62270  Biso   1.000  H
  C37      1.0000 0.00730  0.67530  0.58460  Biso   1.000  C
  C38      1.0000 0.49270  0.17530  0.91540  Biso   1.000  C
  C39      1.0000 0.99270  0.32470  0.41540  Biso   1.000  C
  C40      1.0000 0.50730  0.82470  0.08460  Biso   1.000  C
  H13      1.0000 0.01730  0.63010  0.64040  Biso   1.000  H
  H14      1.0000 0.48270  0.13010  0.85960  Biso   1.000  H
  H15      1.0000 0.98270  0.36990  0.35960  Biso   1.000  H
  H16      1.0000 0.51730  0.86990  0.14040  Biso   1.000  H
  C41      1.0000 0.90370  0.64710  0.51790  Biso   1.000  C
  C42      1.0000 0.59630  0.14710  0.98210  Biso   1.000  C
  C43      1.0000 0.09630  0.35290  0.48210  Biso   1.000  C
  C44      1.0000 0.40370  0.85290  0.01790  Biso   1.000  C
  H17      1.0000 0.84750  0.58280  0.53070  Biso   1.000  H
  H18      1.0000 0.65250  0.08280  0.96930  Biso   1.000  H
  H19      1.0000 0.15250  0.41720  0.46930  Biso   1.000  H
  H20      1.0000 0.34750  0.91720  0.03070  Biso   1.000  H
  C45      1.0000 0.34590  0.05950  0.51170  Biso   1.000  C
  C46      1.0000 0.15410  0.55950  0.98830  Biso   1.000  C
  C47      1.0000 0.65410  0.94050  0.48830  Biso   1.000  C
  C48      1.0000 0.84590  0.44050  0.01170  Biso   1.000  C
  H21      1.0000 0.41580  0.08640  0.55330  Biso   1.000  H
  H22      1.0000 0.08420  0.58640  0.94670  Biso   1.000  H
  H23      1.0000 0.58420  0.91360  0.44670  Biso   1.000  H
  H24      1.0000 0.91580  0.41360  0.05330  Biso   1.000  H
  C49      1.0000 0.84260  0.86230  0.26660  Biso   1.000  C
  C50      1.0000 0.65740  0.36230  0.23340  Biso   1.000  C
  C51      1.0000 0.15740  0.13770  0.73340  Biso   1.000  C
  C52      1.0000 0.34260  0.63770  0.76660  Biso   1.000  C
  H25      1.0000 0.78170  0.80070  0.27420  Biso   1.000  H
  H26      1.0000 0.71830  0.30070  0.22580  Biso   1.000  H
  H27      1.0000 0.21830  0.19930  0.72580  Biso   1.000  H
  H28      1.0000 0.28170  0.69930  0.77420  Biso   1.000  H
  C53      1.0000 0.83100  0.94080  0.18860  Biso   1.000  C
  C54      1.0000 0.66900  0.44080  0.31140  Biso   1.000  C
  C55      1.0000 0.16900  0.05920  0.81140  Biso   1.000  C
  C56      1.0000 0.33100  0.55920  0.68860  Biso   1.000  C
  H29      1.0000 0.76130  0.93580  0.14320  Biso   1.000  H
  H30      1.0000 0.73870  0.43580  0.35680  Biso   1.000  H
  H31      1.0000 0.23870  0.06420  0.85680  Biso   1.000  H
  H32      1.0000 0.26130  0.56420  0.64320  Biso   1.000  H
  O1       1.0000 0.33510  0.18340  0.23820  Biso   1.000  O
  O2       1.0000 0.16490  0.68340  0.26180  Biso   1.000  O
  O3       1.0000 0.66490  0.81660  0.76180  Biso   1.000  O
  O4       1.0000 0.83510  0.31660  0.73820  Biso   1.000  O
  O5       1.0000 0.10100  0.22210  0.11448  Biso   1.000  O
  O6       1.0000 0.39900  0.72210  0.38552  Biso   1.000  O
  O7       1.0000 0.89900  0.77790  0.88552  Biso   1.000  O
  O8       1.0000 0.60100  0.27790  0.61448  Biso   1.000  O
  N17      1.0000 0.11550  0.14520  0.04710  Biso   1.000  N
  N18      1.0000 0.38450  0.64520  0.45290  Biso   1.000  N
  N19      1.0000 0.88450  0.85480  0.95290  Biso   1.000  N
  N20      1.0000 0.61550  0.35480  0.54710  Biso   1.000  N
  O9       1.0000 0.05840  0.18710  0.97310  Biso   1.000  O
  O10      1.0000 0.44160  0.68710  0.52690  Biso   1.000  O
  O11      1.0000 0.94160  0.81290  0.02690  Biso   1.000  O
  O12      1.0000 0.55840  0.31290  0.47310  Biso   1.000  O
  O13      1.0000 0.49050  0.04150  0.25600  Biso   1.000  O
  O14      1.0000 0.00950  0.54150  0.24400  Biso   1.000  O
  O15      1.0000 0.50950  0.95850  0.74400  Biso   1.000  O
  O16      1.0000 0.99050  0.45850  0.75600  Biso   1.000  O
  N21      1.0000 0.38600  0.04560  0.24200  Biso   1.000  N
  N22      1.0000 0.11400  0.54560  0.25800  Biso   1.000  N
  N23      1.0000 0.61400  0.95440  0.75800  Biso   1.000  N
  N24      1.0000 0.88600  0.45440  0.74200  Biso   1.000  N
  O17      1.0000 0.18210  0.03460  0.05970  Biso   1.000  O
  O18      1.0000 0.31790  0.53460  0.44030  Biso   1.000  O
  O19      1.0000 0.81790  0.96540  0.94030  Biso   1.000  O
  O20      1.0000 0.68210  0.46540  0.55970  Biso   1.000  O
  O21      1.0000 0.32420  0.92390  0.22980  Biso   1.000  O
  O22      1.0000 0.17580  0.42390  0.27020  Biso   1.000  O
  O23      1.0000 0.67580  0.07610  0.77020  Biso   1.000  O
  O24      1.0000 0.82420  0.57610  0.72980  Biso   1.000  O
