data_image0
_cell_length_a       13.0524
_cell_length_b       13.6038
_cell_length_c       19.0358
_cell_angle_alpha    90
_cell_angle_beta     103.558
_cell_angle_gamma    90

_symmetry_space_group_name_H-M    "P 1"
_symmetry_int_tables_number       1

loop_
  _symmetry_equiv_pos_as_xyz
  'x, y, z'

loop_
  _atom_site_label
  _atom_site_occupancy
  _atom_site_fract_x
  _atom_site_fract_y
  _atom_site_fract_z
  _atom_site_thermal_displace_type
  _atom_site_B_iso_or_equiv
  _atom_site_type_symbol
  Cu1      1.0000 0.72032  0.03046  0.24568  Biso   1.000  Cu
  Cu2      1.0000 0.72032  0.46954  0.74568  Biso   1.000  Cu
  Cu3      1.0000 0.27968  0.96954  0.75432  Biso   1.000  Cu
  Cu4      1.0000 0.27968  0.53046  0.25432  Biso   1.000  Cu
  N1       1.0000 0.88770  0.00100  0.32346  Biso   1.000  N
  N2       1.0000 0.88770  0.49900  0.82346  Biso   1.000  N
  N3       1.0000 0.11230  0.99900  0.67654  Biso   1.000  N
  N4       1.0000 0.11230  0.50100  0.17654  Biso   1.000  N
  C1       1.0000 0.96890  0.04870  0.29921  Biso   1.000  C
  C2       1.0000 0.96890  0.45130  0.79921  Biso   1.000  C
  C3       1.0000 0.03110  0.95130  0.70079  Biso   1.000  C
  C4       1.0000 0.03110  0.54870  0.20079  Biso   1.000  C
  C5       1.0000 0.01830  0.00270  0.25071  Biso   1.000  C
  C6       1.0000 0.01830  0.49730  0.75071  Biso   1.000  C
  C7       1.0000 0.98170  0.99730  0.74929  Biso   1.000  C
  C8       1.0000 0.98170  0.50270  0.24929  Biso   1.000  C
  H1       1.0000 0.00410  0.93690  0.23910  Biso   1.000  H
  H2       1.0000 0.00410  0.56310  0.73910  Biso   1.000  H
  H3       1.0000 0.99590  0.06310  0.76090  Biso   1.000  H
  H4       1.0000 0.99590  0.43690  0.26090  Biso   1.000  H
  C9       1.0000 0.08800  0.05340  0.21973  Biso   1.000  C
  C10      1.0000 0.08800  0.44660  0.71973  Biso   1.000  C
  C11      1.0000 0.91200  0.94660  0.78027  Biso   1.000  C
  C12      1.0000 0.91200  0.55340  0.28027  Biso   1.000  C
  H5       1.0000 0.11970  0.02210  0.18690  Biso   1.000  H
  H6       1.0000 0.11970  0.47790  0.68690  Biso   1.000  H
  H7       1.0000 0.88030  0.97790  0.81310  Biso   1.000  H
  H8       1.0000 0.88030  0.52210  0.31310  Biso   1.000  H
  C13      1.0000 0.11090  0.15180  0.23787  Biso   1.000  C
  C14      1.0000 0.11090  0.34820  0.73787  Biso   1.000  C
  C15      1.0000 0.88910  0.84820  0.76213  Biso   1.000  C
  C16      1.0000 0.88910  0.65180  0.26213  Biso   1.000  C
  C17      1.0000 0.06440  0.19700  0.28768  Biso   1.000  C
  C18      1.0000 0.06440  0.30300  0.78768  Biso   1.000  C
  C19      1.0000 0.93560  0.80300  0.71232  Biso   1.000  C
  C20      1.0000 0.93560  0.69700  0.21232  Biso   1.000  C
  H9       1.0000 0.08030  0.26210  0.30050  Biso   1.000  H
  H10      1.0000 0.08030  0.23790  0.80050  Biso   1.000  H
  H11      1.0000 0.91970  0.73790  0.69950  Biso   1.000  H
  H12      1.0000 0.91970  0.76210  0.19950  Biso   1.000  H
  C21      1.0000 0.99470  0.14610  0.31842  Biso   1.000  C
  C22      1.0000 0.99470  0.35390  0.81842  Biso   1.000  C
  C23      1.0000 0.00530  0.85390  0.68158  Biso   1.000  C
  C24      1.0000 0.00530  0.64610  0.18158  Biso   1.000  C
  H13      1.0000 0.96450  0.17700  0.35230  Biso   1.000  H
  H14      1.0000 0.96450  0.32300  0.85230  Biso   1.000  H
  H15      1.0000 0.03550  0.82300  0.64770  Biso   1.000  H
  H16      1.0000 0.03550  0.67700  0.14770  Biso   1.000  H
  S1       1.0000 0.18909  0.21883  0.19009  Biso   1.000  S
  S2       1.0000 0.18909  0.28117  0.69009  Biso   1.000  S
  S3       1.0000 0.81091  0.78117  0.80991  Biso   1.000  S
  S4       1.0000 0.81091  0.71883  0.30991  Biso   1.000  S
  O1       1.0000 0.11840  0.24903  0.12348  Biso   1.000  O
  O2       1.0000 0.11840  0.25097  0.62348  Biso   1.000  O
  O3       1.0000 0.88160  0.75097  0.87652  Biso   1.000  O
  O4       1.0000 0.88160  0.74903  0.37652  Biso   1.000  O
  O5       1.0000 0.27511  0.15601  0.18246  Biso   1.000  O
  O6       1.0000 0.27511  0.34399  0.68246  Biso   1.000  O
  O7       1.0000 0.72489  0.84399  0.81754  Biso   1.000  O
  O8       1.0000 0.72489  0.65601  0.31754  Biso   1.000  O
  N5       1.0000 0.22624  0.31750  0.23346  Biso   1.000  N
  N6       1.0000 0.22624  0.18250  0.73346  Biso   1.000  N
  N7       1.0000 0.77376  0.68250  0.76654  Biso   1.000  N
  N8       1.0000 0.77376  0.81750  0.26654  Biso   1.000  N
  N9       1.0000 0.34427  0.41359  0.30933  Biso   1.000  N
  N10      1.0000 0.34427  0.08641  0.80933  Biso   1.000  N
  N11      1.0000 0.65573  0.58641  0.69067  Biso   1.000  N
  N12      1.0000 0.65573  0.91359  0.19067  Biso   1.000  N
  C25      1.0000 0.30830  0.32020  0.29211  Biso   1.000  C
  C26      1.0000 0.30830  0.17980  0.79211  Biso   1.000  C
  C27      1.0000 0.69170  0.67980  0.70789  Biso   1.000  C
  C28      1.0000 0.69170  0.82020  0.20789  Biso   1.000  C
  C29      1.0000 0.35910  0.24190  0.33435  Biso   1.000  C
  C30      1.0000 0.35910  0.25810  0.83435  Biso   1.000  C
  C31      1.0000 0.64090  0.75810  0.66565  Biso   1.000  C
  C32      1.0000 0.64090  0.74190  0.16565  Biso   1.000  C
  H17      1.0000 0.33770  0.17720  0.32410  Biso   1.000  H
  H18      1.0000 0.33770  0.32280  0.82410  Biso   1.000  H
  H19      1.0000 0.66230  0.82280  0.67590  Biso   1.000  H
  H20      1.0000 0.66230  0.67720  0.17590  Biso   1.000  H
  C33      1.0000 0.44170  0.26460  0.39155  Biso   1.000  C
  C34      1.0000 0.44170  0.23540  0.89155  Biso   1.000  C
  C35      1.0000 0.55830  0.73540  0.60845  Biso   1.000  C
  C36      1.0000 0.55830  0.76460  0.10845  Biso   1.000  C
  N13      1.0000 0.47890  0.35580  0.40794  Biso   1.000  N
  N14      1.0000 0.47890  0.14420  0.90794  Biso   1.000  N
  N15      1.0000 0.52110  0.64420  0.59206  Biso   1.000  N
  N16      1.0000 0.52110  0.85580  0.09206  Biso   1.000  N
  C37      1.0000 0.42740  0.42490  0.36467  Biso   1.000  C
  C38      1.0000 0.42740  0.07510  0.86467  Biso   1.000  C
  C39      1.0000 0.57260  0.57510  0.63533  Biso   1.000  C
  C40      1.0000 0.57260  0.92490  0.13533  Biso   1.000  C
  O9       1.0000 0.48750  0.18980  0.43348  Biso   1.000  O
  O10      1.0000 0.48750  0.31020  0.93348  Biso   1.000  O
  O11      1.0000 0.51250  0.81020  0.56652  Biso   1.000  O
  O12      1.0000 0.51250  0.68980  0.06652  Biso   1.000  O
  C41      1.0000 0.57620  0.21170  0.49330  Biso   1.000  C
  C42      1.0000 0.57620  0.28830  0.99330  Biso   1.000  C
  C43      1.0000 0.42380  0.78830  0.50670  Biso   1.000  C
  C44      1.0000 0.42380  0.71170  0.00670  Biso   1.000  C
  H21      1.0000 0.63160  0.24120  0.47510  Biso   1.000  H
  H22      1.0000 0.63160  0.25880  0.97510  Biso   1.000  H
  H23      1.0000 0.36840  0.75880  0.52490  Biso   1.000  H
  H24      1.0000 0.36840  0.74120  0.02490  Biso   1.000  H
  H25      1.0000 0.60140  0.15200  0.51830  Biso   1.000  H
  H26      1.0000 0.60140  0.34800  0.01830  Biso   1.000  H
  H27      1.0000 0.39860  0.84800  0.48170  Biso   1.000  H
  H28      1.0000 0.39860  0.65200  0.98170  Biso   1.000  H
  H29      1.0000 0.55420  0.25640  0.52590  Biso   1.000  H
  H30      1.0000 0.55420  0.24360  0.02590  Biso   1.000  H
  H31      1.0000 0.44580  0.74360  0.47410  Biso   1.000  H
  H32      1.0000 0.44580  0.75640  0.97410  Biso   1.000  H
  O13      1.0000 0.45982  0.51879  0.37405  Biso   1.000  O
  O14      1.0000 0.45982  0.98121  0.87405  Biso   1.000  O
  O15      1.0000 0.54018  0.48121  0.62595  Biso   1.000  O
  O16      1.0000 0.54018  0.01879  0.12595  Biso   1.000  O
  C45      1.0000 0.56210  0.53790  0.42160  Biso   1.000  C
  C46      1.0000 0.56210  0.96210  0.92160  Biso   1.000  C
  C47      1.0000 0.43790  0.46210  0.57840  Biso   1.000  C
  C48      1.0000 0.43790  0.03790  0.07840  Biso   1.000  C
  H33      1.0000 0.55440  0.54580  0.47030  Biso   1.000  H
  H34      1.0000 0.55440  0.95420  0.97030  Biso   1.000  H
  H35      1.0000 0.44560  0.45420  0.52970  Biso   1.000  H
  H36      1.0000 0.44560  0.04580  0.02970  Biso   1.000  H
  H37      1.0000 0.59120  0.59690  0.40650  Biso   1.000  H
  H38      1.0000 0.59120  0.90310  0.90650  Biso   1.000  H
  H39      1.0000 0.40880  0.40310  0.59350  Biso   1.000  H
  H40      1.0000 0.40880  0.09690  0.09350  Biso   1.000  H
  H41      1.0000 0.60840  0.48370  0.41960  Biso   1.000  H
  H42      1.0000 0.60840  0.01630  0.91960  Biso   1.000  H
  H43      1.0000 0.39160  0.51630  0.58040  Biso   1.000  H
  H44      1.0000 0.39160  0.98370  0.08040  Biso   1.000  H
  N17      1.0000 0.64260  0.01870  0.32744  Biso   1.000  N
  N18      1.0000 0.64260  0.48130  0.82744  Biso   1.000  N
  N19      1.0000 0.35740  0.98130  0.67256  Biso   1.000  N
  N20      1.0000 0.35740  0.51870  0.17256  Biso   1.000  N
  C49      1.0000 0.54840  0.96150  0.30855  Biso   1.000  C
  C50      1.0000 0.54840  0.53850  0.80855  Biso   1.000  C
  C51      1.0000 0.45160  0.03850  0.69145  Biso   1.000  C
  C52      1.0000 0.45160  0.46150  0.19145  Biso   1.000  C
  C53      1.0000 0.45570  0.00490  0.27081  Biso   1.000  C
  C54      1.0000 0.45570  0.49510  0.77081  Biso   1.000  C
  C55      1.0000 0.54430  0.99510  0.72919  Biso   1.000  C
  C56      1.0000 0.54430  0.50490  0.22919  Biso   1.000  C
  H45      1.0000 0.45200  0.07280  0.26480  Biso   1.000  H
  H46      1.0000 0.45200  0.42720  0.76480  Biso   1.000  H
  H47      1.0000 0.54800  0.92720  0.73520  Biso   1.000  H
  H48      1.0000 0.54800  0.57280  0.23520  Biso   1.000  H
  C57      1.0000 0.36910  0.94710  0.24220  Biso   1.000  C
  C58      1.0000 0.36910  0.55290  0.74220  Biso   1.000  C
  C59      1.0000 0.63090  0.05290  0.75780  Biso   1.000  C
  C60      1.0000 0.63090  0.44710  0.25780  Biso   1.000  C
  H49      1.0000 0.30660  0.97600  0.21710  Biso   1.000  H
  H50      1.0000 0.30660  0.52400  0.71710  Biso   1.000  H
  H51      1.0000 0.69340  0.02400  0.78290  Biso   1.000  H
  H52      1.0000 0.69340  0.47600  0.28290  Biso   1.000  H
  C61      1.0000 0.37520  0.84600  0.25100  Biso   1.000  C
  C62      1.0000 0.37520  0.65400  0.75100  Biso   1.000  C
  C63      1.0000 0.62480  0.15400  0.74900  Biso   1.000  C
  C64      1.0000 0.62480  0.34600  0.24900  Biso   1.000  C
  C65      1.0000 0.46610  0.80340  0.29263  Biso   1.000  C
  C66      1.0000 0.46610  0.69660  0.79263  Biso   1.000  C
  C67      1.0000 0.53390  0.19660  0.70737  Biso   1.000  C
  C68      1.0000 0.53390  0.30340  0.20737  Biso   1.000  C
  H53      1.0000 0.46870  0.73590  0.30060  Biso   1.000  H
  H54      1.0000 0.46870  0.76410  0.80060  Biso   1.000  H
  H55      1.0000 0.53130  0.26410  0.69940  Biso   1.000  H
  H56      1.0000 0.53130  0.23590  0.19940  Biso   1.000  H
  C69      1.0000 0.55250  0.86120  0.32218  Biso   1.000  C
  C70      1.0000 0.55250  0.63880  0.82218  Biso   1.000  C
  C71      1.0000 0.44750  0.13880  0.67782  Biso   1.000  C
  C72      1.0000 0.44750  0.36120  0.17782  Biso   1.000  C
  H57      1.0000 0.61290  0.83310  0.35100  Biso   1.000  H
  H58      1.0000 0.61290  0.66690  0.85100  Biso   1.000  H
  H59      1.0000 0.38710  0.16690  0.64900  Biso   1.000  H
  H60      1.0000 0.38710  0.33310  0.14900  Biso   1.000  H
  S5       1.0000 0.27399  0.77203  0.19934  Biso   1.000  S
  S6       1.0000 0.27399  0.72797  0.69934  Biso   1.000  S
  S7       1.0000 0.72601  0.22797  0.80066  Biso   1.000  S
  S8       1.0000 0.72601  0.27203  0.30066  Biso   1.000  S
  O17      1.0000 0.31356  0.73142  0.14088  Biso   1.000  O
  O18      1.0000 0.31356  0.76858  0.64088  Biso   1.000  O
  O19      1.0000 0.68644  0.26858  0.85912  Biso   1.000  O
  O20      1.0000 0.68644  0.23142  0.35912  Biso   1.000  O
  O21      1.0000 0.18087  0.83199  0.18067  Biso   1.000  O
  O22      1.0000 0.18087  0.66801  0.68067  Biso   1.000  O
  O23      1.0000 0.81913  0.16801  0.81933  Biso   1.000  O
  O24      1.0000 0.81913  0.33199  0.31933  Biso   1.000  O
  N21      1.0000 0.26142  0.67991  0.24838  Biso   1.000  N
  N22      1.0000 0.26142  0.82009  0.74838  Biso   1.000  N
  N23      1.0000 0.73858  0.32009  0.75162  Biso   1.000  N
  N24      1.0000 0.73858  0.17991  0.25162  Biso   1.000  N
  N25      1.0000 0.22001  0.59247  0.33432  Biso   1.000  N
  N26      1.0000 0.22001  0.90753  0.83432  Biso   1.000  N
  N27      1.0000 0.77999  0.40753  0.66568  Biso   1.000  N
  N28      1.0000 0.77999  0.09247  0.16568  Biso   1.000  N
  C73      1.0000 0.22050  0.68500  0.30808  Biso   1.000  C
  C74      1.0000 0.22050  0.81500  0.80808  Biso   1.000  C
  C75      1.0000 0.77950  0.31500  0.69192  Biso   1.000  C
  C76      1.0000 0.77950  0.18500  0.19192  Biso   1.000  C
  C77      1.0000 0.18360  0.76350  0.34095  Biso   1.000  C
  C78      1.0000 0.18360  0.73650  0.84095  Biso   1.000  C
  C79      1.0000 0.81640  0.23650  0.65905  Biso   1.000  C
  C80      1.0000 0.81640  0.26350  0.15905  Biso   1.000  C
  H61      1.0000 0.18170  0.82710  0.32280  Biso   1.000  H
  H62      1.0000 0.18170  0.67290  0.82280  Biso   1.000  H
  H63      1.0000 0.81830  0.17290  0.67720  Biso   1.000  H
  H64      1.0000 0.81830  0.32710  0.17720  Biso   1.000  H
  C81      1.0000 0.14980  0.74110  0.40257  Biso   1.000  C
  C82      1.0000 0.14980  0.75890  0.90257  Biso   1.000  C
  C83      1.0000 0.85020  0.25890  0.59743  Biso   1.000  C
  C84      1.0000 0.85020  0.24110  0.09743  Biso   1.000  C
  N29      1.0000 0.14940  0.65090  0.42989  Biso   1.000  N
  N30      1.0000 0.14940  0.84910  0.92989  Biso   1.000  N
  N31      1.0000 0.85060  0.34910  0.57011  Biso   1.000  N
  N32      1.0000 0.85060  0.15090  0.07011  Biso   1.000  N
  C85      1.0000 0.18350  0.58060  0.39325  Biso   1.000  C
  C86      1.0000 0.18350  0.91940  0.89325  Biso   1.000  C
  C87      1.0000 0.81650  0.41940  0.60675  Biso   1.000  C
  C88      1.0000 0.81650  0.08060  0.10675  Biso   1.000  C
  O25      1.0000 0.11730  0.81634  0.43710  Biso   1.000  O
  O26      1.0000 0.11730  0.68366  0.93710  Biso   1.000  O
  O27      1.0000 0.88270  0.18366  0.56290  Biso   1.000  O
  O28      1.0000 0.88270  0.31634  0.06290  Biso   1.000  O
  C89      1.0000 0.08120  0.79580  0.50155  Biso   1.000  C
  C90      1.0000 0.08120  0.70420  0.00155  Biso   1.000  C
  C91      1.0000 0.91880  0.20420  0.49845  Biso   1.000  C
  C92      1.0000 0.91880  0.29580  0.99845  Biso   1.000  C
  H65      1.0000 0.02700  0.74660  0.49120  Biso   1.000  H
  H66      1.0000 0.02700  0.75340  0.99120  Biso   1.000  H
  H67      1.0000 0.97300  0.25340  0.50880  Biso   1.000  H
  H68      1.0000 0.97300  0.24660  0.00880  Biso   1.000  H
  H69      1.0000 0.05350  0.85480  0.51770  Biso   1.000  H
  H70      1.0000 0.05350  0.64520  0.01770  Biso   1.000  H
  H71      1.0000 0.94650  0.14520  0.48230  Biso   1.000  H
  H72      1.0000 0.94650  0.35480  0.98230  Biso   1.000  H
  H73      1.0000 0.13910  0.77230  0.53870  Biso   1.000  H
  H74      1.0000 0.13910  0.72770  0.03870  Biso   1.000  H
  H75      1.0000 0.86090  0.22770  0.46130  Biso   1.000  H
  H76      1.0000 0.86090  0.27230  0.96130  Biso   1.000  H
  O29      1.0000 0.18490  0.48800  0.41608  Biso   1.000  O
  O30      1.0000 0.18490  0.01200  0.91608  Biso   1.000  O
  O31      1.0000 0.81510  0.51200  0.58392  Biso   1.000  O
  O32      1.0000 0.81510  0.98800  0.08392  Biso   1.000  O
  C93      1.0000 0.13980  0.46923  0.47810  Biso   1.000  C
  C94      1.0000 0.13980  0.03077  0.97810  Biso   1.000  C
  C95      1.0000 0.86020  0.53077  0.52190  Biso   1.000  C
  C96      1.0000 0.86020  0.96923  0.02190  Biso   1.000  C
  H77      1.0000 0.17190  0.51220  0.51710  Biso   1.000  H
  H78      1.0000 0.17190  0.98780  0.01710  Biso   1.000  H
  H79      1.0000 0.82810  0.48780  0.48290  Biso   1.000  H
  H80      1.0000 0.82810  0.01220  0.98290  Biso   1.000  H
  H81      1.0000 0.15260  0.40210  0.49320  Biso   1.000  H
  H82      1.0000 0.15260  0.09790  0.99320  Biso   1.000  H
  H83      1.0000 0.84740  0.59790  0.50680  Biso   1.000  H
  H84      1.0000 0.84740  0.90210  0.00680  Biso   1.000  H
  H85      1.0000 0.06530  0.48110  0.46480  Biso   1.000  H
  H86      1.0000 0.06530  0.01890  0.96480  Biso   1.000  H
  H87      1.0000 0.93470  0.51890  0.53520  Biso   1.000  H
  H88      1.0000 0.93470  0.98110  0.03520  Biso   1.000  H
  S9       1.0000 0.82741  0.57115  0.02407  Biso   1.000  S
  S10      1.0000 0.82741  0.92885  0.52407  Biso   1.000  S
  S11      1.0000 0.17259  0.42885  0.97593  Biso   1.000  S
  S12      1.0000 0.17259  0.07115  0.47593  Biso   1.000  S
  O33      1.0000 0.79566  0.52058  0.95296  Biso   1.000  O
  O34      1.0000 0.79566  0.97942  0.45296  Biso   1.000  O
  O35      1.0000 0.20434  0.47942  0.04704  Biso   1.000  O
  O36      1.0000 0.20434  0.02058  0.54704  Biso   1.000  O
  C97      1.0000 0.75002  0.52345  0.08060  Biso   1.000  C
  C98      1.0000 0.75002  0.97655  0.58060  Biso   1.000  C
  C99      1.0000 0.24998  0.47655  0.91940  Biso   1.000  C
  C100     1.0000 0.24998  0.02345  0.41940  Biso   1.000  C
  H89      1.0000 0.67710  0.53760  0.06010  Biso   1.000  H
  H90      1.0000 0.67710  0.96240  0.56010  Biso   1.000  H
  H91      1.0000 0.32290  0.46240  0.93990  Biso   1.000  H
  H92      1.0000 0.32290  0.03760  0.43990  Biso   1.000  H
  H93      1.0000 0.77100  0.55320  0.12750  Biso   1.000  H
  H94      1.0000 0.77100  0.94680  0.62750  Biso   1.000  H
  H95      1.0000 0.22900  0.44680  0.87250  Biso   1.000  H
  H96      1.0000 0.22900  0.05320  0.37250  Biso   1.000  H
  H97      1.0000 0.75980  0.45360  0.08500  Biso   1.000  H
  H98      1.0000 0.75980  0.04640  0.58500  Biso   1.000  H
  H99      1.0000 0.24020  0.54640  0.91500  Biso   1.000  H
  H100     1.0000 0.24020  0.95360  0.41500  Biso   1.000  H
  C101     1.0000 0.76920  0.68970  0.01170  Biso   1.000  C
  C102     1.0000 0.76920  0.81030  0.51170  Biso   1.000  C
  C103     1.0000 0.23080  0.31030  0.98830  Biso   1.000  C
  C104     1.0000 0.23080  0.18970  0.48830  Biso   1.000  C
  H101     1.0000 0.79260  0.72350  0.97410  Biso   1.000  H
  H102     1.0000 0.79260  0.77650  0.47410  Biso   1.000  H
  H103     1.0000 0.20740  0.27650  0.02590  Biso   1.000  H
  H104     1.0000 0.20740  0.22350  0.52590  Biso   1.000  H
  H105     1.0000 0.78960  0.72630  0.05590  Biso   1.000  H
  H106     1.0000 0.78960  0.77370  0.55590  Biso   1.000  H
  H107     1.0000 0.21040  0.27370  0.94410  Biso   1.000  H
  H108     1.0000 0.21040  0.22630  0.44410  Biso   1.000  H
  H109     1.0000 0.69390  0.68330  0.99840  Biso   1.000  H
  H110     1.0000 0.69390  0.81670  0.49840  Biso   1.000  H
  H111     1.0000 0.30610  0.31670  0.00160  Biso   1.000  H
  H112     1.0000 0.30610  0.18330  0.50160  Biso   1.000  H
  H113     1.0000 0.88500  0.01800  0.36700  Biso   1.000  H
  H114     1.0000 0.88500  0.48200  0.86700  Biso   1.000  H
  H115     1.0000 0.11500  0.98200  0.63300  Biso   1.000  H
  H116     1.0000 0.11500  0.51800  0.13300  Biso   1.000  H
  H117     1.0000 0.88600  0.94100  0.31900  Biso   1.000  H
  H118     1.0000 0.88600  0.55900  0.81900  Biso   1.000  H
  H119     1.0000 0.11400  0.05900  0.68100  Biso   1.000  H
  H120     1.0000 0.11400  0.44100  0.18100  Biso   1.000  H
  H121     1.0000 0.63200  0.07800  0.33880  Biso   1.000  H
  H122     1.0000 0.63200  0.42200  0.83880  Biso   1.000  H
  H123     1.0000 0.36800  0.92200  0.66120  Biso   1.000  H
  H124     1.0000 0.36800  0.57800  0.16120  Biso   1.000  H
  H125     1.0000 0.69200  0.99500  0.36000  Biso   1.000  H
  H126     1.0000 0.69200  0.50500  0.86000  Biso   1.000  H
  H127     1.0000 0.30800  0.00500  0.64000  Biso   1.000  H
  H128     1.0000 0.30800  0.49500  0.14000  Biso   1.000  H
