data_image0
_cell_length_a       9.7929
_cell_length_b       11.1946
_cell_length_c       11.432
_cell_angle_alpha    90
_cell_angle_beta     92.321
_cell_angle_gamma    90

_symmetry_space_group_name_H-M    "P 1"
_symmetry_int_tables_number       1

loop_
  _symmetry_equiv_pos_as_xyz
  'x, y, z'

loop_
  _atom_site_label
  _atom_site_occupancy
  _atom_site_fract_x
  _atom_site_fract_y
  _atom_site_fract_z
  _atom_site_thermal_displace_type
  _atom_site_B_iso_or_equiv
  _atom_site_type_symbol
  Cu1      1.0000 0.17414  0.65889  0.59881  Biso   1.000  Cu
  Cu2      1.0000 0.32586  0.15889  0.40119  Biso   1.000  Cu
  Cu3      1.0000 0.82586  0.34111  0.40119  Biso   1.000  Cu
  Cu4      1.0000 0.67414  0.84111  0.59881  Biso   1.000  Cu
  O1       1.0000 0.35810  0.72540  0.58140  Biso   1.000  O
  O2       1.0000 0.14190  0.22540  0.41860  Biso   1.000  O
  O3       1.0000 0.64190  0.27460  0.41860  Biso   1.000  O
  O4       1.0000 0.85810  0.77460  0.58140  Biso   1.000  O
  O5       1.0000 0.22550  0.55020  0.47450  Biso   1.000  O
  O6       1.0000 0.27450  0.05020  0.52550  Biso   1.000  O
  O7       1.0000 0.77450  0.44980  0.52550  Biso   1.000  O
  O8       1.0000 0.72550  0.94980  0.47450  Biso   1.000  O
  N1       1.0000 0.54330  0.70670  0.46910  Biso   1.000  N
  N2       1.0000 0.95670  0.20670  0.53090  Biso   1.000  N
  N3       1.0000 0.45670  0.29330  0.53090  Biso   1.000  N
  N4       1.0000 0.04330  0.79330  0.46910  Biso   1.000  N
  N5       1.0000 0.39770  0.51650  0.34970  Biso   1.000  N
  N6       1.0000 0.10230  0.01650  0.65030  Biso   1.000  N
  N7       1.0000 0.60230  0.48350  0.65030  Biso   1.000  N
  N8       1.0000 0.89770  0.98350  0.34970  Biso   1.000  N
  N9       1.0000 0.82410  0.69810  0.28790  Biso   1.000  N
  N10      1.0000 0.67590  0.19810  0.71210  Biso   1.000  N
  N11      1.0000 0.17590  0.30190  0.71210  Biso   1.000  N
  N12      1.0000 0.32410  0.80190  0.28790  Biso   1.000  N
  N13      1.0000 0.63630  0.45570  0.14460  Biso   1.000  N
  N14      1.0000 0.86370  0.95570  0.85540  Biso   1.000  N
  N15      1.0000 0.36370  0.54430  0.85540  Biso   1.000  N
  N16      1.0000 0.13630  0.04430  0.14460  Biso   1.000  N
  N17      1.0000 0.15180  0.74890  0.74700  Biso   1.000  N
  N18      1.0000 0.34820  0.24890  0.25300  Biso   1.000  N
  N19      1.0000 0.84820  0.25110  0.25300  Biso   1.000  N
  N20      1.0000 0.65180  0.75110  0.74700  Biso   1.000  N
  N21      1.0000 0.01960  0.55720  0.65160  Biso   1.000  N
  N22      1.0000 0.48040  0.05720  0.34840  Biso   1.000  N
  N23      1.0000 0.98040  0.44280  0.34840  Biso   1.000  N
  N24      1.0000 0.51960  0.94280  0.65160  Biso   1.000  N
  C1       1.0000 0.41950  0.67320  0.49830  Biso   1.000  C
  C2       1.0000 0.08050  0.17320  0.50170  Biso   1.000  C
  C3       1.0000 0.58050  0.32680  0.50170  Biso   1.000  C
  C4       1.0000 0.91950  0.82680  0.49830  Biso   1.000  C
  C5       1.0000 0.34450  0.57480  0.43740  Biso   1.000  C
  C6       1.0000 0.15550  0.07480  0.56260  Biso   1.000  C
  C7       1.0000 0.65550  0.42520  0.56260  Biso   1.000  C
  C8       1.0000 0.84450  0.92520  0.43740  Biso   1.000  C
  C9       1.0000 0.59190  0.64810  0.37460  Biso   1.000  C
  C10      1.0000 0.90810  0.14810  0.62540  Biso   1.000  C
  C11      1.0000 0.40810  0.35190  0.62540  Biso   1.000  C
  C12      1.0000 0.09190  0.85190  0.37460  Biso   1.000  C
  C13      1.0000 0.52170  0.55730  0.31820  Biso   1.000  C
  C14      1.0000 0.97830  0.05730  0.68180  Biso   1.000  C
  C15      1.0000 0.47830  0.44270  0.68180  Biso   1.000  C
  C16      1.0000 0.02170  0.94270  0.31820  Biso   1.000  C
  C17      1.0000 0.72240  0.68030  0.33040  Biso   1.000  C
  C18      1.0000 0.77760  0.18030  0.66960  Biso   1.000  C
  C19      1.0000 0.27760  0.31970  0.66960  Biso   1.000  C
  C20      1.0000 0.22240  0.81970  0.33040  Biso   1.000  C
  C21      1.0000 0.58290  0.50040  0.21990  Biso   1.000  C
  C22      1.0000 0.91710  0.00040  0.78010  Biso   1.000  C
  C23      1.0000 0.41710  0.49960  0.78010  Biso   1.000  C
  C24      1.0000 0.08290  0.99960  0.21990  Biso   1.000  C
  C25      1.0000 0.05180  0.69040  0.81750  Biso   1.000  C
  C26      1.0000 0.44820  0.19040  0.18250  Biso   1.000  C
  C27      1.0000 0.94820  0.30960  0.18250  Biso   1.000  C
  C28      1.0000 0.55180  0.80960  0.81750  Biso   1.000  C
  C29      1.0000 0.98500  0.59200  0.76920  Biso   1.000  C
  C30      1.0000 0.51500  0.09200  0.23080  Biso   1.000  C
  C31      1.0000 0.01500  0.40800  0.23080  Biso   1.000  C
  C32      1.0000 0.48500  0.90800  0.76920  Biso   1.000  C
  C33      1.0000 0.88770  0.53220  0.83190  Biso   1.000  C
  C34      1.0000 0.61230  0.03220  0.16810  Biso   1.000  C
  C35      1.0000 0.11230  0.46780  0.16810  Biso   1.000  C
  C36      1.0000 0.38770  0.96780  0.83190  Biso   1.000  C
  C37      1.0000 0.85840  0.56990  0.94200  Biso   1.000  C
  C38      1.0000 0.64160  0.06990  0.05800  Biso   1.000  C
  C39      1.0000 0.14160  0.43010  0.05800  Biso   1.000  C
  C40      1.0000 0.35840  0.93010  0.94200  Biso   1.000  C
  C41      1.0000 0.92530  0.66750  0.99060  Biso   1.000  C
  C42      1.0000 0.57470  0.16750  0.00940  Biso   1.000  C
  C43      1.0000 0.07470  0.33250  0.00940  Biso   1.000  C
  C44      1.0000 0.42530  0.83250  0.99060  Biso   1.000  C
  C45      1.0000 0.02190  0.72850  0.92940  Biso   1.000  C
  C46      1.0000 0.47810  0.22850  0.07060  Biso   1.000  C
  C47      1.0000 0.97810  0.27150  0.07060  Biso   1.000  C
  C48      1.0000 0.52190  0.77150  0.92940  Biso   1.000  C
  H1       1.0000 0.12640  0.82840  0.73100  Biso   1.000  H
  H2       1.0000 0.37360  0.32840  0.26900  Biso   1.000  H
  H3       1.0000 0.87360  0.17160  0.26900  Biso   1.000  H
  H4       1.0000 0.62640  0.67160  0.73100  Biso   1.000  H
  H5       1.0000 0.22080  0.75370  0.78540  Biso   1.000  H
  H6       1.0000 0.27920  0.25370  0.21460  Biso   1.000  H
  H7       1.0000 0.77920  0.24630  0.21460  Biso   1.000  H
  H8       1.0000 0.72080  0.74630  0.78540  Biso   1.000  H
  H9       1.0000 0.94590  0.56150  0.60300  Biso   1.000  H
  H10      1.0000 0.55410  0.06150  0.39700  Biso   1.000  H
  H11      1.0000 0.05410  0.43850  0.39700  Biso   1.000  H
  H12      1.0000 0.44590  0.93850  0.60300  Biso   1.000  H
  H13      1.0000 0.04070  0.49550  0.65710  Biso   1.000  H
  H14      1.0000 0.45930  0.99550  0.34290  Biso   1.000  H
  H15      1.0000 0.95930  0.50450  0.34290  Biso   1.000  H
  H16      1.0000 0.54070  0.00450  0.65710  Biso   1.000  H
  H17      1.0000 0.84470  0.47460  0.80010  Biso   1.000  H
  H18      1.0000 0.65530  0.97460  0.19990  Biso   1.000  H
  H19      1.0000 0.15530  0.52540  0.19990  Biso   1.000  H
  H20      1.0000 0.34470  0.02540  0.80010  Biso   1.000  H
  H21      1.0000 0.79420  0.53590  0.98650  Biso   1.000  H
  H22      1.0000 0.70580  0.03590  0.01350  Biso   1.000  H
  H23      1.0000 0.20580  0.46410  0.01350  Biso   1.000  H
  H24      1.0000 0.29420  0.96410  0.98650  Biso   1.000  H
  H25      1.0000 0.91780  0.69100  0.06400  Biso   1.000  H
  H26      1.0000 0.58220  0.19100  0.93600  Biso   1.000  H
  H27      1.0000 0.08220  0.30900  0.93600  Biso   1.000  H
  H28      1.0000 0.41780  0.80900  0.06400  Biso   1.000  H
  H29      1.0000 0.06430  0.78880  0.95680  Biso   1.000  H
  H30      1.0000 0.43570  0.28880  0.04320  Biso   1.000  H
  H31      1.0000 0.93570  0.21120  0.04320  Biso   1.000  H
  H32      1.0000 0.56430  0.71120  0.95680  Biso   1.000  H
