data_image0
_cell_length_a       13.265
_cell_length_b       13.715
_cell_length_c       16.173
_cell_angle_alpha    89.4
_cell_angle_beta     69.2
_cell_angle_gamma    76.26

_symmetry_space_group_name_H-M    "P 1"
_symmetry_int_tables_number       1

loop_
  _symmetry_equiv_pos_as_xyz
  'x, y, z'

loop_
  _atom_site_label
  _atom_site_occupancy
  _atom_site_fract_x
  _atom_site_fract_y
  _atom_site_fract_z
  _atom_site_thermal_displace_type
  _atom_site_B_iso_or_equiv
  _atom_site_type_symbol
  O1       1.0000 0.58170  0.62190  0.50950  Biso   1.000  O
  O2       1.0000 0.41830  0.37810  0.49050  Biso   1.000  O
  O3       1.0000 0.54750  0.56090  0.36350  Biso   1.000  O
  O4       1.0000 0.45250  0.43910  0.63650  Biso   1.000  O
  O5       1.0000 0.99650  0.63070  0.08960  Biso   1.000  O
  O6       1.0000 0.00350  0.36930  0.91040  Biso   1.000  O
  O7       1.0000 0.81980  0.55170  0.09530  Biso   1.000  O
  O8       1.0000 0.18020  0.44830  0.90470  Biso   1.000  O
  Cu1      1.0000 0.97314  0.49560  0.08557  Biso   1.000  Cu
  Cu2      1.0000 0.02686  0.50440  0.91443  Biso   1.000  Cu
  Cu3      1.0000 0.60411  0.48924  0.44935  Biso   1.000  Cu
  Cu4      1.0000 0.39589  0.51076  0.55065  Biso   1.000  Cu
  O9       1.0000 0.04060  0.63920  0.94270  Biso   1.000  O
  O10      1.0000 0.95940  0.36080  0.05730  Biso   1.000  O
  O11      1.0000 0.40380  0.63950  0.59630  Biso   1.000  O
  O12      1.0000 0.59620  0.36050  0.40370  Biso   1.000  O
  O13      1.0000 0.86600  0.55780  0.94740  Biso   1.000  O
  O14      1.0000 0.13400  0.44220  0.05260  Biso   1.000  O
  O15      1.0000 0.36890  0.58160  0.45160  Biso   1.000  O
  O16      1.0000 0.63110  0.41840  0.54840  Biso   1.000  O
  N1       1.0000 0.78440  0.46920  0.37400  Biso   1.000  N
  N2       1.0000 0.21560  0.53080  0.62600  Biso   1.000  N
  C1       1.0000 0.79650  0.56870  0.02640  Biso   1.000  C
  C2       1.0000 0.20350  0.43130  0.97360  Biso   1.000  C
  N3       1.0000 0.96930  0.34970  0.33110  Biso   1.000  N
  N4       1.0000 0.03070  0.65030  0.66890  Biso   1.000  N
  N5       1.0000 0.93080  0.47640  0.23100  Biso   1.000  N
  N6       1.0000 0.06920  0.52360  0.76900  Biso   1.000  N
  C3       1.0000 0.60520  0.55170  0.09730  Biso   1.000  C
  C4       1.0000 0.39480  0.44830  0.90270  Biso   1.000  C
  H1       1.0000 0.63240  0.50850  0.13350  Biso   1.000  H
  H2       1.0000 0.36760  0.49150  0.86650  Biso   1.000  H
  C5       1.0000 0.41070  0.67490  0.32300  Biso   1.000  C
  C6       1.0000 0.58930  0.32510  0.67700  Biso   1.000  C
  C7       1.0000 0.44480  0.60000  0.38280  Biso   1.000  C
  C8       1.0000 0.55520  0.40000  0.61720  Biso   1.000  C
  C9       1.0000 0.80960  0.48870  0.27890  Biso   1.000  C
  C10      1.0000 0.19040  0.51130  0.72110  Biso   1.000  C
  H3       1.0000 0.78400  0.44230  0.25100  Biso   1.000  H
  H4       1.0000 0.21600  0.55770  0.74900  Biso   1.000  H
  H5       1.0000 0.76980  0.55660  0.27490  Biso   1.000  H
  H6       1.0000 0.23020  0.44340  0.72510  Biso   1.000  H
  N7       1.0000 0.94740  0.52640  0.36900  Biso   1.000  N
  N8       1.0000 0.05260  0.47360  0.63100  Biso   1.000  N
  C11      1.0000 0.48880  0.67270  0.56410  Biso   1.000  C
  C12      1.0000 0.51120  0.32730  0.43590  Biso   1.000  C
  C13      1.0000 0.38070  0.84940  0.58310  Biso   1.000  C
  C14      1.0000 0.61930  0.15060  0.41690  Biso   1.000  C
  H7       1.0000 0.32740  0.82330  0.57250  Biso   1.000  H
  H8       1.0000 0.67260  0.17670  0.42750  Biso   1.000  H
  C15      1.0000 0.67430  0.60040  0.03860  Biso   1.000  C
  C16      1.0000 0.32570  0.39960  0.96140  Biso   1.000  C
  C17      1.0000 0.14350  0.80350  0.95550  Biso   1.000  C
  C18      1.0000 0.85650  0.19650  0.04450  Biso   1.000  C
  C19      1.0000 0.16280  0.89910  0.96720  Biso   1.000  C
  C20      1.0000 0.83720  0.10090  0.03280  Biso   1.000  C
  C21      1.0000 0.49110  0.71820  0.27130  Biso   1.000  C
  C22      1.0000 0.50890  0.28180  0.72870  Biso   1.000  C
  H9       1.0000 0.56270  0.69640  0.27200  Biso   1.000  H
  H10      1.0000 0.43730  0.30360  0.72800  Biso   1.000  H
  C23      1.0000 0.44860  0.63500  0.05370  Biso   1.000  C
  C24      1.0000 0.55140  0.36500  0.94630  Biso   1.000  C
  C25      1.0000 0.29790  0.70660  0.32260  Biso   1.000  C
  C26      1.0000 0.70210  0.29340  0.67740  Biso   1.000  C
  C27      1.0000 0.47470  0.78370  0.58700  Biso   1.000  C
  C28      1.0000 0.52530  0.21630  0.41300  Biso   1.000  C
  C29      1.0000 0.55660  0.83860  0.16340  Biso   1.000  C
  C30      1.0000 0.44340  0.16140  0.83660  Biso   1.000  C
  H11      1.0000 0.62780  0.81550  0.16470  Biso   1.000  H
  H12      1.0000 0.37220  0.18450  0.83530  Biso   1.000  H
  C31      1.0000 0.36100  0.83070  0.21520  Biso   1.000  C
  C32      1.0000 0.63900  0.16930  0.78480  Biso   1.000  C
  C33      1.0000 0.52090  0.68890  0.99230  Biso   1.000  C
  C34      1.0000 0.47910  0.31110  0.00770  Biso   1.000  C
  C35      1.0000 0.54070  0.92520  0.62080  Biso   1.000  C
  C36      1.0000 0.45930  0.07480  0.37920  Biso   1.000  C
  C37      1.0000 0.49170  0.56530  0.10500  Biso   1.000  C
  C38      1.0000 0.50830  0.43470  0.89500  Biso   1.000  C
  C39      1.0000 0.66210  0.79070  0.87240  Biso   1.000  C
  C40      1.0000 0.33790  0.20930  0.12760  Biso   1.000  C
  H13      1.0000 0.70840  0.82510  0.83270  Biso   1.000  H
  H14      1.0000 0.29160  0.17490  0.16730  Biso   1.000  H
  C41      1.0000 0.10140  0.96080  0.04970  Biso   1.000  C
  C42      1.0000 0.89860  0.03920  0.95030  Biso   1.000  C
  C43      1.0000 0.05770  0.77180  0.02600  Biso   1.000  C
  C44      1.0000 0.94230  0.22820  0.97400  Biso   1.000  C
  C45      1.0000 0.99780  0.83290  0.10230  Biso   1.000  C
  C46      1.0000 0.00220  0.16710  0.89770  Biso   1.000  C
  H15      1.0000 0.94130  0.81220  0.14620  Biso   1.000  H
  H16      1.0000 0.05870  0.18780  0.85380  Biso   1.000  H
  C47      1.0000 0.36180  0.95560  0.59470  Biso   1.000  C
  C48      1.0000 0.63820  0.04440  0.40530  Biso   1.000  C
  C49      1.0000 0.46980  0.79580  0.21600  Biso   1.000  C
  C50      1.0000 0.53020  0.20420  0.78400  Biso   1.000  C
  C51      1.0000 0.55670  0.81870  0.60610  Biso   1.000  C
  C52      1.0000 0.44330  0.18130  0.39390  Biso   1.000  C
  C53      1.0000 0.02980  0.67380  0.01860  Biso   1.000  C
  C54      1.0000 0.97020  0.32620  0.98140  Biso   1.000  C
  C55      1.0000 0.84870  0.36390  0.37700  Biso   1.000  C
  C56      1.0000 0.15130  0.63610  0.62300  Biso   1.000  C
  H17      1.0000 0.83370  0.34930  0.43840  Biso   1.000  H
  H18      1.0000 0.16630  0.65070  0.56160  Biso   1.000  H
  H19      1.0000 0.82350  0.31670  0.34970  Biso   1.000  H
  H20      1.0000 0.17650  0.68330  0.65030  Biso   1.000  H
  C57      1.0000 0.55060  0.80380  0.87790  Biso   1.000  C
  C58      1.0000 0.44940  0.19620  0.12210  Biso   1.000  C
  H21      1.0000 0.52410  0.84530  0.84040  Biso   1.000  H
  H22      1.0000 0.47590  0.15470  0.15960  Biso   1.000  H
  C59      1.0000 0.33550  0.64550  0.06510  Biso   1.000  C
  C60      1.0000 0.66450  0.35450  0.93490  Biso   1.000  C
  H23      1.0000 0.30390  0.69120  0.03280  Biso   1.000  H
  H24      1.0000 0.69610  0.30880  0.96720  Biso   1.000  H
  C61      1.0000 0.53630  0.91400  0.11040  Biso   1.000  C
  C62      1.0000 0.46370  0.08600  0.88960  Biso   1.000  C
  H25      1.0000 0.59310  0.94240  0.07600  Biso   1.000  H
  H26      1.0000 0.40690  0.05760  0.92400  Biso   1.000  H
  C63      1.0000 0.44330  0.99460  0.61390  Biso   1.000  C
  C64      1.0000 0.55670  0.00540  0.38610  Biso   1.000  C
  C65      1.0000 0.63400  0.67180  0.98450  Biso   1.000  C
  C66      1.0000 0.36600  0.32820  0.01550  Biso   1.000  C
  C67      1.0000 0.70100  0.72710  0.92590  Biso   1.000  C
  C68      1.0000 0.29900  0.27290  0.07410  Biso   1.000  C
  H27      1.0000 0.77350  0.72020  0.92340  Biso   1.000  H
  H28      1.0000 0.22650  0.27980  0.07660  Biso   1.000  H
  C69      1.0000 0.34350  0.90700  0.15900  Biso   1.000  C
  C70      1.0000 0.65650  0.09300  0.84100  Biso   1.000  C
  H29      1.0000 0.27340  0.93040  0.15570  Biso   1.000  H
  H30      1.0000 0.72660  0.06960  0.84430  Biso   1.000  H
  C71      1.0000 0.27060  0.02070  0.58600  Biso   1.000  C
  C72      1.0000 0.72940  0.97930  0.41400  Biso   1.000  C
  H31      1.0000 0.21840  0.99490  0.57340  Biso   1.000  H
  H32      1.0000 0.78160  0.00510  0.42660  Biso   1.000  H
  C73      1.0000 0.31660  0.52170  0.17070  Biso   1.000  C
  C74      1.0000 0.68340  0.47830  0.82930  Biso   1.000  C
  H33      1.0000 0.27280  0.48420  0.20880  Biso   1.000  H
  H34      1.0000 0.72720  0.51580  0.79120  Biso   1.000  H
  C75      1.0000 0.42530  0.50920  0.16250  Biso   1.000  C
  C76      1.0000 0.57470  0.49080  0.83750  Biso   1.000  C
  H35      1.0000 0.45520  0.46300  0.19540  Biso   1.000  H
  H36      1.0000 0.54480  0.53700  0.80460  Biso   1.000  H
  C77      1.0000 0.27380  0.78520  0.26960  Biso   1.000  C
  C78      1.0000 0.72620  0.21480  0.73040  Biso   1.000  C
  C79      1.0000 0.82770  0.53850  0.41390  Biso   1.000  C
  C80      1.0000 0.17230  0.46150  0.58610  Biso   1.000  C
  H37      1.0000 0.78900  0.60740  0.41130  Biso   1.000  H
  H38      1.0000 0.21100  0.39260  0.58870  Biso   1.000  H
  H39      1.0000 0.81220  0.52640  0.47590  Biso   1.000  H
  H40      1.0000 0.18780  0.47360  0.52410  Biso   1.000  H
  C81      1.0000 0.48330  0.75610  0.93730  Biso   1.000  C
  C82      1.0000 0.51670  0.24390  0.06270  Biso   1.000  C
  H41      1.0000 0.40930  0.76800  0.94210  Biso   1.000  H
  H42      1.0000 0.59070  0.23200  0.05790  Biso   1.000  H
  C83      1.0000 0.01870  0.92790  0.11740  Biso   1.000  C
  C84      1.0000 0.98130  0.07210  0.88260  Biso   1.000  C
  C85      1.0000 0.30460  0.87150  0.81970  Biso   1.000  C
  C86      1.0000 0.69540  0.12850  0.18030  Biso   1.000  C
  H43      1.0000 0.35510  0.89550  0.77330  Biso   1.000  H
  H44      1.0000 0.64490  0.10450  0.22670  Biso   1.000  H
  C87      1.0000 0.96850  0.54630  0.27530  Biso   1.000  C
  C88      1.0000 0.03150  0.45370  0.72470  Biso   1.000  C
  H45      1.0000 0.04760  0.53930  0.24430  Biso   1.000  H
  H46      1.0000 0.95240  0.46070  0.75570  Biso   1.000  H
  H47      1.0000 0.92980  0.61500  0.27220  Biso   1.000  H
  H48      1.0000 0.07020  0.38500  0.72780  Biso   1.000  H
  C89      1.0000 0.98940  0.37170  0.23790  Biso   1.000  C
  C90      1.0000 0.01060  0.62830  0.76210  Biso   1.000  C
  H49      1.0000 0.96420  0.32480  0.21030  Biso   1.000  H
  H50      1.0000 0.03580  0.67520  0.78970  Biso   1.000  H
  H51      1.0000 0.06880  0.36200  0.20610  Biso   1.000  H
  H52      1.0000 0.93120  0.63800  0.79390  Biso   1.000  H
  C91      1.0000 0.21150  0.74250  0.87750  Biso   1.000  C
  C92      1.0000 0.78850  0.25750  0.12250  Biso   1.000  C
  H53      1.0000 0.20260  0.67820  0.87070  Biso   1.000  H
  H54      1.0000 0.79740  0.32180  0.12930  Biso   1.000  H
  C93      1.0000 0.21260  0.66000  0.36970  Biso   1.000  C
  C94      1.0000 0.78740  0.34000  0.63030  Biso   1.000  C
  H55      1.0000 0.22700  0.60690  0.40350  Biso   1.000  H
  H56      1.0000 0.77300  0.39310  0.59650  Biso   1.000  H
  C95      1.0000 0.42940  0.94700  0.10910  Biso   1.000  C
  C96      1.0000 0.57060  0.05300  0.89090  Biso   1.000  C
  H57      1.0000 0.41560  0.99800  0.07330  Biso   1.000  H
  H58      1.0000 0.58440  0.00200  0.92670  Biso   1.000  H
  C97      1.0000 0.65110  0.75170  0.61280  Biso   1.000  C
  C98      1.0000 0.34890  0.24830  0.38720  Biso   1.000  C
  H59      1.0000 0.66230  0.68260  0.60320  Biso   1.000  H
  H60      1.0000 0.33770  0.31740  0.39680  Biso   1.000  H
  C99      1.0000 0.12260  0.05240  0.06870  Biso   1.000  C
  C100     1.0000 0.87740  0.94760  0.93130  Biso   1.000  C
  H61      1.0000 0.17720  0.07630  0.02580  Biso   1.000  H
  H62      1.0000 0.82280  0.92370  0.97420  Biso   1.000  H
  C101     1.0000 0.62230  0.95680  0.64270  Biso   1.000  C
  C102     1.0000 0.37770  0.04320  0.35730  Biso   1.000  C
  H63      1.0000 0.61280  0.02540  0.65360  Biso   1.000  H
  H64      1.0000 0.38720  0.97460  0.34640  Biso   1.000  H
  C103     1.0000 0.97870  0.07480  0.21490  Biso   1.000  C
  C104     1.0000 0.02130  0.92520  0.78510  Biso   1.000  C
  H65      1.0000 0.93830  0.11310  0.26870  Biso   1.000  H
  H66      1.0000 0.06170  0.88690  0.73130  Biso   1.000  H
  C105     1.0000 0.42570  0.09820  0.62290  Biso   1.000  C
  C106     1.0000 0.57430  0.90180  0.37710  Biso   1.000  C
  H67      1.0000 0.47720  0.12530  0.63540  Biso   1.000  H
  H68      1.0000 0.52280  0.87470  0.36460  Biso   1.000  H
  C107     1.0000 0.00490  0.42220  0.37150  Biso   1.000  C
  C108     1.0000 0.99510  0.57780  0.62850  Biso   1.000  C
  H69      1.0000 0.08430  0.41390  0.34120  Biso   1.000  H
  H70      1.0000 0.91570  0.58610  0.65880  Biso   1.000  H
  H71      1.0000 0.99220  0.40840  0.43290  Biso   1.000  H
  H72      1.0000 0.00780  0.59160  0.56710  Biso   1.000  H
  C109     1.0000 0.25500  0.12380  0.59570  Biso   1.000  C
  C110     1.0000 0.74500  0.87620  0.40430  Biso   1.000  C
  H73      1.0000 0.19240  0.16710  0.59020  Biso   1.000  H
  H74      1.0000 0.80760  0.83290  0.40980  Biso   1.000  H
  C111     1.0000 0.24480  0.93000  0.89550  Biso   1.000  C
  C112     1.0000 0.75520  0.07000  0.10450  Biso   1.000  C
  H75      1.0000 0.25750  0.99300  0.90130  Biso   1.000  H
  H76      1.0000 0.74250  0.00700  0.09870  Biso   1.000  H
  C113     1.0000 0.71410  0.89240  0.64870  Biso   1.000  C
  C114     1.0000 0.28590  0.10760  0.35130  Biso   1.000  C
  H77      1.0000 0.76630  0.91690  0.66250  Biso   1.000  H
  H78      1.0000 0.23370  0.08310  0.33750  Biso   1.000  H
  C115     1.0000 0.16630  0.81560  0.26800  Biso   1.000  C
  C116     1.0000 0.83370  0.18440  0.73200  Biso   1.000  C
  H79      1.0000 0.15020  0.86750  0.23360  Biso   1.000  H
  H80      1.0000 0.84980  0.13250  0.76640  Biso   1.000  H
  C117     1.0000 0.29140  0.77530  0.81040  Biso   1.000  C
  C118     1.0000 0.70860  0.22470  0.18960  Biso   1.000  C
  H81      1.0000 0.33610  0.73330  0.75930  Biso   1.000  H
  H82      1.0000 0.66390  0.26670  0.24070  Biso   1.000  H
  C119     1.0000 0.95530  0.98710  0.19910  Biso   1.000  C
  C120     1.0000 0.04470  0.01290  0.80090  Biso   1.000  C
  H83      1.0000 0.89810  0.96580  0.24170  Biso   1.000  H
  H84      1.0000 0.10190  0.03420  0.75830  Biso   1.000  H
  C121     1.0000 0.10700  0.69330  0.36570  Biso   1.000  C
  C122     1.0000 0.89300  0.30670  0.63430  Biso   1.000  C
  H85      1.0000 0.05110  0.66260  0.39740  Biso   1.000  H
  H86      1.0000 0.94890  0.33740  0.60260  Biso   1.000  H
  C123     1.0000 0.27220  0.59140  0.12130  Biso   1.000  C
  C124     1.0000 0.72780  0.40860  0.87870  Biso   1.000  C
  H87      1.0000 0.19810  0.60060  0.12710  Biso   1.000  H
  H88      1.0000 0.80190  0.39940  0.87290  Biso   1.000  H
  C125     1.0000 0.72870  0.79100  0.63430  Biso   1.000  C
  C126     1.0000 0.27130  0.20900  0.36570  Biso   1.000  C
  H89      1.0000 0.79140  0.74680  0.63880  Biso   1.000  H
  H90      1.0000 0.20860  0.25320  0.36120  Biso   1.000  H
  C127     1.0000 0.06380  0.10740  0.14980  Biso   1.000  C
  C128     1.0000 0.93620  0.89260  0.85020  Biso   1.000  C
  H91      1.0000 0.08080  0.16660  0.16130  Biso   1.000  H
  H92      1.0000 0.91920  0.83340  0.83870  Biso   1.000  H
  C129     1.0000 0.08430  0.77090  0.31550  Biso   1.000  C
  C130     1.0000 0.91570  0.22910  0.68450  Biso   1.000  C
  H93      1.0000 0.01310  0.79300  0.31390  Biso   1.000  H
  H94      1.0000 0.98690  0.20700  0.68610  Biso   1.000  H
  C131     1.0000 0.33400  0.16200  0.61360  Biso   1.000  C
  C132     1.0000 0.66600  0.83800  0.38640  Biso   1.000  C
  H95      1.0000 0.32470  0.23130  0.61940  Biso   1.000  H
  H96      1.0000 0.67530  0.76870  0.38060  Biso   1.000  H
  O17      1.0000 0.01000  0.03200  0.47500  Biso   1.000  O
  O18      1.0000 0.99000  0.96800  0.52500  Biso   1.000  O
  O19      1.0000 0.87560  0.13180  0.47850  Biso   1.000  O
  O20      1.0000 0.12440  0.86820  0.52150  Biso   1.000  O
