data_image0
_cell_length_a       23.331
_cell_length_b       12.573
_cell_length_c       17.537
_cell_angle_alpha    90
_cell_angle_beta     111.88
_cell_angle_gamma    90

_symmetry_space_group_name_H-M    "P 1"
_symmetry_int_tables_number       1

loop_
  _symmetry_equiv_pos_as_xyz
  'x, y, z'

loop_
  _atom_site_label
  _atom_site_occupancy
  _atom_site_fract_x
  _atom_site_fract_y
  _atom_site_fract_z
  _atom_site_thermal_displace_type
  _atom_site_B_iso_or_equiv
  _atom_site_type_symbol
  Cu1      1.0000 0.00074  0.95912  0.93210  Biso   1.000  Cu
  Cu2      1.0000 0.99926  0.95912  0.56790  Biso   1.000  Cu
  Cu3      1.0000 0.50074  0.45912  0.93210  Biso   1.000  Cu
  Cu4      1.0000 0.49926  0.45912  0.56790  Biso   1.000  Cu
  Cu5      1.0000 0.99926  0.04088  0.06790  Biso   1.000  Cu
  Cu6      1.0000 0.00074  0.04088  0.43210  Biso   1.000  Cu
  Cu7      1.0000 0.49926  0.54088  0.06790  Biso   1.000  Cu
  Cu8      1.0000 0.50074  0.54088  0.43210  Biso   1.000  Cu
  N1       1.0000 0.99993  0.87515  0.81991  Biso   1.000  N
  N2       1.0000 0.00007  0.87515  0.68009  Biso   1.000  N
  N3       1.0000 0.49993  0.37515  0.81991  Biso   1.000  N
  N4       1.0000 0.50007  0.37515  0.68009  Biso   1.000  N
  N5       1.0000 0.00007  0.12485  0.18009  Biso   1.000  N
  N6       1.0000 0.99993  0.12485  0.31991  Biso   1.000  N
  N7       1.0000 0.50007  0.62485  0.18009  Biso   1.000  N
  N8       1.0000 0.49993  0.62485  0.31991  Biso   1.000  N
  N9       1.0000 0.05624  0.73790  0.77872  Biso   1.000  N
  N10      1.0000 0.94376  0.73790  0.72128  Biso   1.000  N
  N11      1.0000 0.55624  0.23790  0.77872  Biso   1.000  N
  N12      1.0000 0.44376  0.23790  0.72128  Biso   1.000  N
  N13      1.0000 0.94376  0.26210  0.22128  Biso   1.000  N
  N14      1.0000 0.05624  0.26210  0.27872  Biso   1.000  N
  N15      1.0000 0.44376  0.76210  0.22128  Biso   1.000  N
  N16      1.0000 0.55624  0.76210  0.27872  Biso   1.000  N
  O1       1.0000 0.92095  0.02984  0.87662  Biso   1.000  O
  O2       1.0000 0.07905  0.02984  0.62338  Biso   1.000  O
  O3       1.0000 0.42095  0.52984  0.87662  Biso   1.000  O
  O4       1.0000 0.57905  0.52984  0.62338  Biso   1.000  O
  O5       1.0000 0.07905  0.97016  0.12338  Biso   1.000  O
  O6       1.0000 0.92095  0.97016  0.37662  Biso   1.000  O
  O7       1.0000 0.57905  0.47016  0.12338  Biso   1.000  O
  O8       1.0000 0.42095  0.47016  0.37662  Biso   1.000  O
  O9       1.0000 0.95901  0.84264  0.96450  Biso   1.000  O
  O10      1.0000 0.04099  0.84264  0.53550  Biso   1.000  O
  O11      1.0000 0.45901  0.34264  0.96450  Biso   1.000  O
  O12      1.0000 0.54099  0.34264  0.53550  Biso   1.000  O
  O13      1.0000 0.04099  0.15736  0.03550  Biso   1.000  O
  O14      1.0000 0.95901  0.15736  0.46450  Biso   1.000  O
  O15      1.0000 0.54099  0.65736  0.03550  Biso   1.000  O
  O16      1.0000 0.45901  0.65736  0.46450  Biso   1.000  O
  O17      1.0000 0.92015  0.09902  0.99288  Biso   1.000  O
  O18      1.0000 0.07985  0.09902  0.50712  Biso   1.000  O
  O19      1.0000 0.42015  0.59902  0.99288  Biso   1.000  O
  O20      1.0000 0.57985  0.59902  0.50712  Biso   1.000  O
  O21      1.0000 0.07985  0.90098  0.00712  Biso   1.000  O
  O22      1.0000 0.92015  0.90098  0.49288  Biso   1.000  O
  O23      1.0000 0.57985  0.40098  0.00712  Biso   1.000  O
  O24      1.0000 0.42015  0.40098  0.49288  Biso   1.000  O
  O25      1.0000 0.95726  0.91190  0.08016  Biso   1.000  O
  O26      1.0000 0.04274  0.91190  0.41984  Biso   1.000  O
  O27      1.0000 0.45726  0.41190  0.08016  Biso   1.000  O
  O28      1.0000 0.54274  0.41190  0.41984  Biso   1.000  O
  O29      1.0000 0.04274  0.08810  0.91984  Biso   1.000  O
  O30      1.0000 0.95726  0.08810  0.58016  Biso   1.000  O
  O31      1.0000 0.54274  0.58810  0.91984  Biso   1.000  O
  O32      1.0000 0.45726  0.58810  0.58016  Biso   1.000  O
  C1       1.0000 0.89707  0.08500  0.91624  Biso   1.000  C
  C2       1.0000 0.10293  0.08500  0.58376  Biso   1.000  C
  C3       1.0000 0.39707  0.58500  0.91624  Biso   1.000  C
  C4       1.0000 0.60293  0.58500  0.58376  Biso   1.000  C
  C5       1.0000 0.10293  0.91500  0.08376  Biso   1.000  C
  C6       1.0000 0.89707  0.91500  0.41624  Biso   1.000  C
  C7       1.0000 0.60293  0.41500  0.08376  Biso   1.000  C
  C8       1.0000 0.39707  0.41500  0.41624  Biso   1.000  C
  C9       1.0000 0.83529  0.13900  0.87031  Biso   1.000  C
  C10      1.0000 0.16471  0.13900  0.62969  Biso   1.000  C
  C11      1.0000 0.33529  0.63900  0.87031  Biso   1.000  C
  C12      1.0000 0.66471  0.63900  0.62969  Biso   1.000  C
  C13      1.0000 0.16471  0.86100  0.12969  Biso   1.000  C
  C14      1.0000 0.83529  0.86100  0.37031  Biso   1.000  C
  C15      1.0000 0.66471  0.36100  0.12969  Biso   1.000  C
  C16      1.0000 0.33529  0.36100  0.37031  Biso   1.000  C
  C17      1.0000 0.84286  0.26030  0.88134  Biso   1.000  C
  C18      1.0000 0.15714  0.26030  0.61866  Biso   1.000  C
  C19      1.0000 0.34286  0.76030  0.88134  Biso   1.000  C
  C20      1.0000 0.65714  0.76030  0.61866  Biso   1.000  C
  C21      1.0000 0.15714  0.73970  0.11866  Biso   1.000  C
  C22      1.0000 0.84286  0.73970  0.38134  Biso   1.000  C
  C23      1.0000 0.65714  0.23970  0.11866  Biso   1.000  C
  C24      1.0000 0.34286  0.23970  0.38134  Biso   1.000  C
  H1       1.0000 0.87220  0.28510  0.85890  Biso   1.000  H
  H2       1.0000 0.12780  0.28510  0.64110  Biso   1.000  H
  H3       1.0000 0.37220  0.78510  0.85890  Biso   1.000  H
  H4       1.0000 0.62780  0.78510  0.64110  Biso   1.000  H
  H5       1.0000 0.12780  0.71490  0.14110  Biso   1.000  H
  H6       1.0000 0.87220  0.71490  0.35890  Biso   1.000  H
  H7       1.0000 0.62780  0.21490  0.14110  Biso   1.000  H
  H8       1.0000 0.37220  0.21490  0.35890  Biso   1.000  H
  H9       1.0000 0.85830  0.27760  0.93880  Biso   1.000  H
  H10      1.0000 0.14170  0.27760  0.56120  Biso   1.000  H
  H11      1.0000 0.35830  0.77760  0.93880  Biso   1.000  H
  H12      1.0000 0.64170  0.77760  0.56120  Biso   1.000  H
  H13      1.0000 0.14170  0.72240  0.06120  Biso   1.000  H
  H14      1.0000 0.85830  0.72240  0.43880  Biso   1.000  H
  H15      1.0000 0.64170  0.22240  0.06120  Biso   1.000  H
  H16      1.0000 0.35830  0.22240  0.43880  Biso   1.000  H
  C25      1.0000 0.77987  0.31560  0.83732  Biso   1.000  C
  C26      1.0000 0.22013  0.31560  0.66268  Biso   1.000  C
  C27      1.0000 0.27987  0.81560  0.83732  Biso   1.000  C
  C28      1.0000 0.72013  0.81560  0.66268  Biso   1.000  C
  C29      1.0000 0.22013  0.68440  0.16268  Biso   1.000  C
  C30      1.0000 0.77987  0.68440  0.33732  Biso   1.000  C
  C31      1.0000 0.72013  0.18440  0.16268  Biso   1.000  C
  C32      1.0000 0.27987  0.18440  0.33732  Biso   1.000  C
  H17      1.0000 0.78500  0.39120  0.84450  Biso   1.000  H
  H18      1.0000 0.21500  0.39120  0.65550  Biso   1.000  H
  H19      1.0000 0.28500  0.89120  0.84450  Biso   1.000  H
  H20      1.0000 0.71500  0.89120  0.65550  Biso   1.000  H
  H21      1.0000 0.21500  0.60880  0.15550  Biso   1.000  H
  H22      1.0000 0.78500  0.60880  0.34450  Biso   1.000  H
  H23      1.0000 0.71500  0.10880  0.15550  Biso   1.000  H
  H24      1.0000 0.28500  0.10880  0.34450  Biso   1.000  H
  C33      1.0000 0.75629  0.28900  0.74582  Biso   1.000  C
  C34      1.0000 0.24371  0.28900  0.75418  Biso   1.000  C
  C35      1.0000 0.25629  0.78900  0.74582  Biso   1.000  C
  C36      1.0000 0.74371  0.78900  0.75418  Biso   1.000  C
  C37      1.0000 0.24371  0.71100  0.25418  Biso   1.000  C
  C38      1.0000 0.75629  0.71100  0.24582  Biso   1.000  C
  C39      1.0000 0.74371  0.21100  0.25418  Biso   1.000  C
  C40      1.0000 0.25629  0.21100  0.24582  Biso   1.000  C
  H25      1.0000 0.78490  0.31410  0.72230  Biso   1.000  H
  H26      1.0000 0.21510  0.31410  0.77770  Biso   1.000  H
  H27      1.0000 0.28490  0.81410  0.72230  Biso   1.000  H
  H28      1.0000 0.71510  0.81410  0.77770  Biso   1.000  H
  H29      1.0000 0.21510  0.68590  0.27770  Biso   1.000  H
  H30      1.0000 0.78490  0.68590  0.22230  Biso   1.000  H
  H31      1.0000 0.71510  0.18590  0.27770  Biso   1.000  H
  H32      1.0000 0.28490  0.18590  0.22230  Biso   1.000  H
  H33      1.0000 0.71740  0.32370  0.71810  Biso   1.000  H
  H34      1.0000 0.28260  0.32370  0.78190  Biso   1.000  H
  H35      1.0000 0.21740  0.82370  0.71810  Biso   1.000  H
  H36      1.0000 0.78260  0.82370  0.78190  Biso   1.000  H
  H37      1.0000 0.28260  0.67630  0.28190  Biso   1.000  H
  H38      1.0000 0.71740  0.67630  0.21810  Biso   1.000  H
  H39      1.0000 0.78260  0.17630  0.28190  Biso   1.000  H
  H40      1.0000 0.21740  0.17630  0.21810  Biso   1.000  H
  C41      1.0000 0.74847  0.16880  0.73452  Biso   1.000  C
  C42      1.0000 0.25153  0.16880  0.76548  Biso   1.000  C
  C43      1.0000 0.24847  0.66880  0.73452  Biso   1.000  C
  C44      1.0000 0.75153  0.66880  0.76548  Biso   1.000  C
  C45      1.0000 0.25153  0.83120  0.26548  Biso   1.000  C
  C46      1.0000 0.74847  0.83120  0.23452  Biso   1.000  C
  C47      1.0000 0.75153  0.33120  0.26548  Biso   1.000  C
  C48      1.0000 0.24847  0.33120  0.23452  Biso   1.000  C
  H41      1.0000 0.73340  0.15230  0.67690  Biso   1.000  H
  H42      1.0000 0.26660  0.15230  0.82310  Biso   1.000  H
  H43      1.0000 0.23340  0.65230  0.67690  Biso   1.000  H
  H44      1.0000 0.76660  0.65230  0.82310  Biso   1.000  H
  H45      1.0000 0.26660  0.84770  0.32310  Biso   1.000  H
  H46      1.0000 0.73340  0.84770  0.17690  Biso   1.000  H
  H47      1.0000 0.76660  0.34770  0.32310  Biso   1.000  H
  H48      1.0000 0.23340  0.34770  0.17690  Biso   1.000  H
  C49      1.0000 0.70226  0.13010  0.77090  Biso   1.000  C
  C50      1.0000 0.29774  0.13010  0.72910  Biso   1.000  C
  C51      1.0000 0.20226  0.63010  0.77090  Biso   1.000  C
  C52      1.0000 0.79774  0.63010  0.72910  Biso   1.000  C
  C53      1.0000 0.29774  0.86990  0.22910  Biso   1.000  C
  C54      1.0000 0.70226  0.86990  0.27090  Biso   1.000  C
  C55      1.0000 0.79774  0.36990  0.22910  Biso   1.000  C
  C56      1.0000 0.20226  0.36990  0.27090  Biso   1.000  C
  H49      1.0000 0.66300  0.16360  0.74310  Biso   1.000  H
  H50      1.0000 0.33700  0.16360  0.75690  Biso   1.000  H
  H51      1.0000 0.16300  0.66360  0.74310  Biso   1.000  H
  H52      1.0000 0.83700  0.66360  0.75690  Biso   1.000  H
  H53      1.0000 0.33700  0.83640  0.25690  Biso   1.000  H
  H54      1.0000 0.66300  0.83640  0.24310  Biso   1.000  H
  H55      1.0000 0.83700  0.33640  0.25690  Biso   1.000  H
  H56      1.0000 0.16300  0.33640  0.24310  Biso   1.000  H
  H57      1.0000 0.69690  0.05460  0.76360  Biso   1.000  H
  H58      1.0000 0.30310  0.05460  0.73640  Biso   1.000  H
  H59      1.0000 0.19690  0.55460  0.76360  Biso   1.000  H
  H60      1.0000 0.80310  0.55460  0.73640  Biso   1.000  H
  H61      1.0000 0.30310  0.94540  0.23640  Biso   1.000  H
  H62      1.0000 0.69690  0.94540  0.26360  Biso   1.000  H
  H63      1.0000 0.80310  0.44540  0.23640  Biso   1.000  H
  H64      1.0000 0.19690  0.44540  0.26360  Biso   1.000  H
  C57      1.0000 0.72573  0.15730  0.86179  Biso   1.000  C
  C58      1.0000 0.27427  0.15730  0.63821  Biso   1.000  C
  C59      1.0000 0.22573  0.65730  0.86179  Biso   1.000  C
  C60      1.0000 0.77427  0.65730  0.63821  Biso   1.000  C
  C61      1.0000 0.27427  0.84270  0.13821  Biso   1.000  C
  C62      1.0000 0.72573  0.84270  0.36179  Biso   1.000  C
  C63      1.0000 0.77427  0.34270  0.13821  Biso   1.000  C
  C64      1.0000 0.22573  0.34270  0.36179  Biso   1.000  C
  H65      1.0000 0.69640  0.13330  0.88460  Biso   1.000  H
  H66      1.0000 0.30360  0.13330  0.61540  Biso   1.000  H
  H67      1.0000 0.19640  0.63330  0.88460  Biso   1.000  H
  H68      1.0000 0.80360  0.63330  0.61540  Biso   1.000  H
  H69      1.0000 0.30360  0.86670  0.11540  Biso   1.000  H
  H70      1.0000 0.69640  0.86670  0.38460  Biso   1.000  H
  H71      1.0000 0.80360  0.36670  0.11540  Biso   1.000  H
  H72      1.0000 0.19640  0.36670  0.38460  Biso   1.000  H
  C65      1.0000 0.78819  0.10190  0.90652  Biso   1.000  C
  C66      1.0000 0.21181  0.10190  0.59348  Biso   1.000  C
  C67      1.0000 0.28819  0.60190  0.90652  Biso   1.000  C
  C68      1.0000 0.71181  0.60190  0.59348  Biso   1.000  C
  C69      1.0000 0.21181  0.89810  0.09348  Biso   1.000  C
  C70      1.0000 0.78819  0.89810  0.40652  Biso   1.000  C
  C71      1.0000 0.71181  0.39810  0.09348  Biso   1.000  C
  C72      1.0000 0.28819  0.39810  0.40652  Biso   1.000  C
  H73      1.0000 0.80300  0.11870  0.96400  Biso   1.000  H
  H74      1.0000 0.19700  0.11870  0.53600  Biso   1.000  H
  H75      1.0000 0.30300  0.61870  0.96400  Biso   1.000  H
  H76      1.0000 0.69700  0.61870  0.53600  Biso   1.000  H
  H77      1.0000 0.19700  0.88130  0.03600  Biso   1.000  H
  H78      1.0000 0.80300  0.88130  0.46400  Biso   1.000  H
  H79      1.0000 0.69700  0.38130  0.03600  Biso   1.000  H
  H80      1.0000 0.30300  0.38130  0.46400  Biso   1.000  H
  H81      1.0000 0.78310  0.02620  0.90070  Biso   1.000  H
  H82      1.0000 0.21690  0.02620  0.59930  Biso   1.000  H
  H83      1.0000 0.28310  0.52620  0.90070  Biso   1.000  H
  H84      1.0000 0.71690  0.52620  0.59930  Biso   1.000  H
  H85      1.0000 0.21690  0.97380  0.09930  Biso   1.000  H
  H86      1.0000 0.78310  0.97380  0.40070  Biso   1.000  H
  H87      1.0000 0.71690  0.47380  0.09930  Biso   1.000  H
  H88      1.0000 0.28310  0.47380  0.40070  Biso   1.000  H
  C73      1.0000 0.81056  0.11360  0.77757  Biso   1.000  C
  C74      1.0000 0.18944  0.11360  0.72243  Biso   1.000  C
  C75      1.0000 0.31056  0.61360  0.77757  Biso   1.000  C
  C76      1.0000 0.68944  0.61360  0.72243  Biso   1.000  C
  C77      1.0000 0.18944  0.88640  0.22243  Biso   1.000  C
  C78      1.0000 0.81056  0.88640  0.27757  Biso   1.000  C
  C79      1.0000 0.68944  0.38640  0.22243  Biso   1.000  C
  C80      1.0000 0.31056  0.38640  0.27757  Biso   1.000  C
  H89      1.0000 0.80580  0.03810  0.76940  Biso   1.000  H
  H90      1.0000 0.19420  0.03810  0.73060  Biso   1.000  H
  H91      1.0000 0.30580  0.53810  0.76940  Biso   1.000  H
  H92      1.0000 0.69420  0.53810  0.73060  Biso   1.000  H
  H93      1.0000 0.19420  0.96190  0.23060  Biso   1.000  H
  H94      1.0000 0.80580  0.96190  0.26940  Biso   1.000  H
  H95      1.0000 0.69420  0.46190  0.23060  Biso   1.000  H
  H96      1.0000 0.30580  0.46190  0.26940  Biso   1.000  H
  H97      1.0000 0.83960  0.13790  0.75440  Biso   1.000  H
  H98      1.0000 0.16040  0.13790  0.74560  Biso   1.000  H
  H99      1.0000 0.33960  0.63790  0.75440  Biso   1.000  H
  H100     1.0000 0.66040  0.63790  0.74560  Biso   1.000  H
  H101     1.0000 0.16040  0.86210  0.24560  Biso   1.000  H
  H102     1.0000 0.83960  0.86210  0.25440  Biso   1.000  H
  H103     1.0000 0.66040  0.36210  0.24560  Biso   1.000  H
  H104     1.0000 0.33960  0.36210  0.25440  Biso   1.000  H
  C81      1.0000 0.73438  0.27730  0.87329  Biso   1.000  C
  C82      1.0000 0.26562  0.27730  0.62671  Biso   1.000  C
  C83      1.0000 0.23438  0.77730  0.87329  Biso   1.000  C
  C84      1.0000 0.76562  0.77730  0.62671  Biso   1.000  C
  C85      1.0000 0.26562  0.72270  0.12671  Biso   1.000  C
  C86      1.0000 0.73438  0.72270  0.37329  Biso   1.000  C
  C87      1.0000 0.76562  0.22270  0.12671  Biso   1.000  C
  C88      1.0000 0.23438  0.22270  0.37329  Biso   1.000  C
  H105     1.0000 0.74920  0.29400  0.93080  Biso   1.000  H
  H106     1.0000 0.25080  0.29400  0.56920  Biso   1.000  H
  H107     1.0000 0.24920  0.79400  0.93080  Biso   1.000  H
  H108     1.0000 0.75080  0.79400  0.56920  Biso   1.000  H
  H109     1.0000 0.25080  0.70600  0.06920  Biso   1.000  H
  H110     1.0000 0.74920  0.70600  0.43080  Biso   1.000  H
  H111     1.0000 0.75080  0.20600  0.06920  Biso   1.000  H
  H112     1.0000 0.24920  0.20600  0.43080  Biso   1.000  H
  H113     1.0000 0.69550  0.31250  0.84680  Biso   1.000  H
  H114     1.0000 0.30450  0.31250  0.65320  Biso   1.000  H
  H115     1.0000 0.19550  0.81250  0.84680  Biso   1.000  H
  H116     1.0000 0.80450  0.81250  0.65320  Biso   1.000  H
  H117     1.0000 0.30450  0.68750  0.15320  Biso   1.000  H
  H118     1.0000 0.69550  0.68750  0.34680  Biso   1.000  H
  H119     1.0000 0.80450  0.18750  0.15320  Biso   1.000  H
  H120     1.0000 0.19550  0.18750  0.34680  Biso   1.000  H
  C89      1.0000 0.94642  0.83870  0.02800  Biso   1.000  C
  C90      1.0000 0.05358  0.83870  0.47200  Biso   1.000  C
  C91      1.0000 0.44642  0.33870  0.02800  Biso   1.000  C
  C92      1.0000 0.55358  0.33870  0.47200  Biso   1.000  C
  C93      1.0000 0.05358  0.16130  0.97200  Biso   1.000  C
  C94      1.0000 0.94642  0.16130  0.52800  Biso   1.000  C
  C95      1.0000 0.55358  0.66130  0.97200  Biso   1.000  C
  C96      1.0000 0.44642  0.66130  0.52800  Biso   1.000  C
  C97      1.0000 0.91730  0.73740  0.04385  Biso   1.000  C
  C98      1.0000 0.08270  0.73740  0.45615  Biso   1.000  C
  C99      1.0000 0.41730  0.23740  0.04385  Biso   1.000  C
  C100     1.0000 0.58270  0.23740  0.45615  Biso   1.000  C
  C101     1.0000 0.08270  0.26260  0.95615  Biso   1.000  C
  C102     1.0000 0.91730  0.26260  0.54385  Biso   1.000  C
  C103     1.0000 0.58270  0.76260  0.95615  Biso   1.000  C
  C104     1.0000 0.41730  0.76260  0.54385  Biso   1.000  C
  C105     1.0000 0.89779  0.66100  0.96883  Biso   1.000  C
  C106     1.0000 0.10221  0.66100  0.53117  Biso   1.000  C
  C107     1.0000 0.39779  0.16100  0.96883  Biso   1.000  C
  C108     1.0000 0.60221  0.16100  0.53117  Biso   1.000  C
  C109     1.0000 0.10221  0.33900  0.03117  Biso   1.000  C
  C110     1.0000 0.89779  0.33900  0.46883  Biso   1.000  C
  C111     1.0000 0.60221  0.83900  0.03117  Biso   1.000  C
  C112     1.0000 0.39779  0.83900  0.46883  Biso   1.000  C
  H121     1.0000 0.93330  0.64260  0.95640  Biso   1.000  H
  H122     1.0000 0.06670  0.64260  0.54360  Biso   1.000  H
  H123     1.0000 0.43330  0.14260  0.95640  Biso   1.000  H
  H124     1.0000 0.56670  0.14260  0.54360  Biso   1.000  H
  H125     1.0000 0.06670  0.35740  0.04360  Biso   1.000  H
  H126     1.0000 0.93330  0.35740  0.45640  Biso   1.000  H
  H127     1.0000 0.56670  0.85740  0.04360  Biso   1.000  H
  H128     1.0000 0.43330  0.85740  0.45640  Biso   1.000  H
  H129     1.0000 0.86840  0.69590  0.92170  Biso   1.000  H
  H130     1.0000 0.13160  0.69590  0.57830  Biso   1.000  H
  H131     1.0000 0.36840  0.19590  0.92170  Biso   1.000  H
  H132     1.0000 0.63160  0.19590  0.57830  Biso   1.000  H
  H133     1.0000 0.13160  0.30410  0.07830  Biso   1.000  H
  H134     1.0000 0.86840  0.30410  0.42170  Biso   1.000  H
  H135     1.0000 0.63160  0.80410  0.07830  Biso   1.000  H
  H136     1.0000 0.36840  0.80410  0.42170  Biso   1.000  H
  C113     1.0000 0.86853  0.55800  0.98840  Biso   1.000  C
  C114     1.0000 0.13147  0.55800  0.51160  Biso   1.000  C
  C115     1.0000 0.36853  0.05800  0.98840  Biso   1.000  C
  C116     1.0000 0.63147  0.05800  0.51160  Biso   1.000  C
  C117     1.0000 0.13147  0.44200  0.01160  Biso   1.000  C
  C118     1.0000 0.86853  0.44200  0.48840  Biso   1.000  C
  C119     1.0000 0.63147  0.94200  0.01160  Biso   1.000  C
  C120     1.0000 0.36853  0.94200  0.48840  Biso   1.000  C
  H137     1.0000 0.85640  0.51050  0.94220  Biso   1.000  H
  H138     1.0000 0.14360  0.51050  0.55780  Biso   1.000  H
  H139     1.0000 0.35640  0.01050  0.94220  Biso   1.000  H
  H140     1.0000 0.64360  0.01050  0.55780  Biso   1.000  H
  H141     1.0000 0.14360  0.48950  0.05780  Biso   1.000  H
  H142     1.0000 0.85640  0.48950  0.44220  Biso   1.000  H
  H143     1.0000 0.64360  0.98950  0.05780  Biso   1.000  H
  H144     1.0000 0.35640  0.98950  0.44220  Biso   1.000  H
  C121     1.0000 0.81382  0.58950  0.00770  Biso   1.000  C
  C122     1.0000 0.18618  0.58950  0.49230  Biso   1.000  C
  C123     1.0000 0.31382  0.08950  0.00770  Biso   1.000  C
  C124     1.0000 0.68618  0.08950  0.49230  Biso   1.000  C
  C125     1.0000 0.18618  0.41050  0.99230  Biso   1.000  C
  C126     1.0000 0.81382  0.41050  0.50770  Biso   1.000  C
  C127     1.0000 0.68618  0.91050  0.99230  Biso   1.000  C
  C128     1.0000 0.31382  0.91050  0.50770  Biso   1.000  C
  H145     1.0000 0.79410  0.52650  0.01700  Biso   1.000  H
  H146     1.0000 0.20590  0.52650  0.48300  Biso   1.000  H
  H147     1.0000 0.29410  0.02650  0.01700  Biso   1.000  H
  H148     1.0000 0.70590  0.02650  0.48300  Biso   1.000  H
  H149     1.0000 0.20590  0.47350  0.98300  Biso   1.000  H
  H150     1.0000 0.79410  0.47350  0.51700  Biso   1.000  H
  H151     1.0000 0.70590  0.97350  0.98300  Biso   1.000  H
  H152     1.0000 0.29410  0.97350  0.51700  Biso   1.000  H
  H153     1.0000 0.78480  0.62590  0.96110  Biso   1.000  H
  H154     1.0000 0.21520  0.62590  0.53890  Biso   1.000  H
  H155     1.0000 0.28480  0.12590  0.96110  Biso   1.000  H
  H156     1.0000 0.71520  0.12590  0.53890  Biso   1.000  H
  H157     1.0000 0.21520  0.37410  0.03890  Biso   1.000  H
  H158     1.0000 0.78480  0.37410  0.46110  Biso   1.000  H
  H159     1.0000 0.71520  0.87410  0.03890  Biso   1.000  H
  H160     1.0000 0.28480  0.87410  0.46110  Biso   1.000  H
  C129     1.0000 0.83072  0.66010  0.08190  Biso   1.000  C
  C130     1.0000 0.16928  0.66010  0.41810  Biso   1.000  C
  C131     1.0000 0.33072  0.16010  0.08190  Biso   1.000  C
  C132     1.0000 0.66928  0.16010  0.41810  Biso   1.000  C
  C133     1.0000 0.16928  0.33990  0.91810  Biso   1.000  C
  C134     1.0000 0.83072  0.33990  0.58190  Biso   1.000  C
  C135     1.0000 0.66928  0.83990  0.91810  Biso   1.000  C
  C136     1.0000 0.33072  0.83990  0.58190  Biso   1.000  C
  H161     1.0000 0.79480  0.67680  0.09390  Biso   1.000  H
  H162     1.0000 0.20520  0.67680  0.40610  Biso   1.000  H
  H163     1.0000 0.29480  0.17680  0.09390  Biso   1.000  H
  H164     1.0000 0.70520  0.17680  0.40610  Biso   1.000  H
  H165     1.0000 0.20520  0.32320  0.90610  Biso   1.000  H
  H166     1.0000 0.79480  0.32320  0.59390  Biso   1.000  H
  H167     1.0000 0.70520  0.82320  0.90610  Biso   1.000  H
  H168     1.0000 0.29480  0.82320  0.59390  Biso   1.000  H
  C137     1.0000 0.87980  0.61190  0.15580  Biso   1.000  C
  C138     1.0000 0.12020  0.61190  0.34420  Biso   1.000  C
  C139     1.0000 0.37980  0.11190  0.15580  Biso   1.000  C
  C140     1.0000 0.62020  0.11190  0.34420  Biso   1.000  C
  C141     1.0000 0.12020  0.38810  0.84420  Biso   1.000  C
  C142     1.0000 0.87980  0.38810  0.65580  Biso   1.000  C
  C143     1.0000 0.62020  0.88810  0.84420  Biso   1.000  C
  C144     1.0000 0.37980  0.88810  0.65580  Biso   1.000  C
  H169     1.0000 0.89260  0.66260  0.20000  Biso   1.000  H
  H170     1.0000 0.10740  0.66260  0.30000  Biso   1.000  H
  H171     1.0000 0.39260  0.16260  0.20000  Biso   1.000  H
  H172     1.0000 0.60740  0.16260  0.30000  Biso   1.000  H
  H173     1.0000 0.10740  0.33740  0.80000  Biso   1.000  H
  H174     1.0000 0.89260  0.33740  0.70000  Biso   1.000  H
  H175     1.0000 0.60740  0.83740  0.80000  Biso   1.000  H
  H176     1.0000 0.39260  0.83740  0.70000  Biso   1.000  H
  H177     1.0000 0.86300  0.55140  0.17360  Biso   1.000  H
  H178     1.0000 0.13700  0.55140  0.32640  Biso   1.000  H
  H179     1.0000 0.36300  0.05140  0.17360  Biso   1.000  H
  H180     1.0000 0.63700  0.05140  0.32640  Biso   1.000  H
  H181     1.0000 0.13700  0.44860  0.82640  Biso   1.000  H
  H182     1.0000 0.86300  0.44860  0.67360  Biso   1.000  H
  H183     1.0000 0.63700  0.94860  0.82640  Biso   1.000  H
  H184     1.0000 0.36300  0.94860  0.67360  Biso   1.000  H
  C145     1.0000 0.93420  0.57760  0.13780  Biso   1.000  C
  C146     1.0000 0.06580  0.57760  0.36220  Biso   1.000  C
  C147     1.0000 0.43420  0.07760  0.13780  Biso   1.000  C
  C148     1.0000 0.56580  0.07760  0.36220  Biso   1.000  C
  C149     1.0000 0.06580  0.42240  0.86220  Biso   1.000  C
  C150     1.0000 0.93420  0.42240  0.63780  Biso   1.000  C
  C151     1.0000 0.56580  0.92240  0.86220  Biso   1.000  C
  C152     1.0000 0.43420  0.92240  0.63780  Biso   1.000  C
  H185     1.0000 0.96330  0.54190  0.18470  Biso   1.000  H
  H186     1.0000 0.03670  0.54190  0.31530  Biso   1.000  H
  H187     1.0000 0.46330  0.04190  0.18470  Biso   1.000  H
  H188     1.0000 0.53670  0.04190  0.31530  Biso   1.000  H
  H189     1.0000 0.03670  0.45810  0.81530  Biso   1.000  H
  H190     1.0000 0.96330  0.45810  0.68470  Biso   1.000  H
  H191     1.0000 0.53670  0.95810  0.81530  Biso   1.000  H
  H192     1.0000 0.46330  0.95810  0.68470  Biso   1.000  H
  C153     1.0000 0.96531  0.68070  0.11770  Biso   1.000  C
  C154     1.0000 0.03469  0.68070  0.38230  Biso   1.000  C
  C155     1.0000 0.46531  0.18070  0.11770  Biso   1.000  C
  C156     1.0000 0.53469  0.18070  0.38230  Biso   1.000  C
  C157     1.0000 0.03469  0.31930  0.88230  Biso   1.000  C
  C158     1.0000 0.96531  0.31930  0.61770  Biso   1.000  C
  C159     1.0000 0.53469  0.81930  0.88230  Biso   1.000  C
  C160     1.0000 0.46531  0.81930  0.61770  Biso   1.000  C
  H193     1.0000 0.97880  0.72730  0.16450  Biso   1.000  H
  H194     1.0000 0.02120  0.72730  0.33550  Biso   1.000  H
  H195     1.0000 0.47880  0.22730  0.16450  Biso   1.000  H
  H196     1.0000 0.52120  0.22730  0.33550  Biso   1.000  H
  H197     1.0000 0.02120  0.27270  0.83550  Biso   1.000  H
  H198     1.0000 0.97880  0.27270  0.66450  Biso   1.000  H
  H199     1.0000 0.52120  0.77270  0.83550  Biso   1.000  H
  H200     1.0000 0.47880  0.77270  0.66450  Biso   1.000  H
  H201     1.0000 0.00060  0.66130  0.10520  Biso   1.000  H
  H202     1.0000 0.99940  0.66130  0.39480  Biso   1.000  H
  H203     1.0000 0.50060  0.16130  0.10520  Biso   1.000  H
  H204     1.0000 0.49940  0.16130  0.39480  Biso   1.000  H
  H205     1.0000 0.99940  0.33870  0.89480  Biso   1.000  H
  H206     1.0000 0.00060  0.33870  0.60520  Biso   1.000  H
  H207     1.0000 0.49940  0.83870  0.89480  Biso   1.000  H
  H208     1.0000 0.50060  0.83870  0.60520  Biso   1.000  H
  C161     1.0000 0.91800  0.50700  0.06200  Biso   1.000  C
  C162     1.0000 0.08200  0.50700  0.43800  Biso   1.000  C
  C163     1.0000 0.41800  0.00700  0.06200  Biso   1.000  C
  C164     1.0000 0.58200  0.00700  0.43800  Biso   1.000  C
  C165     1.0000 0.08200  0.49300  0.93800  Biso   1.000  C
  C166     1.0000 0.91800  0.49300  0.56200  Biso   1.000  C
  C167     1.0000 0.58200  0.99300  0.93800  Biso   1.000  C
  C168     1.0000 0.41800  0.99300  0.56200  Biso   1.000  C
  H209     1.0000 0.95420  0.49510  0.04960  Biso   1.000  H
  H210     1.0000 0.04580  0.49510  0.45040  Biso   1.000  H
  H211     1.0000 0.45420  0.99510  0.04960  Biso   1.000  H
  H212     1.0000 0.54580  0.99510  0.45040  Biso   1.000  H
  H213     1.0000 0.04580  0.50490  0.95040  Biso   1.000  H
  H214     1.0000 0.95420  0.50490  0.54960  Biso   1.000  H
  H215     1.0000 0.54580  0.00490  0.95040  Biso   1.000  H
  H216     1.0000 0.45420  0.00490  0.54960  Biso   1.000  H
  H217     1.0000 0.90370  0.43930  0.07300  Biso   1.000  H
  H218     1.0000 0.09630  0.43930  0.42700  Biso   1.000  H
  H219     1.0000 0.40370  0.93930  0.07300  Biso   1.000  H
  H220     1.0000 0.59630  0.93930  0.42700  Biso   1.000  H
  H221     1.0000 0.09630  0.56070  0.92700  Biso   1.000  H
  H222     1.0000 0.90370  0.56070  0.57300  Biso   1.000  H
  H223     1.0000 0.59630  0.06070  0.92700  Biso   1.000  H
  H224     1.0000 0.40370  0.06070  0.57300  Biso   1.000  H
  C169     1.0000 0.85974  0.76320  0.06280  Biso   1.000  C
  C170     1.0000 0.14026  0.76320  0.43720  Biso   1.000  C
  C171     1.0000 0.35974  0.26320  0.06280  Biso   1.000  C
  C172     1.0000 0.64026  0.26320  0.43720  Biso   1.000  C
  C173     1.0000 0.14026  0.23680  0.93720  Biso   1.000  C
  C174     1.0000 0.85974  0.23680  0.56280  Biso   1.000  C
  C175     1.0000 0.64026  0.73680  0.93720  Biso   1.000  C
  C176     1.0000 0.35974  0.73680  0.56280  Biso   1.000  C
  H225     1.0000 0.82990  0.79900  0.01670  Biso   1.000  H
  H226     1.0000 0.17010  0.79900  0.48330  Biso   1.000  H
  H227     1.0000 0.32990  0.29900  0.01670  Biso   1.000  H
  H228     1.0000 0.67010  0.29900  0.48330  Biso   1.000  H
  H229     1.0000 0.17010  0.20100  0.98330  Biso   1.000  H
  H230     1.0000 0.82990  0.20100  0.51670  Biso   1.000  H
  H231     1.0000 0.67010  0.70100  0.98330  Biso   1.000  H
  H232     1.0000 0.32990  0.70100  0.51670  Biso   1.000  H
  H233     1.0000 0.87100  0.81020  0.10920  Biso   1.000  H
  H234     1.0000 0.12900  0.81020  0.39080  Biso   1.000  H
  H235     1.0000 0.37100  0.31020  0.10920  Biso   1.000  H
  H236     1.0000 0.62900  0.31020  0.39080  Biso   1.000  H
  H237     1.0000 0.12900  0.18980  0.89080  Biso   1.000  H
  H238     1.0000 0.87100  0.18980  0.60920  Biso   1.000  H
  H239     1.0000 0.62900  0.68980  0.89080  Biso   1.000  H
  H240     1.0000 0.37100  0.68980  0.60920  Biso   1.000  H
  C177     1.0000 0.00000  0.94140  0.75000  Biso   1.000  C
  C178     1.0000 0.50000  0.44140  0.75000  Biso   1.000  C
  C179     1.0000 0.00000  0.05860  0.25000  Biso   1.000  C
  C180     1.0000 0.50000  0.55860  0.25000  Biso   1.000  C
  H241     1.0000 0.03590  0.98630  0.76780  Biso   1.000  H
  H242     1.0000 0.96410  0.98630  0.73220  Biso   1.000  H
  H243     1.0000 0.53590  0.48630  0.76780  Biso   1.000  H
  H244     1.0000 0.46410  0.48630  0.73220  Biso   1.000  H
  H245     1.0000 0.96410  0.01370  0.23220  Biso   1.000  H
  H246     1.0000 0.03590  0.01370  0.26780  Biso   1.000  H
  H247     1.0000 0.46410  0.51370  0.23220  Biso   1.000  H
  H248     1.0000 0.53590  0.51370  0.26780  Biso   1.000  H
  C181     1.0000 0.05537  0.80570  0.84586  Biso   1.000  C
  C182     1.0000 0.94463  0.80570  0.65414  Biso   1.000  C
  C183     1.0000 0.55537  0.30570  0.84586  Biso   1.000  C
  C184     1.0000 0.44463  0.30570  0.65414  Biso   1.000  C
  C185     1.0000 0.94463  0.19430  0.15414  Biso   1.000  C
  C186     1.0000 0.05537  0.19430  0.34586  Biso   1.000  C
  C187     1.0000 0.44463  0.69430  0.15414  Biso   1.000  C
  C188     1.0000 0.55537  0.69430  0.34586  Biso   1.000  C
  H249     1.0000 0.05580  0.76190  0.89090  Biso   1.000  H
  H250     1.0000 0.94420  0.76190  0.60910  Biso   1.000  H
  H251     1.0000 0.55580  0.26190  0.89090  Biso   1.000  H
  H252     1.0000 0.44420  0.26190  0.60910  Biso   1.000  H
  H253     1.0000 0.94420  0.23810  0.10910  Biso   1.000  H
  H254     1.0000 0.05580  0.23810  0.39090  Biso   1.000  H
  H255     1.0000 0.44420  0.73810  0.10910  Biso   1.000  H
  H256     1.0000 0.55580  0.73810  0.39090  Biso   1.000  H
  H257     1.0000 0.09180  0.84910  0.86470  Biso   1.000  H
  H258     1.0000 0.90820  0.84910  0.63530  Biso   1.000  H
  H259     1.0000 0.59180  0.34910  0.86470  Biso   1.000  H
  H260     1.0000 0.40820  0.34910  0.63530  Biso   1.000  H
  H261     1.0000 0.90820  0.15090  0.13530  Biso   1.000  H
  H262     1.0000 0.09180  0.15090  0.36470  Biso   1.000  H
  H263     1.0000 0.40820  0.65090  0.13530  Biso   1.000  H
  H264     1.0000 0.59180  0.65090  0.36470  Biso   1.000  H
  C189     1.0000 0.94446  0.80600  0.78925  Biso   1.000  C
  C190     1.0000 0.05554  0.80600  0.71075  Biso   1.000  C
  C191     1.0000 0.44446  0.30600  0.78925  Biso   1.000  C
  C192     1.0000 0.55554  0.30600  0.71075  Biso   1.000  C
  C193     1.0000 0.05554  0.19400  0.21075  Biso   1.000  C
  C194     1.0000 0.94446  0.19400  0.28925  Biso   1.000  C
  C195     1.0000 0.55554  0.69400  0.21075  Biso   1.000  C
  C196     1.0000 0.44446  0.69400  0.28925  Biso   1.000  C
  H265     1.0000 0.90820  0.84980  0.77130  Biso   1.000  H
  H266     1.0000 0.09180  0.84980  0.72870  Biso   1.000  H
  H267     1.0000 0.40820  0.34980  0.77130  Biso   1.000  H
  H268     1.0000 0.59180  0.34980  0.72870  Biso   1.000  H
  H269     1.0000 0.09180  0.15020  0.22870  Biso   1.000  H
  H270     1.0000 0.90820  0.15020  0.27130  Biso   1.000  H
  H271     1.0000 0.59180  0.65020  0.22870  Biso   1.000  H
  H272     1.0000 0.40820  0.65020  0.27130  Biso   1.000  H
  H273     1.0000 0.94330  0.76210  0.83350  Biso   1.000  H
  H274     1.0000 0.05670  0.76210  0.66650  Biso   1.000  H
  H275     1.0000 0.44330  0.26210  0.83350  Biso   1.000  H
  H276     1.0000 0.55670  0.26210  0.66650  Biso   1.000  H
  H277     1.0000 0.05670  0.23790  0.16650  Biso   1.000  H
  H278     1.0000 0.94330  0.23790  0.33350  Biso   1.000  H
  H279     1.0000 0.55670  0.73790  0.16650  Biso   1.000  H
  H280     1.0000 0.44330  0.73790  0.33350  Biso   1.000  H
  C197     1.0000 0.00000  0.67440  0.75000  Biso   1.000  C
  C198     1.0000 0.50000  0.17440  0.75000  Biso   1.000  C
  C199     1.0000 0.00000  0.32560  0.25000  Biso   1.000  C
  C200     1.0000 0.50000  0.82560  0.25000  Biso   1.000  C
  H281     1.0000 0.00040  0.62940  0.70600  Biso   1.000  H
  H282     1.0000 0.99960  0.62940  0.79400  Biso   1.000  H
  H283     1.0000 0.50040  0.12940  0.70600  Biso   1.000  H
  H284     1.0000 0.49960  0.12940  0.79400  Biso   1.000  H
  H285     1.0000 0.99960  0.37060  0.29400  Biso   1.000  H
  H286     1.0000 0.00040  0.37060  0.20600  Biso   1.000  H
  H287     1.0000 0.49960  0.87060  0.29400  Biso   1.000  H
  H288     1.0000 0.50040  0.87060  0.20600  Biso   1.000  H
