data_image0
_cell_length_a       15.8746
_cell_length_b       15.8746
_cell_length_c       9.6164
_cell_angle_alpha    90
_cell_angle_beta     90
_cell_angle_gamma    90

_symmetry_space_group_name_H-M    "P 1"
_symmetry_int_tables_number       1

loop_
  _symmetry_equiv_pos_as_xyz
  'x, y, z'

loop_
  _atom_site_label
  _atom_site_occupancy
  _atom_site_fract_x
  _atom_site_fract_y
  _atom_site_fract_z
  _atom_site_thermal_displace_type
  _atom_site_B_iso_or_equiv
  _atom_site_type_symbol
  Cu1      1.0000 0.00000  0.00000  0.13614  Biso   1.000  Cu
  Cu2      1.0000 0.00000  0.00000  0.86386  Biso   1.000  Cu
  Cu3      1.0000 0.50000  0.50000  0.63614  Biso   1.000  Cu
  Cu4      1.0000 0.50000  0.50000  0.36386  Biso   1.000  Cu
  C1       1.0000 0.85150  0.94030  0.99460  Biso   1.000  C
  C2       1.0000 0.14850  0.05970  0.99460  Biso   1.000  C
  C3       1.0000 0.94030  0.14850  0.00540  Biso   1.000  C
  C4       1.0000 0.05970  0.85150  0.00540  Biso   1.000  C
  C5       1.0000 0.35150  0.44030  0.49460  Biso   1.000  C
  C6       1.0000 0.64850  0.55970  0.49460  Biso   1.000  C
  C7       1.0000 0.44030  0.64850  0.50540  Biso   1.000  C
  C8       1.0000 0.55970  0.35150  0.50540  Biso   1.000  C
  C9       1.0000 0.76220  0.90570  0.00480  Biso   1.000  C
  C10      1.0000 0.23780  0.09430  0.00480  Biso   1.000  C
  C11      1.0000 0.90570  0.23780  0.99520  Biso   1.000  C
  C12      1.0000 0.09430  0.76220  0.99520  Biso   1.000  C
  C13      1.0000 0.26220  0.40570  0.50480  Biso   1.000  C
  C14      1.0000 0.73780  0.59430  0.50480  Biso   1.000  C
  C15      1.0000 0.40570  0.73780  0.49520  Biso   1.000  C
  C16      1.0000 0.59430  0.26220  0.49520  Biso   1.000  C
  C17      1.0000 0.76200  0.82140  0.05120  Biso   1.000  C
  C18      1.0000 0.23800  0.17860  0.05120  Biso   1.000  C
  C19      1.0000 0.82140  0.23800  0.94880  Biso   1.000  C
  C20      1.0000 0.17860  0.76200  0.94880  Biso   1.000  C
  C21      1.0000 0.26200  0.32140  0.55120  Biso   1.000  C
  C22      1.0000 0.73800  0.67860  0.55120  Biso   1.000  C
  C23      1.0000 0.32140  0.73800  0.44880  Biso   1.000  C
  C24      1.0000 0.67860  0.26200  0.44880  Biso   1.000  C
  H1       1.0000 0.77950  0.82000  0.14770  Biso   1.000  H
  H2       1.0000 0.22050  0.18000  0.14770  Biso   1.000  H
  H3       1.0000 0.82000  0.22050  0.85230  Biso   1.000  H
  H4       1.0000 0.18000  0.77950  0.85230  Biso   1.000  H
  H5       1.0000 0.27950  0.32000  0.64770  Biso   1.000  H
  H6       1.0000 0.72050  0.68000  0.64770  Biso   1.000  H
  H7       1.0000 0.32000  0.72050  0.35230  Biso   1.000  H
  H8       1.0000 0.68000  0.27950  0.35230  Biso   1.000  H
  H9       1.0000 0.80280  0.78960  0.99760  Biso   1.000  H
  H10      1.0000 0.19720  0.21040  0.99760  Biso   1.000  H
  H11      1.0000 0.78960  0.19720  0.00240  Biso   1.000  H
  H12      1.0000 0.21040  0.80280  0.00240  Biso   1.000  H
  H13      1.0000 0.30280  0.28960  0.49760  Biso   1.000  H
  H14      1.0000 0.69720  0.71040  0.49760  Biso   1.000  H
  H15      1.0000 0.28960  0.69720  0.50240  Biso   1.000  H
  H16      1.0000 0.71040  0.30280  0.50240  Biso   1.000  H
  C25      1.0000 0.70680  0.95530  0.07290  Biso   1.000  C
  C26      1.0000 0.29320  0.04470  0.07290  Biso   1.000  C
  C27      1.0000 0.95530  0.29320  0.92710  Biso   1.000  C
  C28      1.0000 0.04470  0.70680  0.92710  Biso   1.000  C
  C29      1.0000 0.20680  0.45530  0.57290  Biso   1.000  C
  C30      1.0000 0.79320  0.54470  0.57290  Biso   1.000  C
  C31      1.0000 0.45530  0.79320  0.42710  Biso   1.000  C
  C32      1.0000 0.54470  0.20680  0.42710  Biso   1.000  C
  H17      1.0000 0.69900  0.00700  0.02070  Biso   1.000  H
  H18      1.0000 0.30100  0.99300  0.02070  Biso   1.000  H
  H19      1.0000 0.00700  0.30100  0.97930  Biso   1.000  H
  H20      1.0000 0.99300  0.69900  0.97930  Biso   1.000  H
  H21      1.0000 0.19900  0.50700  0.52070  Biso   1.000  H
  H22      1.0000 0.80100  0.49300  0.52070  Biso   1.000  H
  H23      1.0000 0.50700  0.80100  0.47930  Biso   1.000  H
  H24      1.0000 0.49300  0.19900  0.47930  Biso   1.000  H
  H25      1.0000 0.73020  0.97020  0.16290  Biso   1.000  H
  H26      1.0000 0.26980  0.02980  0.16290  Biso   1.000  H
  H27      1.0000 0.97020  0.26980  0.83710  Biso   1.000  H
  H28      1.0000 0.02980  0.73020  0.83710  Biso   1.000  H
  H29      1.0000 0.23020  0.47020  0.66290  Biso   1.000  H
  H30      1.0000 0.76980  0.52980  0.66290  Biso   1.000  H
  H31      1.0000 0.47020  0.76980  0.33710  Biso   1.000  H
  H32      1.0000 0.52980  0.23020  0.33710  Biso   1.000  H
  C33      1.0000 0.72670  0.90250  0.84090  Biso   1.000  C
  C34      1.0000 0.27330  0.09750  0.84090  Biso   1.000  C
  C35      1.0000 0.90250  0.27330  0.15910  Biso   1.000  C
  C36      1.0000 0.09750  0.72670  0.15910  Biso   1.000  C
  C37      1.0000 0.22670  0.40250  0.34090  Biso   1.000  C
  C38      1.0000 0.77330  0.59750  0.34090  Biso   1.000  C
  C39      1.0000 0.40250  0.77330  0.65910  Biso   1.000  C
  C40      1.0000 0.59750  0.22670  0.65910  Biso   1.000  C
  H33      1.0000 0.72780  0.95850  0.80060  Biso   1.000  H
  H34      1.0000 0.27220  0.04150  0.80060  Biso   1.000  H
  H35      1.0000 0.95850  0.27220  0.19940  Biso   1.000  H
  H36      1.0000 0.04150  0.72780  0.19940  Biso   1.000  H
  H37      1.0000 0.22780  0.45850  0.30060  Biso   1.000  H
  H38      1.0000 0.77220  0.54150  0.30060  Biso   1.000  H
  H39      1.0000 0.45850  0.77220  0.69940  Biso   1.000  H
  H40      1.0000 0.54150  0.22780  0.69940  Biso   1.000  H
  H41      1.0000 0.76220  0.86610  0.78510  Biso   1.000  H
  H42      1.0000 0.23780  0.13390  0.78510  Biso   1.000  H
  H43      1.0000 0.86610  0.23780  0.21490  Biso   1.000  H
  H44      1.0000 0.13390  0.76220  0.21490  Biso   1.000  H
  H45      1.0000 0.26220  0.36610  0.28510  Biso   1.000  H
  H46      1.0000 0.73780  0.63390  0.28510  Biso   1.000  H
  H47      1.0000 0.36610  0.73780  0.71490  Biso   1.000  H
  H48      1.0000 0.63390  0.26220  0.71490  Biso   1.000  H
  C41      1.0000 0.66560  0.77350  0.03690  Biso   1.000  C
  C42      1.0000 0.33440  0.22650  0.03690  Biso   1.000  C
  C43      1.0000 0.77350  0.33440  0.96310  Biso   1.000  C
  C44      1.0000 0.22650  0.66560  0.96310  Biso   1.000  C
  C45      1.0000 0.16560  0.27350  0.53690  Biso   1.000  C
  C46      1.0000 0.83440  0.72650  0.53690  Biso   1.000  C
  C47      1.0000 0.27350  0.83440  0.46310  Biso   1.000  C
  C48      1.0000 0.72650  0.16560  0.46310  Biso   1.000  C
  H49      1.0000 0.66440  0.71420  0.06510  Biso   1.000  H
  H50      1.0000 0.33560  0.28580  0.06510  Biso   1.000  H
  H51      1.0000 0.71420  0.33560  0.93490  Biso   1.000  H
  H52      1.0000 0.28580  0.66440  0.93490  Biso   1.000  H
  H53      1.0000 0.16440  0.21420  0.56510  Biso   1.000  H
  H54      1.0000 0.83560  0.78580  0.56510  Biso   1.000  H
  H55      1.0000 0.21420  0.83560  0.43490  Biso   1.000  H
  H56      1.0000 0.78580  0.16440  0.43490  Biso   1.000  H
  C49      1.0000 0.64590  0.78830  0.89460  Biso   1.000  C
  C50      1.0000 0.35410  0.21170  0.89460  Biso   1.000  C
  C51      1.0000 0.78830  0.35410  0.10540  Biso   1.000  C
  C52      1.0000 0.21170  0.64590  0.10540  Biso   1.000  C
  C53      1.0000 0.14590  0.28830  0.39460  Biso   1.000  C
  C54      1.0000 0.85410  0.71170  0.39460  Biso   1.000  C
  C55      1.0000 0.28830  0.85410  0.60540  Biso   1.000  C
  C56      1.0000 0.71170  0.14590  0.60540  Biso   1.000  C
  H57      1.0000 0.69210  0.76520  0.84080  Biso   1.000  H
  H58      1.0000 0.30790  0.23480  0.84080  Biso   1.000  H
  H59      1.0000 0.76520  0.30790  0.15920  Biso   1.000  H
  H60      1.0000 0.23480  0.69210  0.15920  Biso   1.000  H
  H61      1.0000 0.19210  0.26520  0.34080  Biso   1.000  H
  H62      1.0000 0.80790  0.73480  0.34080  Biso   1.000  H
  H63      1.0000 0.26520  0.80790  0.65920  Biso   1.000  H
  H64      1.0000 0.73480  0.19210  0.65920  Biso   1.000  H
  H65      1.0000 0.59680  0.75430  0.87350  Biso   1.000  H
  H66      1.0000 0.40320  0.24570  0.87350  Biso   1.000  H
  H67      1.0000 0.75430  0.40320  0.12650  Biso   1.000  H
  H68      1.0000 0.24570  0.59680  0.12650  Biso   1.000  H
  H69      1.0000 0.09680  0.25430  0.37350  Biso   1.000  H
  H70      1.0000 0.90320  0.74570  0.37350  Biso   1.000  H
  H71      1.0000 0.25430  0.90320  0.62650  Biso   1.000  H
  H72      1.0000 0.74570  0.09680  0.62650  Biso   1.000  H
  C57      1.0000 0.62850  0.83100  0.13500  Biso   1.000  C
  C58      1.0000 0.37150  0.16900  0.13500  Biso   1.000  C
  C59      1.0000 0.83100  0.37150  0.86500  Biso   1.000  C
  C60      1.0000 0.16900  0.62850  0.86500  Biso   1.000  C
  C61      1.0000 0.12850  0.33100  0.63500  Biso   1.000  C
  C62      1.0000 0.87150  0.66900  0.63500  Biso   1.000  C
  C63      1.0000 0.33100  0.87150  0.36500  Biso   1.000  C
  C64      1.0000 0.66900  0.12850  0.36500  Biso   1.000  C
  H73      1.0000 0.57780  0.80450  0.17040  Biso   1.000  H
  H74      1.0000 0.42220  0.19550  0.17040  Biso   1.000  H
  H75      1.0000 0.80450  0.42220  0.82960  Biso   1.000  H
  H76      1.0000 0.19550  0.57780  0.82960  Biso   1.000  H
  H77      1.0000 0.07780  0.30450  0.67040  Biso   1.000  H
  H78      1.0000 0.92220  0.69550  0.67040  Biso   1.000  H
  H79      1.0000 0.30450  0.92220  0.32960  Biso   1.000  H
  H80      1.0000 0.69550  0.07780  0.32960  Biso   1.000  H
  H81      1.0000 0.66730  0.83590  0.21240  Biso   1.000  H
  H82      1.0000 0.33270  0.16410  0.21240  Biso   1.000  H
  H83      1.0000 0.83590  0.33270  0.78760  Biso   1.000  H
  H84      1.0000 0.16410  0.66730  0.78760  Biso   1.000  H
  H85      1.0000 0.16730  0.33590  0.71240  Biso   1.000  H
  H86      1.0000 0.83270  0.66410  0.71240  Biso   1.000  H
  H87      1.0000 0.33590  0.83270  0.28760  Biso   1.000  H
  H88      1.0000 0.66410  0.16730  0.28760  Biso   1.000  H
  C65      1.0000 0.60830  0.90690  0.09800  Biso   1.000  C
  C66      1.0000 0.39170  0.09310  0.09800  Biso   1.000  C
  C67      1.0000 0.90690  0.39170  0.90200  Biso   1.000  C
  C68      1.0000 0.09310  0.60830  0.90200  Biso   1.000  C
  C69      1.0000 0.10830  0.40690  0.59800  Biso   1.000  C
  C70      1.0000 0.89170  0.59310  0.59800  Biso   1.000  C
  C71      1.0000 0.40690  0.89170  0.40200  Biso   1.000  C
  C72      1.0000 0.59310  0.10830  0.40200  Biso   1.000  C
  H89      1.0000 0.57100  0.93630  0.16270  Biso   1.000  H
  H90      1.0000 0.42900  0.06370  0.16270  Biso   1.000  H
  H91      1.0000 0.93630  0.42900  0.83730  Biso   1.000  H
  H92      1.0000 0.06370  0.57100  0.83730  Biso   1.000  H
  H93      1.0000 0.07100  0.43630  0.66270  Biso   1.000  H
  H94      1.0000 0.92900  0.56370  0.66270  Biso   1.000  H
  H95      1.0000 0.43630  0.92900  0.33730  Biso   1.000  H
  H96      1.0000 0.56370  0.07100  0.33730  Biso   1.000  H
  C73      1.0000 0.63050  0.86660  0.84270  Biso   1.000  C
  C74      1.0000 0.36950  0.13340  0.84270  Biso   1.000  C
  C75      1.0000 0.86660  0.36950  0.15730  Biso   1.000  C
  C76      1.0000 0.13340  0.63050  0.15730  Biso   1.000  C
  C77      1.0000 0.13050  0.36660  0.34270  Biso   1.000  C
  C78      1.0000 0.86950  0.63340  0.34270  Biso   1.000  C
  C79      1.0000 0.36660  0.86950  0.65730  Biso   1.000  C
  C80      1.0000 0.63340  0.13050  0.65730  Biso   1.000  C
  H97      1.0000 0.60330  0.86630  0.75120  Biso   1.000  H
  H98      1.0000 0.39670  0.13370  0.75120  Biso   1.000  H
  H99      1.0000 0.86630  0.39670  0.24880  Biso   1.000  H
  H100     1.0000 0.13370  0.60330  0.24880  Biso   1.000  H
  H101     1.0000 0.10330  0.36630  0.25120  Biso   1.000  H
  H102     1.0000 0.89670  0.63370  0.25120  Biso   1.000  H
  H103     1.0000 0.36630  0.89670  0.74880  Biso   1.000  H
  H104     1.0000 0.63370  0.10330  0.74880  Biso   1.000  H
  C81      1.0000 0.59490  0.93070  0.94110  Biso   1.000  C
  C82      1.0000 0.40510  0.06930  0.94110  Biso   1.000  C
  C83      1.0000 0.93070  0.40510  0.05890  Biso   1.000  C
  C84      1.0000 0.06930  0.59490  0.05890  Biso   1.000  C
  C85      1.0000 0.09490  0.43070  0.44110  Biso   1.000  C
  C86      1.0000 0.90510  0.56930  0.44110  Biso   1.000  C
  C87      1.0000 0.43070  0.90510  0.55890  Biso   1.000  C
  C88      1.0000 0.56930  0.09490  0.55890  Biso   1.000  C
  H105     1.0000 0.53510  0.93670  0.92350  Biso   1.000  H
  H106     1.0000 0.46490  0.06330  0.92350  Biso   1.000  H
  H107     1.0000 0.93670  0.46490  0.07650  Biso   1.000  H
  H108     1.0000 0.06330  0.53510  0.07650  Biso   1.000  H
  H109     1.0000 0.03510  0.43670  0.42350  Biso   1.000  H
  H110     1.0000 0.96490  0.56330  0.42350  Biso   1.000  H
  H111     1.0000 0.43670  0.96490  0.57650  Biso   1.000  H
  H112     1.0000 0.56330  0.03510  0.57650  Biso   1.000  H
  H113     1.0000 0.62140  0.98470  0.92320  Biso   1.000  H
  H114     1.0000 0.37860  0.01530  0.92320  Biso   1.000  H
  H115     1.0000 0.98470  0.37860  0.07680  Biso   1.000  H
  H116     1.0000 0.01530  0.62140  0.07680  Biso   1.000  H
  H117     1.0000 0.12140  0.48470  0.42320  Biso   1.000  H
  H118     1.0000 0.87860  0.51530  0.42320  Biso   1.000  H
  H119     1.0000 0.48470  0.87860  0.57680  Biso   1.000  H
  H120     1.0000 0.51530  0.12140  0.57680  Biso   1.000  H
  N1       1.0000 0.00000  0.00000  0.36690  Biso   1.000  N
  N2       1.0000 0.00000  0.00000  0.63310  Biso   1.000  N
  N3       1.0000 0.50000  0.50000  0.86690  Biso   1.000  N
  N4       1.0000 0.50000  0.50000  0.13310  Biso   1.000  N
  O1       1.0000 0.88650  0.95500  0.11280  Biso   1.000  O
  O2       1.0000 0.11350  0.04500  0.11280  Biso   1.000  O
  O3       1.0000 0.95500  0.11350  0.88720  Biso   1.000  O
  O4       1.0000 0.04500  0.88650  0.88720  Biso   1.000  O
  O5       1.0000 0.38650  0.45500  0.61280  Biso   1.000  O
  O6       1.0000 0.61350  0.54500  0.61280  Biso   1.000  O
  O7       1.0000 0.45500  0.61350  0.38720  Biso   1.000  O
  O8       1.0000 0.54500  0.38650  0.38720  Biso   1.000  O
  O9       1.0000 0.88490  0.95280  0.88080  Biso   1.000  O
  O10      1.0000 0.11510  0.04720  0.88080  Biso   1.000  O
  O11      1.0000 0.95280  0.11510  0.11920  Biso   1.000  O
  O12      1.0000 0.04720  0.88490  0.11920  Biso   1.000  O
  O13      1.0000 0.38490  0.45280  0.38080  Biso   1.000  O
  O14      1.0000 0.61510  0.54720  0.38080  Biso   1.000  O
  O15      1.0000 0.45280  0.61510  0.61920  Biso   1.000  O
  O16      1.0000 0.54720  0.38490  0.61920  Biso   1.000  O
  C89      1.0000 0.91310  0.97910  0.41860  Biso   1.000  C
  C90      1.0000 0.08690  0.02090  0.41860  Biso   1.000  C
  C91      1.0000 0.97910  0.08690  0.58140  Biso   1.000  C
  C92      1.0000 0.02090  0.91310  0.58140  Biso   1.000  C
  C93      1.0000 0.41310  0.47910  0.91860  Biso   1.000  C
  C94      1.0000 0.58690  0.52090  0.91860  Biso   1.000  C
  C95      1.0000 0.47910  0.58690  0.08140  Biso   1.000  C
  C96      1.0000 0.52090  0.41310  0.08140  Biso   1.000  C
  H121     1.0000 0.91350  0.97930  0.51840  Biso   1.000  H
  H122     1.0000 0.08650  0.02070  0.51840  Biso   1.000  H
  H123     1.0000 0.97930  0.08650  0.48160  Biso   1.000  H
  H124     1.0000 0.02070  0.91350  0.48160  Biso   1.000  H
  H125     1.0000 0.41350  0.47930  0.01840  Biso   1.000  H
  H126     1.0000 0.58650  0.52070  0.01840  Biso   1.000  H
  H127     1.0000 0.47930  0.58650  0.98160  Biso   1.000  H
  H128     1.0000 0.52070  0.41350  0.98160  Biso   1.000  H
  H129     1.0000 0.87240  0.01920  0.38570  Biso   1.000  H
  H130     1.0000 0.12760  0.98080  0.38570  Biso   1.000  H
  H131     1.0000 0.01920  0.12760  0.61430  Biso   1.000  H
  H132     1.0000 0.98080  0.87240  0.61430  Biso   1.000  H
  H133     1.0000 0.37240  0.51920  0.88570  Biso   1.000  H
  H134     1.0000 0.62760  0.48080  0.88570  Biso   1.000  H
  H135     1.0000 0.51920  0.62760  0.11430  Biso   1.000  H
  H136     1.0000 0.48080  0.37240  0.11430  Biso   1.000  H
  C97      1.0000 0.02480  0.08720  0.41080  Biso   1.000  C
  C98      1.0000 0.97520  0.91280  0.41080  Biso   1.000  C
  C99      1.0000 0.08720  0.97520  0.58920  Biso   1.000  C
  C100     1.0000 0.91280  0.02480  0.58920  Biso   1.000  C
  C101     1.0000 0.52480  0.58720  0.91080  Biso   1.000  C
  C102     1.0000 0.47520  0.41280  0.91080  Biso   1.000  C
  C103     1.0000 0.58720  0.47520  0.08920  Biso   1.000  C
  C104     1.0000 0.41280  0.52480  0.08920  Biso   1.000  C
  H137     1.0000 0.90870  0.02610  0.48960  Biso   1.000  H
  H138     1.0000 0.09130  0.97390  0.48960  Biso   1.000  H
  H139     1.0000 0.02610  0.09130  0.51040  Biso   1.000  H
  H140     1.0000 0.97390  0.90870  0.51040  Biso   1.000  H
  H141     1.0000 0.40870  0.52610  0.98960  Biso   1.000  H
  H142     1.0000 0.59130  0.47390  0.98960  Biso   1.000  H
  H143     1.0000 0.52610  0.59130  0.01040  Biso   1.000  H
  H144     1.0000 0.47390  0.40870  0.01040  Biso   1.000  H
  H145     1.0000 0.91990  0.90290  0.37430  Biso   1.000  H
  H146     1.0000 0.08010  0.09710  0.37430  Biso   1.000  H
  H147     1.0000 0.90290  0.08010  0.62570  Biso   1.000  H
  H148     1.0000 0.09710  0.91990  0.62570  Biso   1.000  H
  H149     1.0000 0.41990  0.40290  0.87430  Biso   1.000  H
  H150     1.0000 0.58010  0.59710  0.87430  Biso   1.000  H
  H151     1.0000 0.40290  0.58010  0.12570  Biso   1.000  H
  H152     1.0000 0.59710  0.41990  0.12570  Biso   1.000  H
  C105     1.0000 0.06180  0.93690  0.41950  Biso   1.000  C
  C106     1.0000 0.93820  0.06310  0.41950  Biso   1.000  C
  C107     1.0000 0.93690  0.93820  0.58050  Biso   1.000  C
  C108     1.0000 0.06310  0.06180  0.58050  Biso   1.000  C
  C109     1.0000 0.56180  0.43690  0.91950  Biso   1.000  C
  C110     1.0000 0.43820  0.56310  0.91950  Biso   1.000  C
  C111     1.0000 0.43690  0.43820  0.08050  Biso   1.000  C
  C112     1.0000 0.56310  0.56180  0.08050  Biso   1.000  C
  H153     1.0000 0.93050  0.93190  0.48170  Biso   1.000  H
  H154     1.0000 0.06950  0.06810  0.48170  Biso   1.000  H
  H155     1.0000 0.93190  0.06950  0.51830  Biso   1.000  H
  H156     1.0000 0.06810  0.93050  0.51830  Biso   1.000  H
  H157     1.0000 0.43050  0.43190  0.98170  Biso   1.000  H
  H158     1.0000 0.56950  0.56810  0.98170  Biso   1.000  H
  H159     1.0000 0.43190  0.56950  0.01830  Biso   1.000  H
  H160     1.0000 0.56810  0.43050  0.01830  Biso   1.000  H
  H161     1.0000 0.95570  0.11580  0.37960  Biso   1.000  H
  H162     1.0000 0.04430  0.88420  0.37960  Biso   1.000  H
  H163     1.0000 0.11580  0.04430  0.62040  Biso   1.000  H
  H164     1.0000 0.88420  0.95570  0.62040  Biso   1.000  H
  H165     1.0000 0.45570  0.61580  0.87960  Biso   1.000  H
  H166     1.0000 0.54430  0.38420  0.87960  Biso   1.000  H
  H167     1.0000 0.61580  0.54430  0.12040  Biso   1.000  H
  H168     1.0000 0.38420  0.45570  0.12040  Biso   1.000  H
