data_image0
_cell_length_a       9.5611
_cell_length_b       12.696
_cell_length_c       14.421
_cell_angle_alpha    70.1
_cell_angle_beta     87.62
_cell_angle_gamma    87.07

_symmetry_space_group_name_H-M    "P 1"
_symmetry_int_tables_number       1

loop_
  _symmetry_equiv_pos_as_xyz
  'x, y, z'

loop_
  _atom_site_label
  _atom_site_occupancy
  _atom_site_fract_x
  _atom_site_fract_y
  _atom_site_fract_z
  _atom_site_thermal_displace_type
  _atom_site_B_iso_or_equiv
  _atom_site_type_symbol
  Cu1      1.0000 0.16024  0.48673  0.44067  Biso   1.000  Cu
  Cu2      1.0000 0.83976  0.51327  0.55933  Biso   1.000  Cu
  O1       1.0000 0.05611  0.50377  0.32342  Biso   1.000  O
  O2       1.0000 0.94389  0.49623  0.67658  Biso   1.000  O
  N1       1.0000 0.30140  0.37921  0.40888  Biso   1.000  N
  N2       1.0000 0.69860  0.62079  0.59112  Biso   1.000  N
  N3       1.0000 0.28650  0.45527  0.55602  Biso   1.000  N
  N4       1.0000 0.71350  0.54473  0.44398  Biso   1.000  N
  O3       1.0000 0.03968  0.60615  0.46513  Biso   1.000  O
  O4       1.0000 0.96032  0.39385  0.53487  Biso   1.000  O
  N5       1.0000 0.70740  0.93595  0.39640  Biso   1.000  N
  N6       1.0000 0.29260  0.06405  0.60360  Biso   1.000  N
  C1       1.0000 0.86310  0.80620  0.34990  Biso   1.000  C
  C2       1.0000 0.13690  0.19380  0.65010  Biso   1.000  C
  H1       1.0000 0.88460  0.76850  0.30570  Biso   1.000  H
  H2       1.0000 0.11540  0.23150  0.69430  Biso   1.000  H
  C3       1.0000 0.40050  0.38730  0.55578  Biso   1.000  C
  C4       1.0000 0.59950  0.61270  0.44422  Biso   1.000  C
  C5       1.0000 0.94690  0.78990  0.42877  Biso   1.000  C
  C6       1.0000 0.05310  0.21010  0.57123  Biso   1.000  C
  C7       1.0000 0.40760  0.34320  0.47299  Biso   1.000  C
  C8       1.0000 0.59240  0.65680  0.52701  Biso   1.000  C
  C9       1.0000 0.78890  0.91910  0.47670  Biso   1.000  C
  C10      1.0000 0.21110  0.08090  0.52330  Biso   1.000  C
  C11      1.0000 0.91180  0.84750  0.49607  Biso   1.000  C
  C12      1.0000 0.08820  0.15250  0.50393  Biso   1.000  C
  C13      1.0000 0.50000  0.36260  0.62830  Biso   1.000  C
  C14      1.0000 0.50000  0.63740  0.37170  Biso   1.000  C
  H3       1.0000 0.57860  0.31720  0.62610  Biso   1.000  H
  H4       1.0000 0.42140  0.68280  0.37390  Biso   1.000  H
  C15      1.0000 0.51440  0.27010  0.45910  Biso   1.000  C
  C16      1.0000 0.48560  0.72990  0.54090  Biso   1.000  C
  H5       1.0000 0.58610  0.24460  0.50400  Biso   1.000  H
  H6       1.0000 0.41390  0.75540  0.49600  Biso   1.000  H
  O5       1.0000 0.19140  0.74292  0.43308  Biso   1.000  O
  O6       1.0000 0.80860  0.25708  0.56692  Biso   1.000  O
  C17      1.0000 0.74310  0.88050  0.33550  Biso   1.000  C
  C18      1.0000 0.25690  0.11950  0.66450  Biso   1.000  C
  C19      1.0000 0.36360  0.47350  0.70490  Biso   1.000  C
  C20      1.0000 0.63640  0.52650  0.29510  Biso   1.000  C
  H7       1.0000 0.34800  0.50280  0.75560  Biso   1.000  H
  H8       1.0000 0.65200  0.49720  0.24440  Biso   1.000  H
  C21      1.0000 0.64710  0.89180  0.25290  Biso   1.000  C
  C22      1.0000 0.35290  0.10820  0.74710  Biso   1.000  C
  C23      1.0000 0.26890  0.49710  0.62957  Biso   1.000  C
  C24      1.0000 0.73110  0.50290  0.37043  Biso   1.000  C
  H9       1.0000 0.19070  0.54350  0.63010  Biso   1.000  H
  H10      1.0000 0.80930  0.45650  0.36990  Biso   1.000  H
  C25      1.0000 0.69030  0.86350  0.17080  Biso   1.000  C
  C26      1.0000 0.30970  0.13650  0.82920  Biso   1.000  C
  H11      1.0000 0.78400  0.84390  0.16310  Biso   1.000  H
  H12      1.0000 0.21600  0.15610  0.83690  Biso   1.000  H
  C27      1.0000 0.51180  0.23660  0.37830  Biso   1.000  C
  C28      1.0000 0.48820  0.76340  0.62170  Biso   1.000  C
  H13      1.0000 0.58220  0.18820  0.36790  Biso   1.000  H
  H14      1.0000 0.41780  0.81180  0.63210  Biso   1.000  H
  C29      1.0000 0.74950  0.97710  0.54300  Biso   1.000  C
  C30      1.0000 0.25050  0.02290  0.45700  Biso   1.000  C
  H15      1.0000 0.66940  0.02400  0.53160  Biso   1.000  H
  H16      1.0000 0.33060  0.97600  0.46840  Biso   1.000  H
  C31      1.0000 0.93440  0.50160  0.15510  Biso   1.000  C
  C32      1.0000 0.06560  0.49840  0.84490  Biso   1.000  C
  H17      1.0000 0.94360  0.43470  0.20780  Biso   1.000  H
  H18      1.0000 0.05640  0.56530  0.79220  Biso   1.000  H
  C33      1.0000 0.00820  0.59150  0.15460  Biso   1.000  C
  C34      1.0000 0.99180  0.40850  0.84540  Biso   1.000  C
  C35      1.0000 0.07290  0.70860  0.44311  Biso   1.000  C
  C36      1.0000 0.92710  0.29140  0.55689  Biso   1.000  C
  C37      1.0000 0.82770  0.96480  0.62300  Biso   1.000  C
  C38      1.0000 0.17230  0.03520  0.37700  Biso   1.000  C
  H19      1.0000 0.80090  0.00380  0.66530  Biso   1.000  H
  H20      1.0000 0.19910  0.99620  0.33470  Biso   1.000  H
  C39      1.0000 0.84400  0.50740  0.07740  Biso   1.000  C
  C40      1.0000 0.15600  0.49260  0.92260  Biso   1.000  C
  C41      1.0000 0.98950  0.83630  0.58090  Biso   1.000  C
  C42      1.0000 0.01050  0.16370  0.41910  Biso   1.000  C
  H21      1.0000 0.06930  0.78920  0.59470  Biso   1.000  H
  H22      1.0000 0.93070  0.21080  0.40530  Biso   1.000  H
  C43      1.0000 0.94850  0.89380  0.64240  Biso   1.000  C
  C44      1.0000 0.05150  0.10620  0.35760  Biso   1.000  C
  H23      1.0000 0.00070  0.88600  0.69750  Biso   1.000  H
  H24      1.0000 0.99930  0.11400  0.30250  Biso   1.000  H
  C45      1.0000 0.40470  0.27460  0.31240  Biso   1.000  C
  C46      1.0000 0.59530  0.72540  0.68760  Biso   1.000  C
  H25      1.0000 0.40250  0.25310  0.25690  Biso   1.000  H
  H26      1.0000 0.59750  0.74690  0.74310  Biso   1.000  H
  C47      1.0000 0.99570  0.69250  0.07160  Biso   1.000  C
  C48      1.0000 0.00430  0.30750  0.92840  Biso   1.000  C
  C49      1.0000 0.76130  0.40920  0.08130  Biso   1.000  C
  C50      1.0000 0.23870  0.59080  0.91870  Biso   1.000  C
  O7       1.0000 0.19770  0.63710  0.23745  Biso   1.000  O
  O8       1.0000 0.80230  0.36290  0.76255  Biso   1.000  O
  N7       1.0000 0.82690  0.60140  0.00128  Biso   1.000  N
  N8       1.0000 0.17310  0.39860  0.99872  Biso   1.000  N
  C51      1.0000 0.90010  0.69260  0.99750  Biso   1.000  C
  C52      1.0000 0.09990  0.30740  0.00250  Biso   1.000  C
  C53      1.0000 0.48080  0.40630  0.70380  Biso   1.000  C
  C54      1.0000 0.51920  0.59370  0.29620  Biso   1.000  C
  H27      1.0000 0.54620  0.39050  0.75320  Biso   1.000  H
  H28      1.0000 0.45380  0.60950  0.24680  Biso   1.000  H
  C55      1.0000 0.09660  0.57990  0.24370  Biso   1.000  C
  C56      1.0000 0.90340  0.42010  0.75630  Biso   1.000  C
  C57      1.0000 0.30120  0.34500  0.33060  Biso   1.000  C
  C58      1.0000 0.69880  0.65500  0.66940  Biso   1.000  C
  H29      1.0000 0.22820  0.36990  0.28680  Biso   1.000  H
  H30      1.0000 0.77180  0.63010  0.71320  Biso   1.000  H
  C59      1.0000 0.06990  0.79090  0.05760  Biso   1.000  C
  C60      1.0000 0.93010  0.20910  0.94240  Biso   1.000  C
  H31      1.0000 0.13250  0.79230  0.10480  Biso   1.000  H
  H32      1.0000 0.86750  0.20770  0.89520  Biso   1.000  H
  C61      1.0000 0.50650  0.92300  0.26050  Biso   1.000  C
  C62      1.0000 0.49350  0.07700  0.73950  Biso   1.000  C
  H33      1.0000 0.47520  0.94490  0.31340  Biso   1.000  H
  H34      1.0000 0.52480  0.05510  0.68660  Biso   1.000  H
  C63      1.0000 0.77630  0.30520  0.15430  Biso   1.000  C
  C64      1.0000 0.22370  0.69480  0.84570  Biso   1.000  C
  H35      1.0000 0.84340  0.29470  0.20190  Biso   1.000  H
  H36      1.0000 0.15660  0.70530  0.79810  Biso   1.000  H
  C65      1.0000 0.59590  0.86410  0.10020  Biso   1.000  C
  C66      1.0000 0.40410  0.13590  0.89980  Biso   1.000  C
  H37      1.0000 0.62710  0.84540  0.04570  Biso   1.000  H
  H38      1.0000 0.37290  0.15460  0.95430  Biso   1.000  H
  C67      1.0000 0.88020  0.79210  0.91530  Biso   1.000  C
  C68      1.0000 0.11980  0.20790  0.08470  Biso   1.000  C
  H39      1.0000 0.81630  0.79390  0.86790  Biso   1.000  H
  H40      1.0000 0.18370  0.20610  0.13210  Biso   1.000  H
  C69      1.0000 0.41270  0.92190  0.19050  Biso   1.000  C
  C70      1.0000 0.58730  0.07810  0.80950  Biso   1.000  C
  H41      1.0000 0.31890  0.94150  0.19760  Biso   1.000  H
  H42      1.0000 0.68110  0.05850  0.80240  Biso   1.000  H
  C71      1.0000 0.69480  0.21650  0.15880  Biso   1.000  C
  C72      1.0000 0.30520  0.78350  0.84120  Biso   1.000  C
  H43      1.0000 0.70700  0.14780  0.20900  Biso   1.000  H
  H44      1.0000 0.29300  0.85220  0.79100  Biso   1.000  H
  C73      1.0000 0.59580  0.23010  0.08890  Biso   1.000  C
  C74      1.0000 0.40420  0.76990  0.91110  Biso   1.000  C
  H45      1.0000 0.54020  0.17100  0.09160  Biso   1.000  H
  H46      1.0000 0.45980  0.82900  0.90840  Biso   1.000  H
  C75      1.0000 0.05040  0.88430  0.97530  Biso   1.000  C
  C76      1.0000 0.94960  0.11570  0.02470  Biso   1.000  C
  H47      1.0000 0.10200  0.94740  0.96620  Biso   1.000  H
  H48      1.0000 0.89800  0.05260  0.03380  Biso   1.000  H
  C77      1.0000 0.45650  0.89200  0.11010  Biso   1.000  C
  C78      1.0000 0.54350  0.10800  0.88990  Biso   1.000  C
  H49      1.0000 0.39290  0.89080  0.06350  Biso   1.000  H
  H50      1.0000 0.60710  0.10920  0.93650  Biso   1.000  H
  C79      1.0000 0.95290  0.88490  0.90480  Biso   1.000  C
  C80      1.0000 0.04710  0.11510  0.09520  Biso   1.000  C
  H51      1.0000 0.93800  0.94940  0.85040  Biso   1.000  H
  H52      1.0000 0.06200  0.05060  0.14960  Biso   1.000  H
  C81      1.0000 0.66140  0.42120  0.01000  Biso   1.000  C
  C82      1.0000 0.33860  0.57880  0.99000  Biso   1.000  C
  H53      1.0000 0.64960  0.48930  0.95900  Biso   1.000  H
  H54      1.0000 0.35040  0.51070  0.04100  Biso   1.000  H
  C83      1.0000 0.57960  0.33200  0.01480  Biso   1.000  C
  C84      1.0000 0.42040  0.66800  0.98520  Biso   1.000  C
  H55      1.0000 0.51290  0.34140  0.96720  Biso   1.000  H
  H56      1.0000 0.48710  0.65860  0.03280  Biso   1.000  H
