data_image0
_cell_length_a       13.712
_cell_length_b       5.589
_cell_length_c       17.517
_cell_angle_alpha    90
_cell_angle_beta     105.76
_cell_angle_gamma    90

_symmetry_space_group_name_H-M    "P 1"
_symmetry_int_tables_number       1

loop_
  _symmetry_equiv_pos_as_xyz
  'x, y, z'

loop_
  _atom_site_label
  _atom_site_occupancy
  _atom_site_fract_x
  _atom_site_fract_y
  _atom_site_fract_z
  _atom_site_thermal_displace_type
  _atom_site_B_iso_or_equiv
  _atom_site_type_symbol
  Cu1      1.0000 0.50000  0.00862  0.25000  Biso   1.000  Cu
  Cu2      1.0000 0.00000  0.50862  0.25000  Biso   1.000  Cu
  Cu3      1.0000 0.50000  0.99138  0.75000  Biso   1.000  Cu
  Cu4      1.0000 0.00000  0.49138  0.75000  Biso   1.000  Cu
  N1       1.0000 0.64486  0.04940  0.30827  Biso   1.000  N
  N2       1.0000 0.14486  0.54940  0.30827  Biso   1.000  N
  N3       1.0000 0.64486  0.95060  0.80827  Biso   1.000  N
  N4       1.0000 0.14486  0.45060  0.80827  Biso   1.000  N
  N5       1.0000 0.35514  0.95060  0.69173  Biso   1.000  N
  N6       1.0000 0.85514  0.45060  0.69173  Biso   1.000  N
  N7       1.0000 0.35514  0.04940  0.19173  Biso   1.000  N
  N8       1.0000 0.85514  0.54940  0.19173  Biso   1.000  N
  C1       1.0000 0.69520  0.94930  0.38000  Biso   1.000  C
  C2       1.0000 0.19520  0.44930  0.38000  Biso   1.000  C
  C3       1.0000 0.69520  0.05070  0.88000  Biso   1.000  C
  C4       1.0000 0.19520  0.55070  0.88000  Biso   1.000  C
  C5       1.0000 0.30480  0.05070  0.62000  Biso   1.000  C
  C6       1.0000 0.80480  0.55070  0.62000  Biso   1.000  C
  C7       1.0000 0.30480  0.94930  0.12000  Biso   1.000  C
  C8       1.0000 0.80480  0.44930  0.12000  Biso   1.000  C
  C9       1.0000 0.78830  0.04860  0.40570  Biso   1.000  C
  C10      1.0000 0.28830  0.54860  0.40570  Biso   1.000  C
  C11      1.0000 0.78830  0.95140  0.90570  Biso   1.000  C
  C12      1.0000 0.28830  0.45140  0.90570  Biso   1.000  C
  C13      1.0000 0.21170  0.95140  0.59430  Biso   1.000  C
  C14      1.0000 0.71170  0.45140  0.59430  Biso   1.000  C
  C15      1.0000 0.21170  0.04860  0.09430  Biso   1.000  C
  C16      1.0000 0.71170  0.54860  0.09430  Biso   1.000  C
  N9       1.0000 0.79521  0.21220  0.34928  Biso   1.000  N
  N10      1.0000 0.29521  0.71220  0.34928  Biso   1.000  N
  N11      1.0000 0.79521  0.78780  0.84928  Biso   1.000  N
  N12      1.0000 0.29521  0.28780  0.84928  Biso   1.000  N
  N13      1.0000 0.20479  0.78780  0.65072  Biso   1.000  N
  N14      1.0000 0.70479  0.28780  0.65072  Biso   1.000  N
  N15      1.0000 0.20479  0.21220  0.15072  Biso   1.000  N
  N16      1.0000 0.70479  0.71220  0.15072  Biso   1.000  N
  C17      1.0000 0.70770  0.20730  0.29229  Biso   1.000  C
  C18      1.0000 0.20770  0.70730  0.29229  Biso   1.000  C
  C19      1.0000 0.70770  0.79270  0.79229  Biso   1.000  C
  C20      1.0000 0.20770  0.29270  0.79229  Biso   1.000  C
  C21      1.0000 0.29230  0.79270  0.70771  Biso   1.000  C
  C22      1.0000 0.79230  0.29270  0.70771  Biso   1.000  C
  C23      1.0000 0.29230  0.20730  0.20771  Biso   1.000  C
  C24      1.0000 0.79230  0.70730  0.20771  Biso   1.000  C
  O1       1.0000 0.46090  0.01100  0.35005  Biso   1.000  O
  O2       1.0000 0.96090  0.51100  0.35005  Biso   1.000  O
  O3       1.0000 0.46090  0.98900  0.85005  Biso   1.000  O
  O4       1.0000 0.96090  0.48900  0.85005  Biso   1.000  O
  O5       1.0000 0.53910  0.98900  0.64995  Biso   1.000  O
  O6       1.0000 0.03910  0.48900  0.64995  Biso   1.000  O
  O7       1.0000 0.53910  0.01100  0.14995  Biso   1.000  O
  O8       1.0000 0.03910  0.51100  0.14995  Biso   1.000  O
  O9       1.0000 0.51740  0.37430  0.39202  Biso   1.000  O
  O10      1.0000 0.01740  0.87430  0.39202  Biso   1.000  O
  O11      1.0000 0.51740  0.62570  0.89202  Biso   1.000  O
  O12      1.0000 0.01740  0.12570  0.89202  Biso   1.000  O
  O13      1.0000 0.48260  0.62570  0.60798  Biso   1.000  O
  O14      1.0000 0.98260  0.12570  0.60798  Biso   1.000  O
  O15      1.0000 0.48260  0.37430  0.10798  Biso   1.000  O
  O16      1.0000 0.98260  0.87430  0.10798  Biso   1.000  O
  C25      1.0000 0.48438  0.17650  0.40235  Biso   1.000  C
  C26      1.0000 0.98438  0.67650  0.40235  Biso   1.000  C
  C27      1.0000 0.48438  0.82350  0.90235  Biso   1.000  C
  C28      1.0000 0.98438  0.32350  0.90235  Biso   1.000  C
  C29      1.0000 0.51562  0.82350  0.59765  Biso   1.000  C
  C30      1.0000 0.01562  0.32350  0.59765  Biso   1.000  C
  C31      1.0000 0.51562  0.17650  0.09765  Biso   1.000  C
  C32      1.0000 0.01562  0.67650  0.09765  Biso   1.000  C
  C33      1.0000 0.46860  0.10930  0.48224  Biso   1.000  C
  C34      1.0000 0.96860  0.60930  0.48224  Biso   1.000  C
  C35      1.0000 0.46860  0.89070  0.98224  Biso   1.000  C
  C36      1.0000 0.96860  0.39070  0.98224  Biso   1.000  C
  C37      1.0000 0.53140  0.89070  0.51776  Biso   1.000  C
  C38      1.0000 0.03140  0.39070  0.51776  Biso   1.000  C
  C39      1.0000 0.53140  0.10930  0.01776  Biso   1.000  C
  C40      1.0000 0.03140  0.60930  0.01776  Biso   1.000  C
  O17      1.0000 0.50000  0.61230  0.25000  Biso   1.000  O
  O18      1.0000 0.00000  0.11230  0.25000  Biso   1.000  O
  O19      1.0000 0.50000  0.38770  0.75000  Biso   1.000  O
  O20      1.0000 0.00000  0.88770  0.75000  Biso   1.000  O
  H1       1.0000 0.66400  0.81400  0.40200  Biso   1.000  H
  H2       1.0000 0.16400  0.31400  0.40200  Biso   1.000  H
  H3       1.0000 0.66400  0.18600  0.90200  Biso   1.000  H
  H4       1.0000 0.16400  0.68600  0.90200  Biso   1.000  H
  H5       1.0000 0.33600  0.18600  0.59800  Biso   1.000  H
  H6       1.0000 0.83600  0.68600  0.59800  Biso   1.000  H
  H7       1.0000 0.33600  0.81400  0.09800  Biso   1.000  H
  H8       1.0000 0.83600  0.31400  0.09800  Biso   1.000  H
  H9       1.0000 0.83100  0.02500  0.45100  Biso   1.000  H
  H10      1.0000 0.33100  0.52500  0.45100  Biso   1.000  H
  H11      1.0000 0.83100  0.97500  0.95100  Biso   1.000  H
  H12      1.0000 0.33100  0.47500  0.95100  Biso   1.000  H
  H13      1.0000 0.16900  0.97500  0.54900  Biso   1.000  H
  H14      1.0000 0.66900  0.47500  0.54900  Biso   1.000  H
  H15      1.0000 0.16900  0.02500  0.04900  Biso   1.000  H
  H16      1.0000 0.66900  0.52500  0.04900  Biso   1.000  H
  H17      1.0000 0.84900  0.31200  0.35300  Biso   1.000  H
  H18      1.0000 0.34900  0.81200  0.35300  Biso   1.000  H
  H19      1.0000 0.84900  0.68800  0.85300  Biso   1.000  H
  H20      1.0000 0.34900  0.18800  0.85300  Biso   1.000  H
  H21      1.0000 0.15100  0.68800  0.64700  Biso   1.000  H
  H22      1.0000 0.65100  0.18800  0.64700  Biso   1.000  H
  H23      1.0000 0.15100  0.31200  0.14700  Biso   1.000  H
  H24      1.0000 0.65100  0.81200  0.14700  Biso   1.000  H
  H25      1.0000 0.69300  0.31000  0.25000  Biso   1.000  H
  H26      1.0000 0.19300  0.81000  0.25000  Biso   1.000  H
  H27      1.0000 0.69300  0.69000  0.75000  Biso   1.000  H
  H28      1.0000 0.19300  0.19000  0.75000  Biso   1.000  H
  H29      1.0000 0.30700  0.69000  0.75000  Biso   1.000  H
  H30      1.0000 0.80700  0.19000  0.75000  Biso   1.000  H
  H31      1.0000 0.30700  0.31000  0.25000  Biso   1.000  H
  H32      1.0000 0.80700  0.81000  0.25000  Biso   1.000  H
  H33      1.0000 0.39300  0.07000  0.47700  Biso   1.000  H
  H34      1.0000 0.89300  0.57000  0.47700  Biso   1.000  H
  H35      1.0000 0.39300  0.93000  0.97700  Biso   1.000  H
  H36      1.0000 0.89300  0.43000  0.97700  Biso   1.000  H
  H37      1.0000 0.60700  0.93000  0.52300  Biso   1.000  H
  H38      1.0000 0.10700  0.43000  0.52300  Biso   1.000  H
  H39      1.0000 0.60700  0.07000  0.02300  Biso   1.000  H
  H40      1.0000 0.10700  0.57000  0.02300  Biso   1.000  H
  H41      1.0000 0.48600  0.23500  0.51800  Biso   1.000  H
  H42      1.0000 0.98600  0.73500  0.51800  Biso   1.000  H
  H43      1.0000 0.48600  0.76500  0.01800  Biso   1.000  H
  H44      1.0000 0.98600  0.26500  0.01800  Biso   1.000  H
  H45      1.0000 0.51400  0.76500  0.48200  Biso   1.000  H
  H46      1.0000 0.01400  0.26500  0.48200  Biso   1.000  H
  H47      1.0000 0.51400  0.23500  0.98200  Biso   1.000  H
  H48      1.0000 0.01400  0.73500  0.98200  Biso   1.000  H
  H49      1.0000 0.48200  0.53400  0.27900  Biso   1.000  H
  H50      1.0000 0.98200  0.03400  0.27900  Biso   1.000  H
  H51      1.0000 0.48200  0.46600  0.77900  Biso   1.000  H
  H52      1.0000 0.98200  0.96600  0.77900  Biso   1.000  H
  H53      1.0000 0.51800  0.46600  0.72100  Biso   1.000  H
  H54      1.0000 0.01800  0.96600  0.72100  Biso   1.000  H
  H55      1.0000 0.51800  0.53400  0.22100  Biso   1.000  H
  H56      1.0000 0.01800  0.03400  0.22100  Biso   1.000  H
