data_image0
_cell_length_a       13.758
_cell_length_b       5.501
_cell_length_c       17.464
_cell_angle_alpha    90
_cell_angle_beta     106.05
_cell_angle_gamma    90

_symmetry_space_group_name_H-M    "P 1"
_symmetry_int_tables_number       1

loop_
  _symmetry_equiv_pos_as_xyz
  'x, y, z'

loop_
  _atom_site_label
  _atom_site_occupancy
  _atom_site_fract_x
  _atom_site_fract_y
  _atom_site_fract_z
  _atom_site_thermal_displace_type
  _atom_site_B_iso_or_equiv
  _atom_site_type_symbol
  Cu1      1.0000 0.50000  0.01441  0.25000  Biso   1.000  Cu
  Cu2      1.0000 0.00000  0.51441  0.25000  Biso   1.000  Cu
  Cu3      1.0000 0.50000  0.98559  0.75000  Biso   1.000  Cu
  Cu4      1.0000 0.00000  0.48559  0.75000  Biso   1.000  Cu
  N1       1.0000 0.64430  0.05300  0.30970  Biso   1.000  N
  N2       1.0000 0.14430  0.55300  0.30970  Biso   1.000  N
  N3       1.0000 0.64430  0.94700  0.80970  Biso   1.000  N
  N4       1.0000 0.14430  0.44700  0.80970  Biso   1.000  N
  N5       1.0000 0.35570  0.94700  0.69030  Biso   1.000  N
  N6       1.0000 0.85570  0.44700  0.69030  Biso   1.000  N
  N7       1.0000 0.35570  0.05300  0.19030  Biso   1.000  N
  N8       1.0000 0.85570  0.55300  0.19030  Biso   1.000  N
  C1       1.0000 0.69380  0.94450  0.38060  Biso   1.000  C
  C2       1.0000 0.19380  0.44450  0.38060  Biso   1.000  C
  C3       1.0000 0.69380  0.05550  0.88060  Biso   1.000  C
  C4       1.0000 0.19380  0.55550  0.88060  Biso   1.000  C
  C5       1.0000 0.30620  0.05550  0.61940  Biso   1.000  C
  C6       1.0000 0.80620  0.55550  0.61940  Biso   1.000  C
  C7       1.0000 0.30620  0.94450  0.11940  Biso   1.000  C
  C8       1.0000 0.80620  0.44450  0.11940  Biso   1.000  C
  C9       1.0000 0.78610  0.04030  0.40880  Biso   1.000  C
  C10      1.0000 0.28610  0.54030  0.40880  Biso   1.000  C
  C11      1.0000 0.78610  0.95970  0.90880  Biso   1.000  C
  C12      1.0000 0.28610  0.45970  0.90880  Biso   1.000  C
  C13      1.0000 0.21390  0.95970  0.59120  Biso   1.000  C
  C14      1.0000 0.71390  0.45970  0.59120  Biso   1.000  C
  C15      1.0000 0.21390  0.04030  0.09120  Biso   1.000  C
  C16      1.0000 0.71390  0.54030  0.09120  Biso   1.000  C
  N9       1.0000 0.79440  0.21380  0.35430  Biso   1.000  N
  N10      1.0000 0.29440  0.71380  0.35430  Biso   1.000  N
  N11      1.0000 0.79440  0.78620  0.85430  Biso   1.000  N
  N12      1.0000 0.29440  0.28620  0.85430  Biso   1.000  N
  N13      1.0000 0.20560  0.78620  0.64570  Biso   1.000  N
  N14      1.0000 0.70560  0.28620  0.64570  Biso   1.000  N
  N15      1.0000 0.20560  0.21380  0.14570  Biso   1.000  N
  N16      1.0000 0.70560  0.71380  0.14570  Biso   1.000  N
  C17      1.0000 0.70850  0.21370  0.29630  Biso   1.000  C
  C18      1.0000 0.20850  0.71370  0.29630  Biso   1.000  C
  C19      1.0000 0.70850  0.78630  0.79630  Biso   1.000  C
  C20      1.0000 0.20850  0.28630  0.79630  Biso   1.000  C
  C21      1.0000 0.29150  0.78630  0.70370  Biso   1.000  C
  C22      1.0000 0.79150  0.28630  0.70370  Biso   1.000  C
  C23      1.0000 0.29150  0.21370  0.20370  Biso   1.000  C
  C24      1.0000 0.79150  0.71370  0.20370  Biso   1.000  C
  O1       1.0000 0.46170  0.02070  0.35142  Biso   1.000  O
  O2       1.0000 0.96170  0.52070  0.35142  Biso   1.000  O
  O3       1.0000 0.46170  0.97930  0.85142  Biso   1.000  O
  O4       1.0000 0.96170  0.47930  0.85142  Biso   1.000  O
  O5       1.0000 0.53830  0.97930  0.64858  Biso   1.000  O
  O6       1.0000 0.03830  0.47930  0.64858  Biso   1.000  O
  O7       1.0000 0.53830  0.02070  0.14858  Biso   1.000  O
  O8       1.0000 0.03830  0.52070  0.14858  Biso   1.000  O
  O9       1.0000 0.51790  0.39210  0.39260  Biso   1.000  O
  O10      1.0000 0.01790  0.89210  0.39260  Biso   1.000  O
  O11      1.0000 0.51790  0.60790  0.89260  Biso   1.000  O
  O12      1.0000 0.01790  0.10790  0.89260  Biso   1.000  O
  O13      1.0000 0.48210  0.60790  0.60740  Biso   1.000  O
  O14      1.0000 0.98210  0.10790  0.60740  Biso   1.000  O
  O15      1.0000 0.48210  0.39210  0.10740  Biso   1.000  O
  O16      1.0000 0.98210  0.89210  0.10740  Biso   1.000  O
  C25      1.0000 0.49170  0.18560  0.40440  Biso   1.000  C
  C26      1.0000 0.99170  0.68560  0.40440  Biso   1.000  C
  C27      1.0000 0.49170  0.81440  0.90440  Biso   1.000  C
  C28      1.0000 0.99170  0.31440  0.90440  Biso   1.000  C
  C29      1.0000 0.50830  0.81440  0.59560  Biso   1.000  C
  C30      1.0000 0.00830  0.31440  0.59560  Biso   1.000  C
  C31      1.0000 0.50830  0.18560  0.09560  Biso   1.000  C
  C32      1.0000 0.00830  0.68560  0.09560  Biso   1.000  C
  C33      1.0000 0.49590  0.11420  0.48810  Biso   1.000  C
  C34      1.0000 0.99590  0.61420  0.48810  Biso   1.000  C
  C35      1.0000 0.49590  0.88580  0.98810  Biso   1.000  C
  C36      1.0000 0.99590  0.38580  0.98810  Biso   1.000  C
  C37      1.0000 0.50410  0.88580  0.51190  Biso   1.000  C
  C38      1.0000 0.00410  0.38580  0.51190  Biso   1.000  C
  C39      1.0000 0.50410  0.11420  0.01190  Biso   1.000  C
  C40      1.0000 0.00410  0.61420  0.01190  Biso   1.000  C
  O17      1.0000 0.50000  0.61840  0.25000  Biso   1.000  O
  O18      1.0000 0.00000  0.11840  0.25000  Biso   1.000  O
  O19      1.0000 0.50000  0.38160  0.75000  Biso   1.000  O
  O20      1.0000 0.00000  0.88160  0.75000  Biso   1.000  O
  H1       1.0000 0.66700  0.81300  0.40000  Biso   1.000  H
  H2       1.0000 0.16700  0.31300  0.40000  Biso   1.000  H
  H3       1.0000 0.66700  0.18700  0.90000  Biso   1.000  H
  H4       1.0000 0.16700  0.68700  0.90000  Biso   1.000  H
  H5       1.0000 0.33300  0.18700  0.60000  Biso   1.000  H
  H6       1.0000 0.83300  0.68700  0.60000  Biso   1.000  H
  H7       1.0000 0.33300  0.81300  0.10000  Biso   1.000  H
  H8       1.0000 0.83300  0.31300  0.10000  Biso   1.000  H
  H9       1.0000 0.83500  0.99700  0.45100  Biso   1.000  H
  H10      1.0000 0.33500  0.49700  0.45100  Biso   1.000  H
  H11      1.0000 0.83500  0.00300  0.95100  Biso   1.000  H
  H12      1.0000 0.33500  0.50300  0.95100  Biso   1.000  H
  H13      1.0000 0.16500  0.00300  0.54900  Biso   1.000  H
  H14      1.0000 0.66500  0.50300  0.54900  Biso   1.000  H
  H15      1.0000 0.16500  0.99700  0.04900  Biso   1.000  H
  H16      1.0000 0.66500  0.49700  0.04900  Biso   1.000  H
  H17      1.0000 0.83900  0.29500  0.35600  Biso   1.000  H
  H18      1.0000 0.33900  0.79500  0.35600  Biso   1.000  H
  H19      1.0000 0.83900  0.70500  0.85600  Biso   1.000  H
  H20      1.0000 0.33900  0.20500  0.85600  Biso   1.000  H
  H21      1.0000 0.16100  0.70500  0.64400  Biso   1.000  H
  H22      1.0000 0.66100  0.20500  0.64400  Biso   1.000  H
  H23      1.0000 0.16100  0.29500  0.14400  Biso   1.000  H
  H24      1.0000 0.66100  0.79500  0.14400  Biso   1.000  H
  H25      1.0000 0.69100  0.31100  0.25500  Biso   1.000  H
  H26      1.0000 0.19100  0.81100  0.25500  Biso   1.000  H
  H27      1.0000 0.69100  0.68900  0.75500  Biso   1.000  H
  H28      1.0000 0.19100  0.18900  0.75500  Biso   1.000  H
  H29      1.0000 0.30900  0.68900  0.74500  Biso   1.000  H
  H30      1.0000 0.80900  0.18900  0.74500  Biso   1.000  H
  H31      1.0000 0.30900  0.31100  0.24500  Biso   1.000  H
  H32      1.0000 0.80900  0.81100  0.24500  Biso   1.000  H
  H33      1.0000 0.49100  0.23900  0.52400  Biso   1.000  H
  H34      1.0000 0.99100  0.73900  0.52400  Biso   1.000  H
  H35      1.0000 0.49100  0.76100  0.02400  Biso   1.000  H
  H36      1.0000 0.99100  0.26100  0.02400  Biso   1.000  H
  H37      1.0000 0.50900  0.76100  0.47600  Biso   1.000  H
  H38      1.0000 0.00900  0.26100  0.47600  Biso   1.000  H
  H39      1.0000 0.50900  0.23900  0.97600  Biso   1.000  H
  H40      1.0000 0.00900  0.73900  0.97600  Biso   1.000  H
  H41      1.0000 0.49400  0.53300  0.28700  Biso   1.000  H
  H42      1.0000 0.99400  0.03300  0.28700  Biso   1.000  H
  H43      1.0000 0.49400  0.46700  0.78700  Biso   1.000  H
  H44      1.0000 0.99400  0.96700  0.78700  Biso   1.000  H
  H45      1.0000 0.50600  0.46700  0.71300  Biso   1.000  H
  H46      1.0000 0.00600  0.96700  0.71300  Biso   1.000  H
  H47      1.0000 0.50600  0.53300  0.21300  Biso   1.000  H
  H48      1.0000 0.00600  0.03300  0.21300  Biso   1.000  H
