data_image0
_cell_length_a       7.947
_cell_length_b       8.7744
_cell_length_c       10.8289
_cell_angle_alpha    100.554
_cell_angle_beta     105.051
_cell_angle_gamma    92.454

_symmetry_space_group_name_H-M    "P 1"
_symmetry_int_tables_number       1

loop_
  _symmetry_equiv_pos_as_xyz
  'x, y, z'

loop_
  _atom_site_label
  _atom_site_occupancy
  _atom_site_fract_x
  _atom_site_fract_y
  _atom_site_fract_z
  _atom_site_thermal_displace_type
  _atom_site_B_iso_or_equiv
  _atom_site_type_symbol
  C1       1.0000 0.40350  0.45590  0.11630  Biso   1.000  C
  C2       1.0000 0.59650  0.54410  0.88370  Biso   1.000  C
  C3       1.0000 0.19730  0.44710  0.96000  Biso   1.000  C
  C4       1.0000 0.80270  0.55290  0.04000  Biso   1.000  C
  N1       1.0000 0.24130  0.59910  0.00760  Biso   1.000  N
  N2       1.0000 0.75870  0.40090  0.99240  Biso   1.000  N
  N3       1.0000 0.38180  0.60450  0.11320  Biso   1.000  N
  N4       1.0000 0.61820  0.39550  0.88680  Biso   1.000  N
  N5       1.0000 0.29240  0.34970  0.02318  Biso   1.000  N
  N6       1.0000 0.70760  0.65030  0.97682  Biso   1.000  N
  N7       1.0000 0.54520  0.41190  0.21250  Biso   1.000  N
  N8       1.0000 0.45480  0.58810  0.78750  Biso   1.000  N
  N9       1.0000 0.05720  0.39350  0.84170  Biso   1.000  N
  N10      1.0000 0.94280  0.60650  0.15830  Biso   1.000  N
  O1       1.0000 0.54220  0.27520  0.22450  Biso   1.000  O
  O2       1.0000 0.45780  0.72480  0.77550  Biso   1.000  O
  O3       1.0000 0.66170  0.51420  0.27711  Biso   1.000  O
  O4       1.0000 0.33830  0.48580  0.72289  Biso   1.000  O
  O5       1.0000 0.03570  0.25360  0.79474  Biso   1.000  O
  O6       1.0000 0.96430  0.74640  0.20526  Biso   1.000  O
  O7       1.0000 0.96980  0.49170  0.79470  Biso   1.000  O
  O8       1.0000 0.03020  0.50830  0.20530  Biso   1.000  O
  O9       1.0000 0.21530  0.71700  0.96290  Biso   1.000  O
  O10      1.0000 0.78470  0.28300  0.03710  Biso   1.000  O
  C5       1.0000 0.29360  0.55610  0.45970  Biso   1.000  C
  C6       1.0000 0.70640  0.44390  0.54030  Biso   1.000  C
  H1       1.0000 0.29870  0.44650  0.44310  Biso   1.000  H
  H2       1.0000 0.70130  0.55350  0.55690  Biso   1.000  H
  C7       1.0000 0.20290  0.78490  0.50830  Biso   1.000  C
  C8       1.0000 0.79710  0.21510  0.49170  Biso   1.000  C
  H3       1.0000 0.13430  0.86550  0.53180  Biso   1.000  H
  H4       1.0000 0.86570  0.13450  0.46820  Biso   1.000  H
  C9       1.0000 0.11580  0.15820  0.23030  Biso   1.000  C
  C10      1.0000 0.88420  0.84180  0.76970  Biso   1.000  C
  H5       1.0000 0.03170  0.22830  0.20490  Biso   1.000  H
  H6       1.0000 0.96830  0.77170  0.79510  Biso   1.000  H
  C11      1.0000 0.27420  0.96220  0.22400  Biso   1.000  C
  C12      1.0000 0.72580  0.03780  0.77600  Biso   1.000  C
  H7       1.0000 0.32270  0.86990  0.19440  Biso   1.000  H
  H8       1.0000 0.67730  0.13010  0.80560  Biso   1.000  H
  Cu1      1.0000 0.50000  0.00000  0.50000  Biso   1.000  Cu
  N11      1.0000 0.00530  0.57260  0.51159  Biso   1.000  N
  N12      1.0000 0.99470  0.42740  0.48841  Biso   1.000  N
  N13      1.0000 0.35430  0.80460  0.48559  Biso   1.000  N
  N14      1.0000 0.64570  0.19540  0.51441  Biso   1.000  N
  N15      1.0000 0.41340  0.65860  0.45451  Biso   1.000  N
  N16      1.0000 0.58660  0.34140  0.54549  Biso   1.000  N
  N17      1.0000 0.15930  0.63070  0.49280  Biso   1.000  N
  N18      1.0000 0.84070  0.36930  0.50720  Biso   1.000  N
  N19      1.0000 0.06200  0.96370  0.02071  Biso   1.000  N
  N20      1.0000 0.93800  0.03630  0.97929  Biso   1.000  N
  N21      1.0000 0.32160  0.04560  0.34186  Biso   1.000  N
  N22      1.0000 0.67840  0.95440  0.65814  Biso   1.000  N
  N23      1.0000 0.22090  0.17140  0.34650  Biso   1.000  N
  N24      1.0000 0.77910  0.82860  0.65350  Biso   1.000  N
  N25      1.0000 0.14410  0.02880  0.15033  Biso   1.000  N
  N26      1.0000 0.85590  0.97120  0.84967  Biso   1.000  N
  O11      1.0000 0.66130  0.87650  0.36199  Biso   1.000  O
  O12      1.0000 0.33870  0.12350  0.63801  Biso   1.000  O
  H9       1.0000 0.64900  0.78500  0.35200  Biso   1.000  H
  H10      1.0000 0.35100  0.21500  0.64800  Biso   1.000  H
  H11      1.0000 0.65800  0.89700  0.29200  Biso   1.000  H
  H12      1.0000 0.34200  0.10300  0.70800  Biso   1.000  H
  O13      1.0000 0.68150  0.96020  0.13240  Biso   1.000  O
  O14      1.0000 0.31850  0.03980  0.86760  Biso   1.000  O
  H13      1.0000 0.70300  0.87400  0.09600  Biso   1.000  H
  H14      1.0000 0.29700  0.12600  0.90400  Biso   1.000  H
  H15      1.0000 0.60000  0.98200  0.07500  Biso   1.000  H
  H16      1.0000 0.40000  0.01800  0.92500  Biso   1.000  H
  O15      1.0000 0.59410  0.94440  0.09580  Biso   1.000  O
  O16      1.0000 0.40590  0.05560  0.90420  Biso   1.000  O
  H17      1.0000 0.61800  0.87600  0.04100  Biso   1.000  H
  H18      1.0000 0.38200  0.12400  0.95900  Biso   1.000  H
  H19      1.0000 0.62000  0.02500  0.07200  Biso   1.000  H
  H20      1.0000 0.38000  0.97500  0.92800  Biso   1.000  H
