data_image0
_cell_length_a       6.4975
_cell_length_b       8.9481
_cell_length_c       11.0062
_cell_angle_alpha    90.278
_cell_angle_beta     94.806
_cell_angle_gamma    96.506

_symmetry_space_group_name_H-M    "P 1"
_symmetry_int_tables_number       1

loop_
  _symmetry_equiv_pos_as_xyz
  'x, y, z'

loop_
  _atom_site_label
  _atom_site_occupancy
  _atom_site_fract_x
  _atom_site_fract_y
  _atom_site_fract_z
  _atom_site_thermal_displace_type
  _atom_site_B_iso_or_equiv
  _atom_site_type_symbol
  Cu1      1.0000 0.50000  0.50000  0.50000  Biso   1.000  Cu
  N1       1.0000 0.63760  0.31240  0.48410  Biso   1.000  N
  N2       1.0000 0.36240  0.68760  0.51590  Biso   1.000  N
  O1       1.0000 0.19100  0.36581  0.40642  Biso   1.000  O
  O2       1.0000 0.80900  0.63419  0.59358  Biso   1.000  O
  H1       1.0000 0.23140  0.28460  0.38000  Biso   1.000  H
  H2       1.0000 0.76860  0.71540  0.62000  Biso   1.000  H
  H3       1.0000 0.15620  0.41240  0.34240  Biso   1.000  H
  H4       1.0000 0.84380  0.58760  0.65760  Biso   1.000  H
  N3       1.0000 0.83270  0.13330  0.49146  Biso   1.000  N
  N4       1.0000 0.16730  0.86670  0.50854  Biso   1.000  N
  N5       1.0000 0.00590  0.06070  0.52712  Biso   1.000  N
  N6       1.0000 0.99410  0.93930  0.47288  Biso   1.000  N
  N7       1.0000 0.54940  0.56260  0.01229  Biso   1.000  N
  N8       1.0000 0.45060  0.43740  0.98771  Biso   1.000  N
  N9       1.0000 0.64280  0.71330  0.30791  Biso   1.000  N
  N10      1.0000 0.35720  0.28670  0.69209  Biso   1.000  N
  N11      1.0000 0.57180  0.56390  0.33236  Biso   1.000  N
  N12      1.0000 0.42820  0.43610  0.66764  Biso   1.000  N
  N13      1.0000 0.57650  0.58420  0.13749  Biso   1.000  N
  N14      1.0000 0.42350  0.41580  0.86251  Biso   1.000  N
  N15      1.0000 0.54030  0.19540  0.40789  Biso   1.000  N
  N16      1.0000 0.45970  0.80460  0.59211  Biso   1.000  N
  C1       1.0000 0.81180  0.27260  0.53333  Biso   1.000  C
  C2       1.0000 0.18820  0.72740  0.46667  Biso   1.000  C
  H5       1.0000 0.90790  0.33130  0.58920  Biso   1.000  H
  H6       1.0000 0.09210  0.66870  0.41080  Biso   1.000  H
  C3       1.0000 0.66090  0.08990  0.41316  Biso   1.000  C
  C4       1.0000 0.33910  0.91010  0.58684  Biso   1.000  C
  H7       1.0000 0.63470  0.99690  0.36960  Biso   1.000  H
  H8       1.0000 0.36530  0.00310  0.63040  Biso   1.000  H
  C5       1.0000 0.64560  0.72110  0.19017  Biso   1.000  C
  C6       1.0000 0.35440  0.27890  0.80983  Biso   1.000  C
  H9       1.0000 0.68930  0.80920  0.14710  Biso   1.000  H
  H10      1.0000 0.31070  0.19080  0.85290  Biso   1.000  H
  C7       1.0000 0.53330  0.48810  0.22998  Biso   1.000  C
  C8       1.0000 0.46670  0.51190  0.77002  Biso   1.000  C
  H11      1.0000 0.48370  0.38430  0.22140  Biso   1.000  H
  H12      1.0000 0.51630  0.61570  0.77860  Biso   1.000  H
  N17      1.0000 0.17220  0.75900  0.04249  Biso   1.000  N
  N18      1.0000 0.82780  0.24100  0.95751  Biso   1.000  N
  O3       1.0000 0.28540  0.14027  0.12397  Biso   1.000  O
  O4       1.0000 0.71460  0.85973  0.87603  Biso   1.000  O
  O5       1.0000 0.24430  0.94670  0.24210  Biso   1.000  O
  O6       1.0000 0.75570  0.05330  0.75790  Biso   1.000  O
  N19      1.0000 0.25220  0.00510  0.14134  Biso   1.000  N
  N20      1.0000 0.74780  0.99490  0.85866  Biso   1.000  N
  N21      1.0000 0.15610  0.71390  0.92564  Biso   1.000  N
  N22      1.0000 0.84390  0.28610  0.07436  Biso   1.000  N
  C9       1.0000 0.22020  0.90630  0.03540  Biso   1.000  C
  C10      1.0000 0.77980  0.09370  0.96460  Biso   1.000  C
  N23      1.0000 0.19350  0.83100  0.85430  Biso   1.000  N
  N24      1.0000 0.80650  0.16900  0.14570  Biso   1.000  N
  N25      1.0000 0.23550  0.95630  0.92326  Biso   1.000  N
  N26      1.0000 0.76450  0.04370  0.07674  Biso   1.000  N
  O7       1.0000 0.04830  0.53241  0.21475  Biso   1.000  O
  O8       1.0000 0.95170  0.46759  0.78525  Biso   1.000  O
  H13      1.0000 0.09400  0.60190  0.17000  Biso   1.000  H
  H14      1.0000 0.90600  0.39810  0.83000  Biso   1.000  H
  H15      1.0000 0.97170  0.46890  0.16900  Biso   1.000  H
  H16      1.0000 0.02830  0.53110  0.83100  Biso   1.000  H
