data_image0
_cell_length_a       9.4296
_cell_length_b       10.7002
_cell_length_c       12.2874
_cell_angle_alpha    86.186
_cell_angle_beta     81.556
_cell_angle_gamma    86.561

_symmetry_space_group_name_H-M    "P 1"
_symmetry_int_tables_number       1

loop_
  _symmetry_equiv_pos_as_xyz
  'x, y, z'

loop_
  _atom_site_label
  _atom_site_occupancy
  _atom_site_fract_x
  _atom_site_fract_y
  _atom_site_fract_z
  _atom_site_thermal_displace_type
  _atom_site_B_iso_or_equiv
  _atom_site_type_symbol
  Eu1      1.0000 0.57076  0.34831  0.64831  Biso   1.000  Eu
  Eu2      1.0000 0.42924  0.65169  0.35169  Biso   1.000  Eu
  Cu1      1.0000 0.95704  0.81387  0.11987  Biso   1.000  Cu
  Cu2      1.0000 0.04296  0.18613  0.88013  Biso   1.000  Cu
  Cu3      1.0000 0.50000  0.00000  0.00000  Biso   1.000  Cu
  O1       1.0000 0.11880  0.88790  0.02880  Biso   1.000  O
  O2       1.0000 0.88120  0.11210  0.97120  Biso   1.000  O
  O3       1.0000 0.24740  0.05830  0.01500  Biso   1.000  O
  O4       1.0000 0.75260  0.94170  0.98500  Biso   1.000  O
  O5       1.0000 0.17160  0.32560  0.34670  Biso   1.000  O
  O6       1.0000 0.82840  0.67440  0.65330  Biso   1.000  O
  O7       1.0000 0.97780  0.29720  0.46960  Biso   1.000  O
  O8       1.0000 0.02220  0.70280  0.53040  Biso   1.000  O
  O9       1.0000 0.22160  0.24800  0.80155  Biso   1.000  O
  O10      1.0000 0.77840  0.75200  0.19845  Biso   1.000  O
  O11      1.0000 0.39690  0.37420  0.81902  Biso   1.000  O
  O12      1.0000 0.60310  0.62580  0.18098  Biso   1.000  O
  O13      1.0000 0.08820  0.66350  0.21960  Biso   1.000  O
  O14      1.0000 0.91180  0.33650  0.78040  Biso   1.000  O
  O15      1.0000 0.31490  0.58650  0.20570  Biso   1.000  O
  O16      1.0000 0.68510  0.41350  0.79430  Biso   1.000  O
  O17      1.0000 0.53360  0.11770  0.86990  Biso   1.000  O
  O18      1.0000 0.46640  0.88230  0.13010  Biso   1.000  O
  O19      1.0000 0.50370  0.13580  0.69301  Biso   1.000  O
  O20      1.0000 0.49630  0.86420  0.30699  Biso   1.000  O
  O21      1.0000 0.38950  0.72090  0.53471  Biso   1.000  O
  O22      1.0000 0.61050  0.27910  0.46529  Biso   1.000  O
  O23      1.0000 0.47900  0.55330  0.62250  Biso   1.000  O
  O24      1.0000 0.52100  0.44670  0.37750  Biso   1.000  O
  O25      1.0000 0.33530  0.32980  0.58990  Biso   1.000  O
  O26      1.0000 0.66470  0.67020  0.41010  Biso   1.000  O
  O27      1.0000 0.78950  0.21270  0.63790  Biso   1.000  O
  O28      1.0000 0.21050  0.78730  0.36210  Biso   1.000  O
  O29      1.0000 0.76890  0.47930  0.55190  Biso   1.000  O
  O30      1.0000 0.23110  0.52070  0.44810  Biso   1.000  O
  N1       1.0000 0.97350  0.94890  0.21860  Biso   1.000  N
  N2       1.0000 0.02650  0.05110  0.78140  Biso   1.000  N
  N3       1.0000 0.07380  0.30550  0.98920  Biso   1.000  N
  N4       1.0000 0.92620  0.69450  0.01080  Biso   1.000  N
  N5       1.0000 0.47490  0.88020  0.89030  Biso   1.000  N
  N6       1.0000 0.52510  0.11980  0.10970  Biso   1.000  N
  C1       1.0000 0.08340  0.02180  0.17760  Biso   1.000  C
  C2       1.0000 0.91660  0.97820  0.82240  Biso   1.000  C
  C3       1.0000 0.11820  0.12110  0.23220  Biso   1.000  C
  C4       1.0000 0.88180  0.87890  0.76780  Biso   1.000  C
  C5       1.0000 0.03560  0.15100  0.33140  Biso   1.000  C
  C6       1.0000 0.96440  0.84900  0.66860  Biso   1.000  C
  C7       1.0000 0.92050  0.07710  0.37120  Biso   1.000  C
  C8       1.0000 0.07950  0.92290  0.62880  Biso   1.000  C
  C9       1.0000 0.89360  0.97640  0.31380  Biso   1.000  C
  C10      1.0000 0.10640  0.02360  0.68620  Biso   1.000  C
  C11      1.0000 0.15900  0.98780  0.06500  Biso   1.000  C
  C12      1.0000 0.84100  0.01220  0.93500  Biso   1.000  C
  C13      1.0000 0.06460  0.26780  0.38810  Biso   1.000  C
  C14      1.0000 0.93540  0.73220  0.61190  Biso   1.000  C
  C15      1.0000 0.98560  0.33800  0.07990  Biso   1.000  C
  C16      1.0000 0.01440  0.66200  0.92010  Biso   1.000  C
  C17      1.0000 0.01900  0.42950  0.14430  Biso   1.000  C
  C18      1.0000 0.98100  0.57050  0.85570  Biso   1.000  C
  C19      1.0000 0.15110  0.48350  0.12000  Biso   1.000  C
  C20      1.0000 0.84890  0.51650  0.88000  Biso   1.000  C
  C21      1.0000 0.24500  0.44470  0.02870  Biso   1.000  C
  C22      1.0000 0.75500  0.55530  0.97130  Biso   1.000  C
  C23      1.0000 0.20090  0.35910  0.96360  Biso   1.000  C
  C24      1.0000 0.79910  0.64090  0.03640  Biso   1.000  C
  C25      1.0000 0.28240  0.32360  0.85330  Biso   1.000  C
  C26      1.0000 0.71760  0.67640  0.14670  Biso   1.000  C
  C27      1.0000 0.18780  0.58610  0.18750  Biso   1.000  C
  C28      1.0000 0.81220  0.41390  0.81250  Biso   1.000  C
  C29      1.0000 0.47890  0.93610  0.78840  Biso   1.000  C
  C30      1.0000 0.52110  0.06390  0.21160  Biso   1.000  C
  C31      1.0000 0.46290  0.87120  0.69840  Biso   1.000  C
  C32      1.0000 0.53710  0.12880  0.30160  Biso   1.000  C
  C33      1.0000 0.44710  0.74270  0.71320  Biso   1.000  C
  C34      1.0000 0.55290  0.25730  0.28680  Biso   1.000  C
  C35      1.0000 0.44580  0.68550  0.81810  Biso   1.000  C
  C36      1.0000 0.55420  0.31450  0.18190  Biso   1.000  C
  C37      1.0000 0.45640  0.75800  0.90520  Biso   1.000  C
  C38      1.0000 0.54360  0.24200  0.09480  Biso   1.000  C
  C39      1.0000 0.50630  0.07510  0.78240  Biso   1.000  C
  C40      1.0000 0.49370  0.92490  0.21760  Biso   1.000  C
  C41      1.0000 0.43800  0.66570  0.61630  Biso   1.000  C
  C42      1.0000 0.56200  0.33430  0.38370  Biso   1.000  C
  H1       1.0000 0.19630  0.16800  0.20320  Biso   1.000  H
  H2       1.0000 0.80370  0.83200  0.79680  Biso   1.000  H
  H3       1.0000 0.86180  0.09550  0.43650  Biso   1.000  H
  H4       1.0000 0.13820  0.90450  0.56350  Biso   1.000  H
  H5       1.0000 0.81780  0.92660  0.34220  Biso   1.000  H
  H6       1.0000 0.18220  0.07340  0.65780  Biso   1.000  H
  H7       1.0000 0.90000  0.29790  0.09970  Biso   1.000  H
  H8       1.0000 0.10000  0.70210  0.90030  Biso   1.000  H
  H9       1.0000 0.95340  0.45500  0.20380  Biso   1.000  H
  H10      1.0000 0.04660  0.54500  0.79620  Biso   1.000  H
  H11      1.0000 0.33600  0.47600  0.01220  Biso   1.000  H
  H12      1.0000 0.66400  0.52400  0.98780  Biso   1.000  H
  H13      1.0000 0.28170  0.29990  0.64260  Biso   1.000  H
  H14      1.0000 0.71830  0.70010  0.35740  Biso   1.000  H
  H15      1.0000 0.29640  0.39040  0.55970  Biso   1.000  H
  H16      1.0000 0.70360  0.60960  0.44030  Biso   1.000  H
  H17      1.0000 0.83310  0.23700  0.68500  Biso   1.000  H
  H18      1.0000 0.16690  0.76300  0.31500  Biso   1.000  H
  H19      1.0000 0.84480  0.22310  0.58040  Biso   1.000  H
  H20      1.0000 0.15520  0.77690  0.41960  Biso   1.000  H
  H21      1.0000 0.80320  0.53410  0.58200  Biso   1.000  H
  H22      1.0000 0.19680  0.46590  0.41800  Biso   1.000  H
  H23      1.0000 0.84370  0.44780  0.52000  Biso   1.000  H
  H24      1.0000 0.15630  0.55220  0.48000  Biso   1.000  H
  H25      1.0000 0.46260  0.91230  0.62930  Biso   1.000  H
  H26      1.0000 0.53740  0.08770  0.37070  Biso   1.000  H
  H27      1.0000 0.43800  0.59920  0.82960  Biso   1.000  H
  H28      1.0000 0.56200  0.40080  0.17040  Biso   1.000  H
  H29      1.0000 0.45030  0.72020  0.97600  Biso   1.000  H
  H30      1.0000 0.54970  0.27980  0.02400  Biso   1.000  H
