data_image0
_cell_length_a       6.4192
_cell_length_b       9.8561
_cell_length_c       20.7058
_cell_angle_alpha    90
_cell_angle_beta     90
_cell_angle_gamma    90

_symmetry_space_group_name_H-M    "P 1"
_symmetry_int_tables_number       1

loop_
  _symmetry_equiv_pos_as_xyz
  'x, y, z'

loop_
  _atom_site_label
  _atom_site_occupancy
  _atom_site_fract_x
  _atom_site_fract_y
  _atom_site_fract_z
  _atom_site_thermal_displace_type
  _atom_site_B_iso_or_equiv
  _atom_site_type_symbol
  Cu1      1.0000 0.73150  0.86731  0.49575  Biso   1.000  Cu
  Cu2      1.0000 0.76850  0.13269  0.99575  Biso   1.000  Cu
  Cu3      1.0000 0.23150  0.63269  0.50425  Biso   1.000  Cu
  Cu4      1.0000 0.26850  0.36731  0.00425  Biso   1.000  Cu
  Cl1      1.0000 0.77737  0.65085  0.52125  Biso   1.000  Cl
  Cl2      1.0000 0.72263  0.34915  0.02125  Biso   1.000  Cl
  Cl3      1.0000 0.27737  0.84915  0.47875  Biso   1.000  Cl
  Cl4      1.0000 0.22263  0.15085  0.97875  Biso   1.000  Cl
  N1       1.0000 0.72800  0.05980  0.47500  Biso   1.000  N
  N2       1.0000 0.77200  0.94020  0.97500  Biso   1.000  N
  N3       1.0000 0.22800  0.44020  0.52500  Biso   1.000  N
  N4       1.0000 0.27200  0.55980  0.02500  Biso   1.000  N
  N5       1.0000 0.77900  0.86140  0.39898  Biso   1.000  N
  N6       1.0000 0.72100  0.13860  0.89898  Biso   1.000  N
  N7       1.0000 0.27900  0.63860  0.60102  Biso   1.000  N
  N8       1.0000 0.22100  0.36140  0.10102  Biso   1.000  N
  C1       1.0000 0.78160  0.97960  0.37313  Biso   1.000  C
  C2       1.0000 0.71840  0.02040  0.87313  Biso   1.000  C
  C3       1.0000 0.28160  0.52040  0.62687  Biso   1.000  C
  C4       1.0000 0.21840  0.47960  0.12687  Biso   1.000  C
  O1       1.0000 0.71010  0.94640  0.58402  Biso   1.000  O
  O2       1.0000 0.78990  0.05360  0.08402  Biso   1.000  O
  O3       1.0000 0.21010  0.55360  0.41598  Biso   1.000  O
  O4       1.0000 0.28990  0.44640  0.91598  Biso   1.000  O
  C5       1.0000 0.74560  0.09860  0.41352  Biso   1.000  C
  C6       1.0000 0.75440  0.90140  0.91352  Biso   1.000  C
  C7       1.0000 0.24560  0.40140  0.58648  Biso   1.000  C
  C8       1.0000 0.25440  0.59860  0.08648  Biso   1.000  C
  C9       1.0000 0.71380  0.14730  0.52287  Biso   1.000  C
  C10      1.0000 0.78620  0.85270  0.02287  Biso   1.000  C
  C11      1.0000 0.21380  0.35270  0.47713  Biso   1.000  C
  C12      1.0000 0.28620  0.64730  0.97713  Biso   1.000  C
  O5       1.0000 0.70040  0.14420  0.63695  Biso   1.000  O
  O6       1.0000 0.79960  0.85580  0.13695  Biso   1.000  O
  O7       1.0000 0.20040  0.35580  0.36305  Biso   1.000  O
  O8       1.0000 0.29960  0.64420  0.86305  Biso   1.000  O
  C13      1.0000 0.73800  0.23420  0.39689  Biso   1.000  C
  C14      1.0000 0.76200  0.76580  0.89689  Biso   1.000  C
  C15      1.0000 0.23800  0.26580  0.60311  Biso   1.000  C
  C16      1.0000 0.26200  0.73420  0.10311  Biso   1.000  C
  H1       1.0000 0.74630  0.26220  0.35410  Biso   1.000  H
  H2       1.0000 0.75370  0.73780  0.85410  Biso   1.000  H
  H3       1.0000 0.24630  0.23780  0.64590  Biso   1.000  H
  H4       1.0000 0.25370  0.76220  0.14590  Biso   1.000  H
  C17      1.0000 0.70600  0.07600  0.58797  Biso   1.000  C
  C18      1.0000 0.79400  0.92400  0.08797  Biso   1.000  C
  C19      1.0000 0.20600  0.42400  0.41203  Biso   1.000  C
  C20      1.0000 0.29400  0.57600  0.91203  Biso   1.000  C
  O9       1.0000 0.82900  0.99040  0.31104  Biso   1.000  O
  O10      1.0000 0.67100  0.00960  0.81104  Biso   1.000  O
  O11      1.0000 0.32900  0.50960  0.68896  Biso   1.000  O
  O12      1.0000 0.17100  0.49040  0.18896  Biso   1.000  O
  C21      1.0000 0.89580  0.85360  0.29163  Biso   1.000  C
  C22      1.0000 0.60420  0.14640  0.79163  Biso   1.000  C
  C23      1.0000 0.39580  0.64640  0.70837  Biso   1.000  C
  C24      1.0000 0.10420  0.35360  0.20837  Biso   1.000  C
  H5       1.0000 0.04540  0.85000  0.28530  Biso   1.000  H
  H6       1.0000 0.45460  0.15000  0.78530  Biso   1.000  H
  H7       1.0000 0.54540  0.65000  0.71470  Biso   1.000  H
  H8       1.0000 0.95460  0.35000  0.21470  Biso   1.000  H
  H9       1.0000 0.82750  0.82600  0.25200  Biso   1.000  H
  H10      1.0000 0.67250  0.17400  0.75200  Biso   1.000  H
  H11      1.0000 0.32750  0.67400  0.74800  Biso   1.000  H
  H12      1.0000 0.17250  0.32600  0.24800  Biso   1.000  H
  C25      1.0000 0.70960  0.28580  0.51075  Biso   1.000  C
  C26      1.0000 0.79040  0.71420  0.01075  Biso   1.000  C
  C27      1.0000 0.20960  0.21420  0.48925  Biso   1.000  C
  C28      1.0000 0.29040  0.78580  0.98925  Biso   1.000  C
  H13      1.0000 0.70410  0.34890  0.54410  Biso   1.000  H
  H14      1.0000 0.79590  0.65110  0.04410  Biso   1.000  H
  H15      1.0000 0.20410  0.15110  0.45590  Biso   1.000  H
  H16      1.0000 0.29590  0.84890  0.95590  Biso   1.000  H
  C29      1.0000 0.71140  0.55300  0.29140  Biso   1.000  C
  C30      1.0000 0.78860  0.44700  0.79140  Biso   1.000  C
  C31      1.0000 0.21140  0.94700  0.70860  Biso   1.000  C
  C32      1.0000 0.28860  0.05300  0.20860  Biso   1.000  C
  H17      1.0000 0.60080  0.48750  0.28940  Biso   1.000  H
  H18      1.0000 0.89920  0.51250  0.78940  Biso   1.000  H
  H19      1.0000 0.10080  0.01250  0.71060  Biso   1.000  H
  H20      1.0000 0.39920  0.98750  0.21060  Biso   1.000  H
  H21      1.0000 0.83410  0.51090  0.30870  Biso   1.000  H
  H22      1.0000 0.66590  0.48910  0.80870  Biso   1.000  H
  H23      1.0000 0.33410  0.98910  0.69130  Biso   1.000  H
  H24      1.0000 0.16590  0.01090  0.19130  Biso   1.000  H
  H25      1.0000 0.74030  0.58650  0.24880  Biso   1.000  H
  H26      1.0000 0.75970  0.41350  0.74880  Biso   1.000  H
  H27      1.0000 0.24030  0.91350  0.75120  Biso   1.000  H
  H28      1.0000 0.25970  0.08650  0.25120  Biso   1.000  H
  C33      1.0000 0.71900  0.32760  0.44678  Biso   1.000  C
  C34      1.0000 0.78100  0.67240  0.94678  Biso   1.000  C
  C35      1.0000 0.21900  0.17240  0.55322  Biso   1.000  C
  C36      1.0000 0.28100  0.82760  0.05322  Biso   1.000  C
  H29      1.0000 0.71150  0.41950  0.43680  Biso   1.000  H
  H30      1.0000 0.78850  0.58050  0.93680  Biso   1.000  H
  H31      1.0000 0.21150  0.08050  0.56320  Biso   1.000  H
  H32      1.0000 0.28850  0.91950  0.06320  Biso   1.000  H
  C37      1.0000 0.45450  0.74120  0.30740  Biso   1.000  C
  C38      1.0000 0.04550  0.25880  0.80740  Biso   1.000  C
  C39      1.0000 0.95450  0.75880  0.69260  Biso   1.000  C
  C40      1.0000 0.54550  0.24120  0.19260  Biso   1.000  C
  H33      1.0000 0.39850  0.80320  0.33870  Biso   1.000  H
  H34      1.0000 0.10150  0.19680  0.83870  Biso   1.000  H
  H35      1.0000 0.89850  0.69680  0.66130  Biso   1.000  H
  H36      1.0000 0.60150  0.30320  0.16130  Biso   1.000  H
  H37      1.0000 0.35030  0.67560  0.29600  Biso   1.000  H
  H38      1.0000 0.14970  0.32440  0.79600  Biso   1.000  H
  H39      1.0000 0.85030  0.82440  0.70400  Biso   1.000  H
  H40      1.0000 0.64970  0.17560  0.20400  Biso   1.000  H
  H41      1.0000 0.49610  0.79040  0.26960  Biso   1.000  H
  H42      1.0000 0.00390  0.20960  0.76960  Biso   1.000  H
  H43      1.0000 0.99610  0.70960  0.73040  Biso   1.000  H
  H44      1.0000 0.50390  0.29040  0.23040  Biso   1.000  H
  C41      1.0000 0.64260  0.66890  0.33535  Biso   1.000  C
  C42      1.0000 0.85740  0.33110  0.83535  Biso   1.000  C
  C43      1.0000 0.14260  0.83110  0.66465  Biso   1.000  C
  C44      1.0000 0.35740  0.16890  0.16465  Biso   1.000  C
  H45      1.0000 0.59940  0.63000  0.37680  Biso   1.000  H
  H46      1.0000 0.90060  0.37000  0.87680  Biso   1.000  H
  H47      1.0000 0.09940  0.87000  0.62320  Biso   1.000  H
  H48      1.0000 0.40060  0.13000  0.12320  Biso   1.000  H
  C45      1.0000 0.82850  0.76190  0.34819  Biso   1.000  C
  C46      1.0000 0.67150  0.23810  0.84819  Biso   1.000  C
  C47      1.0000 0.32850  0.73810  0.65181  Biso   1.000  C
  C48      1.0000 0.17150  0.26190  0.15181  Biso   1.000  C
  H49      1.0000 0.94720  0.70640  0.36190  Biso   1.000  H
  H50      1.0000 0.55280  0.29360  0.86190  Biso   1.000  H
  H51      1.0000 0.44720  0.79360  0.63810  Biso   1.000  H
  H52      1.0000 0.05280  0.20640  0.13810  Biso   1.000  H
