data_image0
_cell_length_a       6.4897
_cell_length_b       10.0703
_cell_length_c       20.5081
_cell_angle_alpha    90
_cell_angle_beta     90
_cell_angle_gamma    90

_symmetry_space_group_name_H-M    "P 1"
_symmetry_int_tables_number       1

loop_
  _symmetry_equiv_pos_as_xyz
  'x, y, z'

loop_
  _atom_site_label
  _atom_site_occupancy
  _atom_site_fract_x
  _atom_site_fract_y
  _atom_site_fract_z
  _atom_site_thermal_displace_type
  _atom_site_B_iso_or_equiv
  _atom_site_type_symbol
  Br1      1.0000 0.25975  0.86317  0.47658  Biso   1.000  Br
  Br2      1.0000 0.24025  0.13683  0.97658  Biso   1.000  Br
  Br3      1.0000 0.75975  0.63683  0.52342  Biso   1.000  Br
  Br4      1.0000 0.74025  0.36317  0.02342  Biso   1.000  Br
  Cu1      1.0000 0.23261  0.63824  0.50681  Biso   1.000  Cu
  Cu2      1.0000 0.26739  0.36176  0.00681  Biso   1.000  Cu
  Cu3      1.0000 0.73261  0.86176  0.49319  Biso   1.000  Cu
  Cu4      1.0000 0.76739  0.13824  0.99319  Biso   1.000  Cu
  O1       1.0000 0.21150  0.55740  0.41900  Biso   1.000  O
  O2       1.0000 0.28850  0.44260  0.91900  Biso   1.000  O
  O3       1.0000 0.71150  0.94260  0.58100  Biso   1.000  O
  O4       1.0000 0.78850  0.05740  0.08100  Biso   1.000  O
  O5       1.0000 0.33440  0.52800  0.69410  Biso   1.000  O
  O6       1.0000 0.16560  0.47200  0.19410  Biso   1.000  O
  O7       1.0000 0.83440  0.97200  0.30590  Biso   1.000  O
  O8       1.0000 0.66560  0.02800  0.80590  Biso   1.000  O
  N1       1.0000 0.23130  0.45110  0.53010  Biso   1.000  N
  N2       1.0000 0.26870  0.54890  0.03010  Biso   1.000  N
  N3       1.0000 0.73130  0.04890  0.46990  Biso   1.000  N
  N4       1.0000 0.76870  0.95110  0.96990  Biso   1.000  N
  O9       1.0000 0.19510  0.36130  0.36730  Biso   1.000  O
  O10      1.0000 0.30490  0.63870  0.86730  Biso   1.000  O
  O11      1.0000 0.69510  0.13870  0.63270  Biso   1.000  O
  O12      1.0000 0.80490  0.86130  0.13270  Biso   1.000  O
  C1       1.0000 0.21350  0.36440  0.48320  Biso   1.000  C
  C2       1.0000 0.28650  0.63560  0.98320  Biso   1.000  C
  C3       1.0000 0.71350  0.13560  0.51680  Biso   1.000  C
  C4       1.0000 0.78650  0.86440  0.01680  Biso   1.000  C
  N5       1.0000 0.27650  0.64920  0.60430  Biso   1.000  N
  N6       1.0000 0.22350  0.35080  0.10430  Biso   1.000  N
  N7       1.0000 0.77650  0.85080  0.39570  Biso   1.000  N
  N8       1.0000 0.72350  0.14920  0.89570  Biso   1.000  N
  C5       1.0000 0.20090  0.42980  0.41610  Biso   1.000  C
  C6       1.0000 0.29910  0.57020  0.91610  Biso   1.000  C
  C7       1.0000 0.70090  0.07020  0.58390  Biso   1.000  C
  C8       1.0000 0.79910  0.92980  0.08390  Biso   1.000  C
  C9       1.0000 0.28490  0.53540  0.63150  Biso   1.000  C
  C10      1.0000 0.21510  0.46460  0.13150  Biso   1.000  C
  C11      1.0000 0.78490  0.96460  0.36850  Biso   1.000  C
  C12      1.0000 0.71510  0.03540  0.86850  Biso   1.000  C
  C13      1.0000 0.26040  0.41610  0.59240  Biso   1.000  C
  C14      1.0000 0.23960  0.58390  0.09240  Biso   1.000  C
  C15      1.0000 0.76040  0.08390  0.40760  Biso   1.000  C
  C16      1.0000 0.73960  0.91610  0.90760  Biso   1.000  C
  C17      1.0000 0.23880  0.28420  0.61080  Biso   1.000  C
  C18      1.0000 0.26120  0.71580  0.11080  Biso   1.000  C
  C19      1.0000 0.73880  0.21580  0.38920  Biso   1.000  C
  C20      1.0000 0.76120  0.78420  0.88920  Biso   1.000  C
  H1       1.0000 0.24110  0.25860  0.65440  Biso   1.000  H
  H2       1.0000 0.25890  0.74140  0.15440  Biso   1.000  H
  H3       1.0000 0.74110  0.24140  0.34560  Biso   1.000  H
  H4       1.0000 0.75890  0.75860  0.84560  Biso   1.000  H
  C21      1.0000 0.14400  0.84210  0.66740  Biso   1.000  C
  C22      1.0000 0.35600  0.15790  0.16740  Biso   1.000  C
  C23      1.0000 0.64400  0.65790  0.33260  Biso   1.000  C
  C24      1.0000 0.85600  0.34210  0.83260  Biso   1.000  C
  H5       1.0000 0.10130  0.87870  0.62530  Biso   1.000  H
  H6       1.0000 0.39870  0.12130  0.12530  Biso   1.000  H
  H7       1.0000 0.60130  0.62130  0.37470  Biso   1.000  H
  H8       1.0000 0.89870  0.37870  0.87470  Biso   1.000  H
  C25      1.0000 0.21240  0.22750  0.49720  Biso   1.000  C
  C26      1.0000 0.28760  0.77250  0.99720  Biso   1.000  C
  C27      1.0000 0.71240  0.27250  0.50280  Biso   1.000  C
  C28      1.0000 0.78760  0.72750  0.00280  Biso   1.000  C
  H9       1.0000 0.20670  0.16390  0.46440  Biso   1.000  H
  H10      1.0000 0.29330  0.83610  0.96440  Biso   1.000  H
  H11      1.0000 0.70670  0.33610  0.53560  Biso   1.000  H
  H12      1.0000 0.79330  0.66390  0.03560  Biso   1.000  H
  C29      1.0000 0.32690  0.75090  0.65480  Biso   1.000  C
  C30      1.0000 0.17310  0.24910  0.15480  Biso   1.000  C
  C31      1.0000 0.82690  0.74910  0.34520  Biso   1.000  C
  C32      1.0000 0.67310  0.25090  0.84520  Biso   1.000  C
  H13      1.0000 0.44340  0.80440  0.63950  Biso   1.000  H
  H14      1.0000 0.05660  0.19560  0.13950  Biso   1.000  H
  H15      1.0000 0.94340  0.69560  0.36050  Biso   1.000  H
  H16      1.0000 0.55660  0.30440  0.86050  Biso   1.000  H
  C33      1.0000 0.21300  0.95740  0.71010  Biso   1.000  C
  C34      1.0000 0.28700  0.04260  0.21010  Biso   1.000  C
  C35      1.0000 0.71300  0.54260  0.28990  Biso   1.000  C
  C36      1.0000 0.78700  0.45740  0.78990  Biso   1.000  C
  H17      1.0000 0.10000  0.01790  0.71590  Biso   1.000  H
  H18      1.0000 0.40000  0.98210  0.21590  Biso   1.000  H
  H19      1.0000 0.60000  0.48210  0.28410  Biso   1.000  H
  H20      1.0000 0.90000  0.51790  0.78410  Biso   1.000  H
  H21      1.0000 0.32500  0.00260  0.68910  Biso   1.000  H
  H22      1.0000 0.17500  0.99740  0.18910  Biso   1.000  H
  H23      1.0000 0.82500  0.49740  0.31090  Biso   1.000  H
  H24      1.0000 0.67500  0.50260  0.81090  Biso   1.000  H
  H25      1.0000 0.25710  0.92510  0.75180  Biso   1.000  H
  H26      1.0000 0.24290  0.07490  0.25180  Biso   1.000  H
  H27      1.0000 0.75710  0.57490  0.24820  Biso   1.000  H
  H28      1.0000 0.74290  0.42510  0.74820  Biso   1.000  H
  C37      1.0000 0.95750  0.77130  0.69580  Biso   1.000  C
  C38      1.0000 0.54250  0.22870  0.19580  Biso   1.000  C
  C39      1.0000 0.45750  0.72870  0.30420  Biso   1.000  C
  C40      1.0000 0.04250  0.27130  0.80420  Biso   1.000  C
  H29      1.0000 0.92370  0.69510  0.66980  Biso   1.000  H
  H30      1.0000 0.57630  0.30490  0.16980  Biso   1.000  H
  H31      1.0000 0.42370  0.80490  0.33020  Biso   1.000  H
  H32      1.0000 0.07630  0.19510  0.83020  Biso   1.000  H
  H33      1.0000 0.84260  0.83130  0.69650  Biso   1.000  H
  H34      1.0000 0.65740  0.16870  0.19650  Biso   1.000  H
  H35      1.0000 0.34260  0.66870  0.30350  Biso   1.000  H
  H36      1.0000 0.15740  0.33130  0.80350  Biso   1.000  H
  H37      1.0000 0.98870  0.74350  0.73950  Biso   1.000  H
  H38      1.0000 0.51130  0.25650  0.23950  Biso   1.000  H
  H39      1.0000 0.48870  0.75650  0.26050  Biso   1.000  H
  H40      1.0000 0.01130  0.24350  0.76050  Biso   1.000  H
  C41      1.0000 0.21760  0.19240  0.56110  Biso   1.000  C
  C42      1.0000 0.28240  0.80760  0.06110  Biso   1.000  C
  C43      1.0000 0.71760  0.30760  0.43890  Biso   1.000  C
  C44      1.0000 0.78240  0.69240  0.93890  Biso   1.000  C
  H41      1.0000 0.20360  0.10350  0.57250  Biso   1.000  H
  H42      1.0000 0.29640  0.89650  0.07250  Biso   1.000  H
  H43      1.0000 0.70360  0.39650  0.42750  Biso   1.000  H
  H44      1.0000 0.79640  0.60350  0.92750  Biso   1.000  H
  C45      1.0000 0.39760  0.66340  0.71240  Biso   1.000  C
  C46      1.0000 0.10240  0.33660  0.21240  Biso   1.000  C
  C47      1.0000 0.89760  0.83660  0.28760  Biso   1.000  C
  C48      1.0000 0.60240  0.16340  0.78760  Biso   1.000  C
  H45      1.0000 0.54600  0.66790  0.71770  Biso   1.000  H
  H46      1.0000 0.95400  0.33210  0.21770  Biso   1.000  H
  H47      1.0000 0.04600  0.83210  0.28230  Biso   1.000  H
  H48      1.0000 0.45400  0.16790  0.78230  Biso   1.000  H
  H49      1.0000 0.33250  0.69120  0.75280  Biso   1.000  H
  H50      1.0000 0.16750  0.30880  0.25280  Biso   1.000  H
  H51      1.0000 0.83250  0.80880  0.24720  Biso   1.000  H
  H52      1.0000 0.66750  0.19120  0.74720  Biso   1.000  H
