data_image0
_cell_length_a       11.646
_cell_length_b       9.4326
_cell_length_c       25.249
_cell_angle_alpha    90
_cell_angle_beta     93.76
_cell_angle_gamma    90

_symmetry_space_group_name_H-M    "P 1"
_symmetry_int_tables_number       1

loop_
  _symmetry_equiv_pos_as_xyz
  'x, y, z'

loop_
  _atom_site_label
  _atom_site_occupancy
  _atom_site_fract_x
  _atom_site_fract_y
  _atom_site_fract_z
  _atom_site_thermal_displace_type
  _atom_site_B_iso_or_equiv
  _atom_site_type_symbol
  Cu1      1.0000 0.44368  0.84138  0.11357  Biso   1.000  Cu
  Cu2      1.0000 0.05632  0.34138  0.38643  Biso   1.000  Cu
  Cu3      1.0000 0.55632  0.15862  0.88643  Biso   1.000  Cu
  Cu4      1.0000 0.94368  0.65862  0.61357  Biso   1.000  Cu
  C1       1.0000 0.86500  0.90400  0.08610  Biso   1.000  C
  C2       1.0000 0.63500  0.40400  0.41390  Biso   1.000  C
  C3       1.0000 0.13500  0.09600  0.91390  Biso   1.000  C
  C4       1.0000 0.36500  0.59600  0.58610  Biso   1.000  C
  H1       1.0000 0.89260  0.80820  0.08950  Biso   1.000  H
  H2       1.0000 0.60740  0.30820  0.41050  Biso   1.000  H
  H3       1.0000 0.10740  0.19180  0.91050  Biso   1.000  H
  H4       1.0000 0.39260  0.69180  0.58950  Biso   1.000  H
  H5       1.0000 0.85930  0.93070  0.04940  Biso   1.000  H
  H6       1.0000 0.64070  0.43070  0.45060  Biso   1.000  H
  H7       1.0000 0.14070  0.06930  0.95060  Biso   1.000  H
  H8       1.0000 0.35930  0.56930  0.54940  Biso   1.000  H
  H9       1.0000 0.79060  0.91050  0.10020  Biso   1.000  H
  H10      1.0000 0.70940  0.41050  0.39980  Biso   1.000  H
  H11      1.0000 0.20940  0.08950  0.89980  Biso   1.000  H
  H12      1.0000 0.29060  0.58950  0.60020  Biso   1.000  H
  C5       1.0000 0.06160  0.99600  0.09220  Biso   1.000  C
  C6       1.0000 0.43840  0.49600  0.40780  Biso   1.000  C
  C7       1.0000 0.93840  0.00400  0.90780  Biso   1.000  C
  C8       1.0000 0.56160  0.50400  0.59220  Biso   1.000  C
  H13      1.0000 0.11720  0.04930  0.11380  Biso   1.000  H
  H14      1.0000 0.38280  0.54930  0.38620  Biso   1.000  H
  H15      1.0000 0.88280  0.95070  0.88620  Biso   1.000  H
  H16      1.0000 0.61720  0.45070  0.61380  Biso   1.000  H
  H17      1.0000 0.05420  0.03600  0.05720  Biso   1.000  H
  H18      1.0000 0.44580  0.53600  0.44280  Biso   1.000  H
  H19      1.0000 0.94580  0.96400  0.94280  Biso   1.000  H
  H20      1.0000 0.55420  0.46400  0.55720  Biso   1.000  H
  H21      1.0000 0.08650  0.89930  0.09020  Biso   1.000  H
  H22      1.0000 0.41350  0.39930  0.40980  Biso   1.000  H
  H23      1.0000 0.91350  0.10070  0.90980  Biso   1.000  H
  H24      1.0000 0.58650  0.60070  0.59020  Biso   1.000  H
  C9       1.0000 0.95750  0.95530  0.17449  Biso   1.000  C
  C10      1.0000 0.54250  0.45530  0.32551  Biso   1.000  C
  C11      1.0000 0.04250  0.04470  0.82551  Biso   1.000  C
  C12      1.0000 0.45750  0.54470  0.67449  Biso   1.000  C
  H25      1.0000 0.98050  0.85760  0.17670  Biso   1.000  H
  H26      1.0000 0.51950  0.35760  0.32330  Biso   1.000  H
  H27      1.0000 0.01950  0.14240  0.82330  Biso   1.000  H
  H28      1.0000 0.48050  0.64240  0.67670  Biso   1.000  H
  H29      1.0000 0.88440  0.96640  0.18950  Biso   1.000  H
  H30      1.0000 0.61560  0.46640  0.31050  Biso   1.000  H
  H31      1.0000 0.11560  0.03360  0.81050  Biso   1.000  H
  H32      1.0000 0.38440  0.53360  0.68950  Biso   1.000  H
  H33      1.0000 0.01400  0.01280  0.19380  Biso   1.000  H
  H34      1.0000 0.48600  0.51280  0.30620  Biso   1.000  H
  H35      1.0000 0.98600  0.98720  0.80620  Biso   1.000  H
  H36      1.0000 0.51400  0.48720  0.69380  Biso   1.000  H
  C13      1.0000 0.94721  0.00150  0.11647  Biso   1.000  C
  C14      1.0000 0.55279  0.50150  0.38353  Biso   1.000  C
  C15      1.0000 0.05279  0.99850  0.88353  Biso   1.000  C
  C16      1.0000 0.44721  0.49850  0.61647  Biso   1.000  C
  C17      1.0000 0.90760  0.15661  0.11426  Biso   1.000  C
  C18      1.0000 0.59240  0.65661  0.38574  Biso   1.000  C
  C19      1.0000 0.09240  0.84339  0.88574  Biso   1.000  C
  C20      1.0000 0.40760  0.34339  0.61426  Biso   1.000  C
  C21      1.0000 0.96560  0.25960  0.14545  Biso   1.000  C
  C22      1.0000 0.53440  0.75960  0.35455  Biso   1.000  C
  C23      1.0000 0.03440  0.74040  0.85455  Biso   1.000  C
  C24      1.0000 0.46560  0.24040  0.64545  Biso   1.000  C
  H37      1.0000 0.02530  0.23190  0.16950  Biso   1.000  H
  H38      1.0000 0.47470  0.73190  0.33050  Biso   1.000  H
  H39      1.0000 0.97470  0.76810  0.83050  Biso   1.000  H
  H40      1.0000 0.52530  0.26810  0.66950  Biso   1.000  H
  C25      1.0000 0.93667  0.40180  0.14164  Biso   1.000  C
  C26      1.0000 0.56333  0.90180  0.35836  Biso   1.000  C
  C27      1.0000 0.06333  0.59820  0.85836  Biso   1.000  C
  C28      1.0000 0.43667  0.09820  0.64164  Biso   1.000  C
  C29      1.0000 0.84604  0.44180  0.10611  Biso   1.000  C
  C30      1.0000 0.65396  0.94180  0.39389  Biso   1.000  C
  C31      1.0000 0.15396  0.55820  0.89389  Biso   1.000  C
  C32      1.0000 0.34604  0.05820  0.60611  Biso   1.000  C
  H41      1.0000 0.82620  0.53710  0.10300  Biso   1.000  H
  H42      1.0000 0.67380  0.03710  0.39700  Biso   1.000  H
  H43      1.0000 0.17380  0.46290  0.89700  Biso   1.000  H
  H44      1.0000 0.32620  0.96290  0.60300  Biso   1.000  H
  C33      1.0000 0.78504  0.34317  0.07537  Biso   1.000  C
  C34      1.0000 0.71496  0.84317  0.42463  Biso   1.000  C
  C35      1.0000 0.21496  0.65683  0.92463  Biso   1.000  C
  C36      1.0000 0.28504  0.15683  0.57537  Biso   1.000  C
  C37      1.0000 0.81754  0.20090  0.07991  Biso   1.000  C
  C38      1.0000 0.68246  0.70090  0.42009  Biso   1.000  C
  C39      1.0000 0.18246  0.79910  0.92009  Biso   1.000  C
  C40      1.0000 0.31754  0.29910  0.57991  Biso   1.000  C
  H45      1.0000 0.77720  0.13380  0.05910  Biso   1.000  H
  H46      1.0000 0.72280  0.63380  0.44090  Biso   1.000  H
  H47      1.0000 0.22280  0.86620  0.94090  Biso   1.000  H
  H48      1.0000 0.27720  0.36620  0.55910  Biso   1.000  H
  C41      1.0000 0.68382  0.38220  0.03695  Biso   1.000  C
  C42      1.0000 0.81618  0.88220  0.46305  Biso   1.000  C
  C43      1.0000 0.31618  0.61780  0.96305  Biso   1.000  C
  C44      1.0000 0.18382  0.11780  0.53695  Biso   1.000  C
  H49      1.0000 0.70750  0.37120  0.00110  Biso   1.000  H
  H50      1.0000 0.79250  0.87120  0.49890  Biso   1.000  H
  H51      1.0000 0.29250  0.62880  0.99890  Biso   1.000  H
  H52      1.0000 0.20750  0.12880  0.50110  Biso   1.000  H
  H53      1.0000 0.62220  0.31500  0.04150  Biso   1.000  H
  H54      1.0000 0.87780  0.81500  0.45850  Biso   1.000  H
  H55      1.0000 0.37780  0.68500  0.95850  Biso   1.000  H
  H56      1.0000 0.12220  0.18500  0.54150  Biso   1.000  H
  C45      1.0000 0.63639  0.52930  0.04247  Biso   1.000  C
  C46      1.0000 0.86361  0.02930  0.45753  Biso   1.000  C
  C47      1.0000 0.36361  0.47070  0.95753  Biso   1.000  C
  C48      1.0000 0.13639  0.97070  0.54247  Biso   1.000  C
  C49      1.0000 0.64797  0.64300  0.00864  Biso   1.000  C
  C50      1.0000 0.85203  0.14300  0.49136  Biso   1.000  C
  C51      1.0000 0.35203  0.35700  0.99136  Biso   1.000  C
  C52      1.0000 0.14797  0.85700  0.50864  Biso   1.000  C
  C53      1.0000 0.84160  0.64070  0.96985  Biso   1.000  C
  C54      1.0000 0.65840  0.14070  0.53015  Biso   1.000  C
  C55      1.0000 0.15840  0.35930  0.03015  Biso   1.000  C
  C56      1.0000 0.34160  0.85930  0.46985  Biso   1.000  C
  H57      1.0000 0.87130  0.71340  0.99360  Biso   1.000  H
  H58      1.0000 0.62870  0.21340  0.50640  Biso   1.000  H
  H59      1.0000 0.12870  0.28660  0.00640  Biso   1.000  H
  H60      1.0000 0.37130  0.78660  0.49360  Biso   1.000  H
  H61      1.0000 0.87750  0.64780  0.93680  Biso   1.000  H
  H62      1.0000 0.62250  0.14780  0.56320  Biso   1.000  H
  H63      1.0000 0.12250  0.35220  0.06320  Biso   1.000  H
  H64      1.0000 0.37750  0.85220  0.43680  Biso   1.000  H
  H65      1.0000 0.85780  0.54940  0.98540  Biso   1.000  H
  H66      1.0000 0.64220  0.04940  0.51460  Biso   1.000  H
  H67      1.0000 0.14220  0.45060  0.01460  Biso   1.000  H
  H68      1.0000 0.35780  0.95060  0.48540  Biso   1.000  H
  C57      1.0000 0.71400  0.65860  0.96019  Biso   1.000  C
  C58      1.0000 0.78600  0.15860  0.53981  Biso   1.000  C
  C59      1.0000 0.28600  0.34140  0.03981  Biso   1.000  C
  C60      1.0000 0.21400  0.84140  0.46019  Biso   1.000  C
  H69      1.0000 0.69880  0.75180  0.94510  Biso   1.000  H
  H70      1.0000 0.80120  0.25180  0.55490  Biso   1.000  H
  H71      1.0000 0.30120  0.24820  0.05490  Biso   1.000  H
  H72      1.0000 0.19880  0.74820  0.44510  Biso   1.000  H
  H73      1.0000 0.68600  0.58900  0.93420  Biso   1.000  H
  H74      1.0000 0.81400  0.08900  0.56580  Biso   1.000  H
  H75      1.0000 0.31400  0.41100  0.06580  Biso   1.000  H
  H76      1.0000 0.18600  0.91100  0.43420  Biso   1.000  H
  C61      1.0000 0.56854  0.57830  0.08209  Biso   1.000  C
  C62      1.0000 0.93146  0.07830  0.41791  Biso   1.000  C
  C63      1.0000 0.43146  0.42170  0.91791  Biso   1.000  C
  C64      1.0000 0.06854  0.92170  0.58209  Biso   1.000  C
  C65      1.0000 0.53380  0.49990  0.12989  Biso   1.000  C
  C66      1.0000 0.96620  0.99990  0.37011  Biso   1.000  C
  C67      1.0000 0.46620  0.50010  0.87011  Biso   1.000  C
  C68      1.0000 0.03380  0.00010  0.62989  Biso   1.000  C
  H77      1.0000 0.54820  0.39950  0.12510  Biso   1.000  H
  H78      1.0000 0.95180  0.89950  0.37490  Biso   1.000  H
  H79      1.0000 0.45180  0.60050  0.87490  Biso   1.000  H
  H80      1.0000 0.04820  0.10050  0.62510  Biso   1.000  H
  H81      1.0000 0.45170  0.51210  0.13280  Biso   1.000  H
  H82      1.0000 0.04830  0.01210  0.36720  Biso   1.000  H
  H83      1.0000 0.54830  0.48790  0.86720  Biso   1.000  H
  H84      1.0000 0.95170  0.98790  0.63280  Biso   1.000  H
  C69      1.0000 0.59650  0.54820  0.18080  Biso   1.000  C
  C70      1.0000 0.90350  0.04820  0.31920  Biso   1.000  C
  C71      1.0000 0.40350  0.45180  0.81920  Biso   1.000  C
  C72      1.0000 0.09650  0.95180  0.68080  Biso   1.000  C
  H85      1.0000 0.67770  0.53380  0.17870  Biso   1.000  H
  H86      1.0000 0.82230  0.03380  0.32130  Biso   1.000  H
  H87      1.0000 0.32230  0.46620  0.82130  Biso   1.000  H
  H88      1.0000 0.17770  0.96620  0.67870  Biso   1.000  H
  H89      1.0000 0.57020  0.49450  0.21000  Biso   1.000  H
  H90      1.0000 0.92980  0.99450  0.29000  Biso   1.000  H
  H91      1.0000 0.42980  0.50550  0.79000  Biso   1.000  H
  H92      1.0000 0.07020  0.00550  0.71000  Biso   1.000  H
  H93      1.0000 0.58160  0.64700  0.18620  Biso   1.000  H
  H94      1.0000 0.91840  0.14700  0.31380  Biso   1.000  H
  H95      1.0000 0.41840  0.35300  0.81380  Biso   1.000  H
  H96      1.0000 0.08160  0.85300  0.68620  Biso   1.000  H
  C73      1.0000 0.00429  0.51590  0.17339  Biso   1.000  C
  C74      1.0000 0.49571  0.01590  0.32661  Biso   1.000  C
  C75      1.0000 0.99571  0.48410  0.82661  Biso   1.000  C
  C76      1.0000 0.50429  0.98410  0.67339  Biso   1.000  C
  H97      1.0000 0.06520  0.55030  0.15240  Biso   1.000  H
  H98      1.0000 0.43480  0.05030  0.34760  Biso   1.000  H
  H99      1.0000 0.93480  0.44970  0.84760  Biso   1.000  H
  H100     1.0000 0.56520  0.94970  0.65240  Biso   1.000  H
  H101     1.0000 0.95320  0.59490  0.17910  Biso   1.000  H
  H102     1.0000 0.54680  0.09490  0.32090  Biso   1.000  H
  H103     1.0000 0.04680  0.40510  0.82090  Biso   1.000  H
  H104     1.0000 0.45320  0.90510  0.67910  Biso   1.000  H
  C77      1.0000 0.05645  0.46767  0.22601  Biso   1.000  C
  C78      1.0000 0.44355  0.96767  0.27399  Biso   1.000  C
  C79      1.0000 0.94355  0.53233  0.77399  Biso   1.000  C
  C80      1.0000 0.55645  0.03233  0.72601  Biso   1.000  C
  C81      1.0000 0.16776  0.42170  0.23784  Biso   1.000  C
  C82      1.0000 0.33224  0.92170  0.26216  Biso   1.000  C
  C83      1.0000 0.83224  0.57830  0.76216  Biso   1.000  C
  C84      1.0000 0.66776  0.07830  0.73784  Biso   1.000  C
  C85      1.0000 0.26809  0.40900  0.20460  Biso   1.000  C
  C86      1.0000 0.23191  0.90900  0.29540  Biso   1.000  C
  C87      1.0000 0.73191  0.59100  0.79540  Biso   1.000  C
  C88      1.0000 0.76809  0.09100  0.70460  Biso   1.000  C
  H105     1.0000 0.24660  0.44790  0.16980  Biso   1.000  H
  H106     1.0000 0.25340  0.94790  0.33020  Biso   1.000  H
  H107     1.0000 0.75340  0.55210  0.83020  Biso   1.000  H
  H108     1.0000 0.74660  0.05210  0.66980  Biso   1.000  H
  H109     1.0000 0.33020  0.46680  0.22040  Biso   1.000  H
  H110     1.0000 0.16980  0.96680  0.27960  Biso   1.000  H
  H111     1.0000 0.66980  0.53320  0.77960  Biso   1.000  H
  H112     1.0000 0.83020  0.03320  0.72040  Biso   1.000  H
  C89      1.0000 0.31130  0.26520  0.19787  Biso   1.000  C
  C90      1.0000 0.18870  0.76520  0.30213  Biso   1.000  C
  C91      1.0000 0.68870  0.73480  0.80213  Biso   1.000  C
  C92      1.0000 0.81130  0.23480  0.69787  Biso   1.000  C
  H113     1.0000 0.33290  0.22500  0.23200  Biso   1.000  H
  H114     1.0000 0.16710  0.72500  0.26800  Biso   1.000  H
  H115     1.0000 0.66710  0.77500  0.76800  Biso   1.000  H
  H116     1.0000 0.83290  0.27500  0.73200  Biso   1.000  H
  H117     1.0000 0.37720  0.26790  0.17690  Biso   1.000  H
  H118     1.0000 0.12280  0.76790  0.32310  Biso   1.000  H
  H119     1.0000 0.62280  0.73210  0.82310  Biso   1.000  H
  H120     1.0000 0.87720  0.23210  0.67690  Biso   1.000  H
  H121     1.0000 0.25230  0.20800  0.18020  Biso   1.000  H
  H122     1.0000 0.24770  0.70800  0.31980  Biso   1.000  H
  H123     1.0000 0.74770  0.79200  0.81980  Biso   1.000  H
  H124     1.0000 0.75230  0.29200  0.68020  Biso   1.000  H
  C93      1.0000 0.00036  0.45470  0.27326  Biso   1.000  C
  C94      1.0000 0.49964  0.95470  0.22674  Biso   1.000  C
  C95      1.0000 0.99964  0.54530  0.72674  Biso   1.000  C
  C96      1.0000 0.50036  0.04530  0.77326  Biso   1.000  C
  C97      1.0000 0.87871  0.48790  0.28322  Biso   1.000  C
  C98      1.0000 0.62129  0.98790  0.21678  Biso   1.000  C
  C99      1.0000 0.12129  0.51210  0.71678  Biso   1.000  C
  C100     1.0000 0.37871  0.01210  0.78322  Biso   1.000  C
  H125     1.0000 0.85960  0.44150  0.31580  Biso   1.000  H
  H126     1.0000 0.64040  0.94150  0.18420  Biso   1.000  H
  H127     1.0000 0.14040  0.55850  0.68420  Biso   1.000  H
  H128     1.0000 0.35960  0.05850  0.81580  Biso   1.000  H
  H129     1.0000 0.82900  0.44890  0.25450  Biso   1.000  H
  H130     1.0000 0.67100  0.94890  0.24550  Biso   1.000  H
  H131     1.0000 0.17100  0.55110  0.74550  Biso   1.000  H
  H132     1.0000 0.32900  0.05110  0.75450  Biso   1.000  H
  C101     1.0000 0.85410  0.64580  0.28782  Biso   1.000  C
  C102     1.0000 0.64590  0.14580  0.21218  Biso   1.000  C
  C103     1.0000 0.14590  0.35420  0.71218  Biso   1.000  C
  C104     1.0000 0.35410  0.85420  0.78782  Biso   1.000  C
  H133     1.0000 0.89810  0.68390  0.31800  Biso   1.000  H
  H134     1.0000 0.60190  0.18390  0.18200  Biso   1.000  H
  H135     1.0000 0.10190  0.31610  0.68200  Biso   1.000  H
  H136     1.0000 0.39810  0.81610  0.81800  Biso   1.000  H
  H137     1.0000 0.77360  0.65970  0.29210  Biso   1.000  H
  H138     1.0000 0.72640  0.15970  0.20790  Biso   1.000  H
  H139     1.0000 0.22640  0.34030  0.70790  Biso   1.000  H
  H140     1.0000 0.27360  0.84030  0.79210  Biso   1.000  H
  H141     1.0000 0.87500  0.69320  0.25620  Biso   1.000  H
  H142     1.0000 0.62500  0.19320  0.24380  Biso   1.000  H
  H143     1.0000 0.12500  0.30680  0.74380  Biso   1.000  H
  H144     1.0000 0.37500  0.80680  0.75620  Biso   1.000  H
  Cl1      1.0000 0.27876  0.71481  0.10889  Biso   1.000  Cl
  Cl2      1.0000 0.22124  0.21481  0.39111  Biso   1.000  Cl
  Cl3      1.0000 0.72124  0.28519  0.89111  Biso   1.000  Cl
  Cl4      1.0000 0.77876  0.78519  0.60889  Biso   1.000  Cl
  Cl5      1.0000 0.50468  0.04293  0.07856  Biso   1.000  Cl
  Cl6      1.0000 0.99532  0.54293  0.42144  Biso   1.000  Cl
  Cl7      1.0000 0.49532  0.95707  0.92144  Biso   1.000  Cl
  Cl8      1.0000 0.00468  0.45707  0.57856  Biso   1.000  Cl
  N1       1.0000 0.53859  0.71367  0.07336  Biso   1.000  N
  N2       1.0000 0.96141  0.21367  0.42664  Biso   1.000  N
  N3       1.0000 0.46141  0.28633  0.92664  Biso   1.000  N
  N4       1.0000 0.03859  0.78633  0.57336  Biso   1.000  N
  N5       1.0000 0.58867  0.75065  0.02855  Biso   1.000  N
  N6       1.0000 0.91133  0.25065  0.47145  Biso   1.000  N
  N7       1.0000 0.41133  0.24935  0.97145  Biso   1.000  N
  N8       1.0000 0.08867  0.74935  0.52855  Biso   1.000  N
  H145     1.0000 0.58320  0.83350  0.01440  Biso   1.000  H
  H146     1.0000 0.91680  0.33350  0.48560  Biso   1.000  H
  H147     1.0000 0.41680  0.16650  0.98560  Biso   1.000  H
  H148     1.0000 0.08320  0.66650  0.51440  Biso   1.000  H
  N9       1.0000 0.07292  0.40342  0.31218  Biso   1.000  N
  N10      1.0000 0.42708  0.90342  0.18782  Biso   1.000  N
  N11      1.0000 0.92708  0.59658  0.68782  Biso   1.000  N
  N12      1.0000 0.57292  0.09658  0.81218  Biso   1.000  N
  N13      1.0000 0.17460  0.38450  0.28959  Biso   1.000  N
  N14      1.0000 0.32540  0.88450  0.21041  Biso   1.000  N
  N15      1.0000 0.82540  0.61550  0.71041  Biso   1.000  N
  N16      1.0000 0.67460  0.11550  0.78959  Biso   1.000  N
  H149     1.0000 0.23600  0.35260  0.30630  Biso   1.000  H
  H150     1.0000 0.26400  0.85260  0.19370  Biso   1.000  H
  H151     1.0000 0.76400  0.64740  0.69370  Biso   1.000  H
  H152     1.0000 0.73600  0.14740  0.80630  Biso   1.000  H
  C105     1.0000 0.84280  0.89950  0.10890  Biso   1.000  C
  C106     1.0000 0.65720  0.39950  0.39110  Biso   1.000  C
  C107     1.0000 0.15720  0.10050  0.89110  Biso   1.000  C
  C108     1.0000 0.34280  0.60050  0.60890  Biso   1.000  C
  C109     1.0000 0.01200  0.97100  0.06740  Biso   1.000  C
  C110     1.0000 0.48800  0.47100  0.43260  Biso   1.000  C
  C111     1.0000 0.98800  0.02900  0.93260  Biso   1.000  C
  C112     1.0000 0.51200  0.52900  0.56740  Biso   1.000  C
  C113     1.0000 0.02690  0.96210  0.16540  Biso   1.000  C
  C114     1.0000 0.47310  0.46210  0.33460  Biso   1.000  C
  C115     1.0000 0.97310  0.03790  0.83460  Biso   1.000  C
  C116     1.0000 0.52690  0.53790  0.66540  Biso   1.000  C
  H153     1.0000 0.79210  0.93210  0.07990  Biso   1.000  H
  H154     1.0000 0.70790  0.43210  0.42010  Biso   1.000  H
  H155     1.0000 0.20790  0.06790  0.92010  Biso   1.000  H
  H156     1.0000 0.29210  0.56790  0.57990  Biso   1.000  H
  H157     1.0000 0.80230  0.89740  0.14080  Biso   1.000  H
  H158     1.0000 0.69770  0.39740  0.35920  Biso   1.000  H
  H159     1.0000 0.19770  0.10260  0.85920  Biso   1.000  H
  H160     1.0000 0.30230  0.60260  0.64080  Biso   1.000  H
  H161     1.0000 0.86950  0.80590  0.10130  Biso   1.000  H
  H162     1.0000 0.63050  0.30590  0.39870  Biso   1.000  H
  H163     1.0000 0.13050  0.19410  0.89870  Biso   1.000  H
  H164     1.0000 0.36950  0.69410  0.60130  Biso   1.000  H
  H165     1.0000 0.02840  0.87140  0.06560  Biso   1.000  H
  H166     1.0000 0.47160  0.37140  0.43440  Biso   1.000  H
  H167     1.0000 0.97160  0.12860  0.93440  Biso   1.000  H
  H168     1.0000 0.52840  0.62860  0.56560  Biso   1.000  H
  H169     1.0000 0.08280  0.02340  0.06920  Biso   1.000  H
  H170     1.0000 0.41720  0.52340  0.43080  Biso   1.000  H
  H171     1.0000 0.91720  0.97660  0.93080  Biso   1.000  H
  H172     1.0000 0.58280  0.47660  0.56920  Biso   1.000  H
  H173     1.0000 0.96570  0.99890  0.03630  Biso   1.000  H
  H174     1.0000 0.53430  0.49890  0.46370  Biso   1.000  H
  H175     1.0000 0.03430  0.00110  0.96370  Biso   1.000  H
  H176     1.0000 0.46570  0.50110  0.53630  Biso   1.000  H
  H177     1.0000 0.04330  0.86240  0.16480  Biso   1.000  H
  H178     1.0000 0.45670  0.36240  0.33520  Biso   1.000  H
  H179     1.0000 0.95670  0.13760  0.83520  Biso   1.000  H
  H180     1.0000 0.54330  0.63760  0.66480  Biso   1.000  H
  H181     1.0000 0.98960  0.98490  0.19710  Biso   1.000  H
  H182     1.0000 0.51040  0.48490  0.30290  Biso   1.000  H
  H183     1.0000 0.01040  0.01510  0.80290  Biso   1.000  H
  H184     1.0000 0.48960  0.51510  0.69710  Biso   1.000  H
  H185     1.0000 0.09750  0.01460  0.16480  Biso   1.000  H
  H186     1.0000 0.40250  0.51460  0.33520  Biso   1.000  H
  H187     1.0000 0.90250  0.98540  0.83520  Biso   1.000  H
  H188     1.0000 0.59750  0.48540  0.66480  Biso   1.000  H
