data_image0
_cell_length_a       8.333
_cell_length_b       8.703
_cell_length_c       13.896
_cell_angle_alpha    91.428
_cell_angle_beta     100.987
_cell_angle_gamma    92.666

_symmetry_space_group_name_H-M    "P 1"
_symmetry_int_tables_number       1

loop_
  _symmetry_equiv_pos_as_xyz
  'x, y, z'

loop_
  _atom_site_label
  _atom_site_occupancy
  _atom_site_fract_x
  _atom_site_fract_y
  _atom_site_fract_z
  _atom_site_thermal_displace_type
  _atom_site_B_iso_or_equiv
  _atom_site_type_symbol
  Cu1      1.0000 0.50000  0.00000  0.50000  Biso   1.000  Cu
  Cu2      1.0000 0.50000  0.00000  0.00000  Biso   1.000  Cu
  N1       1.0000 0.26680  0.91580  0.48130  Biso   1.000  N
  N2       1.0000 0.73320  0.08420  0.51870  Biso   1.000  N
  N3       1.0000 0.20690  0.83500  0.54850  Biso   1.000  N
  N4       1.0000 0.79310  0.16500  0.45150  Biso   1.000  N
  H1       1.0000 0.26110  0.81820  0.60610  Biso   1.000  H
  H2       1.0000 0.73890  0.18180  0.39390  Biso   1.000  H
  N5       1.0000 0.56060  0.79810  0.44650  Biso   1.000  N
  N6       1.0000 0.43940  0.20190  0.55350  Biso   1.000  N
  N7       1.0000 0.64030  0.69060  0.49980  Biso   1.000  N
  N8       1.0000 0.35970  0.30940  0.50020  Biso   1.000  N
  H3       1.0000 0.67740  0.69970  0.56190  Biso   1.000  H
  H4       1.0000 0.32260  0.30030  0.43810  Biso   1.000  H
  N9       1.0000 0.40550  0.78120  0.00010  Biso   1.000  N
  N10      1.0000 0.59450  0.21880  0.99990  Biso   1.000  N
  N11      1.0000 0.33230  0.69060  0.92410  Biso   1.000  N
  N12      1.0000 0.66770  0.30940  0.07590  Biso   1.000  N
  H5       1.0000 0.31970  0.71660  0.86390  Biso   1.000  H
  H6       1.0000 0.68030  0.28340  0.13610  Biso   1.000  H
  N13      1.0000 0.27480  0.07430  0.95160  Biso   1.000  N
  N14      1.0000 0.72520  0.92570  0.04840  Biso   1.000  N
  N15      1.0000 0.19440  0.15070  0.01080  Biso   1.000  N
  N16      1.0000 0.80560  0.84930  0.98920  Biso   1.000  N
  H7       1.0000 0.23320  0.17430  0.07140  Biso   1.000  H
  H8       1.0000 0.76680  0.82570  0.92860  Biso   1.000  H
  S1       1.0000 0.46623  0.14521  0.24396  Biso   1.000  S
  S2       1.0000 0.53377  0.85479  0.75604  Biso   1.000  S
  O1       1.0000 0.63110  0.22340  0.26190  Biso   1.000  O
  O2       1.0000 0.36890  0.77660  0.73810  Biso   1.000  O
  O3       1.0000 0.34430  0.25540  0.20070  Biso   1.000  O
  O4       1.0000 0.65570  0.74460  0.79930  Biso   1.000  O
  O5       1.0000 0.43200  0.09360  0.33720  Biso   1.000  O
  O6       1.0000 0.56800  0.90640  0.66280  Biso   1.000  O
  O7       1.0000 0.46000  0.01700  0.17280  Biso   1.000  O
  O8       1.0000 0.54000  0.98300  0.82720  Biso   1.000  O
  C1       1.0000 0.14560  0.91590  0.40400  Biso   1.000  C
  C2       1.0000 0.85440  0.08410  0.59600  Biso   1.000  C
  H9       1.0000 0.15160  0.96480  0.34600  Biso   1.000  H
  H10      1.0000 0.84840  0.03520  0.65400  Biso   1.000  H
  C3       1.0000 0.00990  0.83360  0.42150  Biso   1.000  C
  C4       1.0000 0.99010  0.16640  0.57850  Biso   1.000  C
  H11      1.0000 0.91000  0.81560  0.37870  Biso   1.000  H
  H12      1.0000 0.09000  0.18440  0.62130  Biso   1.000  H
  C5       1.0000 0.05230  0.78380  0.51460  Biso   1.000  C
  C6       1.0000 0.94770  0.21620  0.48540  Biso   1.000  C
  H13      1.0000 0.98620  0.72530  0.54820  Biso   1.000  H
  H14      1.0000 0.01380  0.27470  0.45180  Biso   1.000  H
  C7       1.0000 0.52520  0.74010  0.35630  Biso   1.000  C
  C8       1.0000 0.47480  0.25990  0.64370  Biso   1.000  C
  H15      1.0000 0.46990  0.79060  0.30270  Biso   1.000  H
  H16      1.0000 0.53010  0.20940  0.69730  Biso   1.000  H
  C9       1.0000 0.58170  0.59370  0.35210  Biso   1.000  C
  C10      1.0000 0.41830  0.40630  0.64790  Biso   1.000  C
  H17      1.0000 0.57080  0.52830  0.29700  Biso   1.000  H
  H18      1.0000 0.42920  0.47170  0.70300  Biso   1.000  H
  C11      1.0000 0.65530  0.56550  0.44380  Biso   1.000  C
  C12      1.0000 0.34470  0.43450  0.55620  Biso   1.000  C
  H19      1.0000 0.70690  0.47650  0.46480  Biso   1.000  H
  H20      1.0000 0.29310  0.52350  0.53520  Biso   1.000  H
  C13      1.0000 0.39630  0.69950  0.07810  Biso   1.000  C
  C14      1.0000 0.60370  0.30050  0.92190  Biso   1.000  C
  H21      1.0000 0.43610  0.73480  0.14230  Biso   1.000  H
  H22      1.0000 0.56390  0.26520  0.85770  Biso   1.000  H
  C15      1.0000 0.32100  0.55640  0.05310  Biso   1.000  C
  C16      1.0000 0.67900  0.44360  0.94690  Biso   1.000  C
  H23      1.0000 0.30170  0.47890  0.09490  Biso   1.000  H
  H24      1.0000 0.69830  0.52110  0.90510  Biso   1.000  H
  C17      1.0000 0.28060  0.55360  0.95270  Biso   1.000  C
  C18      1.0000 0.71940  0.44640  0.04730  Biso   1.000  C
  H25      1.0000 0.22760  0.47260  0.91220  Biso   1.000  H
  H26      1.0000 0.77240  0.52740  0.08780  Biso   1.000  H
  C19      1.0000 0.17310  0.06050  0.86560  Biso   1.000  C
  C20      1.0000 0.82690  0.93950  0.13440  Biso   1.000  C
  H27      1.0000 0.19530  0.01090  0.81000  Biso   1.000  H
  H28      1.0000 0.80470  0.98910  0.19000  Biso   1.000  H
  C21      1.0000 0.02830  0.13090  0.87080  Biso   1.000  C
  C22      1.0000 0.97170  0.86910  0.12920  Biso   1.000  C
  H29      1.0000 0.93800  0.13880  0.82060  Biso   1.000  H
  H30      1.0000 0.06200  0.86120  0.17940  Biso   1.000  H
  C23      1.0000 0.04710  0.18520  0.96390  Biso   1.000  C
  C24      1.0000 0.95290  0.81480  0.03610  Biso   1.000  C
  H31      1.0000 0.97040  0.23770  0.99070  Biso   1.000  H
  H32      1.0000 0.02960  0.76230  0.00930  Biso   1.000  H
  C25      1.0000 0.93670  0.52320  0.72480  Biso   1.000  C
  C26      1.0000 0.06330  0.47680  0.27520  Biso   1.000  C
  H33      1.0000 0.01580  0.55070  0.78310  Biso   1.000  H
  H34      1.0000 0.98420  0.44930  0.21690  Biso   1.000  H
  H35      1.0000 0.99030  0.47710  0.67690  Biso   1.000  H
  H36      1.0000 0.00970  0.52290  0.32310  Biso   1.000  H
  H37      1.0000 0.85540  0.45120  0.74040  Biso   1.000  H
  H38      1.0000 0.14460  0.54880  0.25960  Biso   1.000  H
  O9       1.0000 0.85350  0.65010  0.68600  Biso   1.000  O
  O10      1.0000 0.14650  0.34990  0.31400  Biso   1.000  O
  H39      1.0000 0.92120  0.72290  0.69350  Biso   1.000  H
  H40      1.0000 0.07880  0.27710  0.30650  Biso   1.000  H
