data_image0
_cell_length_a       8.93
_cell_length_b       12.95
_cell_length_c       14.98
_cell_angle_alpha    92
_cell_angle_beta     106.5
_cell_angle_gamma    93.84

_symmetry_space_group_name_H-M    "P 1"
_symmetry_int_tables_number       1

loop_
  _symmetry_equiv_pos_as_xyz
  'x, y, z'

loop_
  _atom_site_label
  _atom_site_occupancy
  _atom_site_fract_x
  _atom_site_fract_y
  _atom_site_fract_z
  _atom_site_thermal_displace_type
  _atom_site_B_iso_or_equiv
  _atom_site_type_symbol
  Cu1      1.0000 0.50000  0.00000  0.00000  Biso   1.000  Cu
  Cu2      1.0000 0.00000  0.50000  0.00000  Biso   1.000  Cu
  Cl1      1.0000 0.65170  0.93550  0.12960  Biso   1.000  Cl
  Cl2      1.0000 0.34830  0.06450  0.87040  Biso   1.000  Cl
  Cl3      1.0000 0.13030  0.37270  0.07750  Biso   1.000  Cl
  Cl4      1.0000 0.86970  0.62730  0.92250  Biso   1.000  Cl
  N1       1.0000 0.13200  0.68990  0.26760  Biso   1.000  N
  N2       1.0000 0.86800  0.31010  0.73240  Biso   1.000  N
  N3       1.0000 0.31590  0.98060  0.04900  Biso   1.000  N
  N4       1.0000 0.68410  0.01940  0.95100  Biso   1.000  N
  N5       1.0000 0.79680  0.42750  0.00130  Biso   1.000  N
  N6       1.0000 0.20320  0.57250  0.99870  Biso   1.000  N
  C1       1.0000 0.52240  0.43450  0.33380  Biso   1.000  C
  C2       1.0000 0.47760  0.56550  0.66620  Biso   1.000  C
  C3       1.0000 0.46620  0.33140  0.30800  Biso   1.000  C
  C4       1.0000 0.53380  0.66860  0.69200  Biso   1.000  C
  C5       1.0000 0.55190  0.26660  0.26830  Biso   1.000  C
  C6       1.0000 0.44810  0.73340  0.73170  Biso   1.000  C
  C7       1.0000 0.69090  0.30580  0.25130  Biso   1.000  C
  C8       1.0000 0.30910  0.69420  0.74870  Biso   1.000  C
  C9       1.0000 0.74280  0.41070  0.27290  Biso   1.000  C
  C10      1.0000 0.25720  0.58930  0.72710  Biso   1.000  C
  C11      1.0000 0.66070  0.47470  0.31620  Biso   1.000  C
  C12      1.0000 0.33930  0.52530  0.68380  Biso   1.000  C
  C13      1.0000 0.31440  0.28840  0.32420  Biso   1.000  C
  C14      1.0000 0.68560  0.71160  0.67580  Biso   1.000  C
  C15      1.0000 0.34160  0.23490  0.41580  Biso   1.000  C
  C16      1.0000 0.65840  0.76510  0.58420  Biso   1.000  C
  C17      1.0000 0.78600  0.23330  0.21290  Biso   1.000  C
  C18      1.0000 0.21400  0.76670  0.78710  Biso   1.000  C
  C19      1.0000 0.90420  0.18560  0.29090  Biso   1.000  C
  C20      1.0000 0.09580  0.81440  0.70910  Biso   1.000  C
  C21      1.0000 0.72340  0.58540  0.34770  Biso   1.000  C
  C22      1.0000 0.27660  0.41460  0.65230  Biso   1.000  C
  C23      1.0000 0.83840  0.59310  0.44550  Biso   1.000  C
  C24      1.0000 0.16160  0.40690  0.55450  Biso   1.000  C
  C25      1.0000 0.43070  0.50550  0.37630  Biso   1.000  C
  C26      1.0000 0.56930  0.49450  0.62370  Biso   1.000  C
  C27      1.0000 0.31810  0.56230  0.30200  Biso   1.000  C
  C28      1.0000 0.68190  0.43770  0.69800  Biso   1.000  C
  C29      1.0000 0.23400  0.64470  0.33590  Biso   1.000  C
  C30      1.0000 0.76600  0.35530  0.66410  Biso   1.000  C
  C31      1.0000 0.25870  0.67370  0.42910  Biso   1.000  C
  C32      1.0000 0.74130  0.32630  0.57090  Biso   1.000  C
  C33      1.0000 0.18320  0.75390  0.45320  Biso   1.000  C
  C34      1.0000 0.81680  0.24610  0.54680  Biso   1.000  C
  C35      1.0000 0.07980  0.80140  0.38350  Biso   1.000  C
  C36      1.0000 0.92020  0.19860  0.61650  Biso   1.000  C
  C37      1.0000 0.05730  0.76620  0.29290  Biso   1.000  C
  C38      1.0000 0.94270  0.23380  0.70710  Biso   1.000  C
  C39      1.0000 0.48710  0.15630  0.23680  Biso   1.000  C
  C40      1.0000 0.51290  0.84370  0.76320  Biso   1.000  C
  C41      1.0000 0.38540  0.15010  0.13410  Biso   1.000  C
  C42      1.0000 0.61460  0.84990  0.86590  Biso   1.000  C
  C43      1.0000 0.28170  0.05150  0.10600  Biso   1.000  C
  C44      1.0000 0.71830  0.94850  0.89400  Biso   1.000  C
  C45      1.0000 0.15140  0.03380  0.13780  Biso   1.000  C
  C46      1.0000 0.84860  0.96620  0.86220  Biso   1.000  C
  C47      1.0000 0.05510  0.94330  0.11140  Biso   1.000  C
  C48      1.0000 0.94490  0.05670  0.88860  Biso   1.000  C
  C49      1.0000 0.09200  0.87110  0.05340  Biso   1.000  C
  C50      1.0000 0.90800  0.12890  0.94660  Biso   1.000  C
  C51      1.0000 0.22180  0.89240  0.02390  Biso   1.000  C
  C52      1.0000 0.77820  0.10760  0.97610  Biso   1.000  C
  C53      1.0000 0.87730  0.45930  0.24140  Biso   1.000  C
  C54      1.0000 0.12270  0.54070  0.75860  Biso   1.000  C
  C55      1.0000 0.81680  0.51580  0.15080  Biso   1.000  C
  C56      1.0000 0.18320  0.48420  0.84920  Biso   1.000  C
  C57      1.0000 0.72720  0.44690  0.06750  Biso   1.000  C
  C58      1.0000 0.27280  0.55310  0.93250  Biso   1.000  C
  C59      1.0000 0.57530  0.40430  0.05800  Biso   1.000  C
  C60      1.0000 0.42470  0.59570  0.94200  Biso   1.000  C
  C61      1.0000 0.49910  0.33840  0.98170  Biso   1.000  C
  C62      1.0000 0.50090  0.66160  0.01830  Biso   1.000  C
  C63      1.0000 0.57400  0.31680  0.91590  Biso   1.000  C
  C64      1.0000 0.42600  0.68320  0.08410  Biso   1.000  C
  C65      1.0000 0.72260  0.36300  0.92730  Biso   1.000  C
  C66      1.0000 0.27740  0.63700  0.07270  Biso   1.000  C
  H1       1.0000 0.25090  0.34390  0.32590  Biso   1.000  H
  H2       1.0000 0.74910  0.65610  0.67410  Biso   1.000  H
  H3       1.0000 0.26130  0.24000  0.27420  Biso   1.000  H
  H4       1.0000 0.73870  0.76000  0.72580  Biso   1.000  H
  H5       1.0000 0.39450  0.28290  0.46610  Biso   1.000  H
  H6       1.0000 0.60550  0.71710  0.53390  Biso   1.000  H
  H7       1.0000 0.24450  0.20930  0.42410  Biso   1.000  H
  H8       1.0000 0.75550  0.79070  0.57590  Biso   1.000  H
  H9       1.0000 0.40440  0.17880  0.41430  Biso   1.000  H
  H10      1.0000 0.59560  0.82120  0.58570  Biso   1.000  H
  H11      1.0000 0.71750  0.17970  0.17440  Biso   1.000  H
  H12      1.0000 0.28250  0.82030  0.82560  Biso   1.000  H
  H13      1.0000 0.84060  0.27090  0.17680  Biso   1.000  H
  H14      1.0000 0.15940  0.72910  0.82320  Biso   1.000  H
  H15      1.0000 0.84980  0.14800  0.32710  Biso   1.000  H
  H16      1.0000 0.15020  0.85200  0.67290  Biso   1.000  H
  H17      1.0000 0.96300  0.14000  0.26590  Biso   1.000  H
  H18      1.0000 0.03700  0.86000  0.73410  Biso   1.000  H
  H19      1.0000 0.97310  0.23910  0.32930  Biso   1.000  H
  H20      1.0000 0.02690  0.76090  0.67070  Biso   1.000  H
  H21      1.0000 0.77490  0.61240  0.30500  Biso   1.000  H
  H22      1.0000 0.22510  0.38760  0.69500  Biso   1.000  H
  H23      1.0000 0.63830  0.62540  0.34830  Biso   1.000  H
  H24      1.0000 0.36170  0.37460  0.65170  Biso   1.000  H
  H25      1.0000 0.92420  0.55370  0.44490  Biso   1.000  H
  H26      1.0000 0.07580  0.44630  0.55510  Biso   1.000  H
  H27      1.0000 0.87560  0.66330  0.46400  Biso   1.000  H
  H28      1.0000 0.12440  0.33670  0.53600  Biso   1.000  H
  H29      1.0000 0.78740  0.56580  0.48820  Biso   1.000  H
  H30      1.0000 0.21260  0.43420  0.51180  Biso   1.000  H
  H31      1.0000 0.50150  0.55510  0.41860  Biso   1.000  H
  H32      1.0000 0.49850  0.44490  0.58140  Biso   1.000  H
  H33      1.0000 0.37230  0.46580  0.40900  Biso   1.000  H
  H34      1.0000 0.62770  0.53420  0.59100  Biso   1.000  H
  H35      1.0000 0.37680  0.59380  0.26490  Biso   1.000  H
  H36      1.0000 0.62320  0.40620  0.73510  Biso   1.000  H
  H37      1.0000 0.24140  0.51200  0.26460  Biso   1.000  H
  H38      1.0000 0.75860  0.48800  0.73540  Biso   1.000  H
  H39      1.0000 0.32730  0.63760  0.47600  Biso   1.000  H
  H40      1.0000 0.67270  0.36240  0.52400  Biso   1.000  H
  H41      1.0000 0.20240  0.77710  0.51660  Biso   1.000  H
  H42      1.0000 0.79760  0.22290  0.48340  Biso   1.000  H
  H43      1.0000 0.02500  0.85710  0.39780  Biso   1.000  H
  H44      1.0000 0.97500  0.14290  0.60220  Biso   1.000  H
  H45      1.0000 0.98380  0.79780  0.24490  Biso   1.000  H
  H46      1.0000 0.01620  0.20220  0.75510  Biso   1.000  H
  H47      1.0000 0.42480  0.13200  0.27490  Biso   1.000  H
  H48      1.0000 0.57520  0.86800  0.72510  Biso   1.000  H
  H49      1.0000 0.57160  0.11370  0.24240  Biso   1.000  H
  H50      1.0000 0.42840  0.88630  0.75760  Biso   1.000  H
  H51      1.0000 0.32110  0.20660  0.12570  Biso   1.000  H
  H52      1.0000 0.67890  0.79340  0.87430  Biso   1.000  H
  H53      1.0000 0.45270  0.15600  0.09520  Biso   1.000  H
  H54      1.0000 0.54730  0.84400  0.90480  Biso   1.000  H
  H55      1.0000 0.12830  0.08480  0.17790  Biso   1.000  H
  H56      1.0000 0.87170  0.91520  0.82210  Biso   1.000  H
  H57      1.0000 0.96590  0.93120  0.13330  Biso   1.000  H
  H58      1.0000 0.03410  0.06880  0.86670  Biso   1.000  H
  H59      1.0000 0.02880  0.80780  0.03420  Biso   1.000  H
  H60      1.0000 0.97120  0.19220  0.96580  Biso   1.000  H
  H61      1.0000 0.24730  0.84280  0.98350  Biso   1.000  H
  H62      1.0000 0.75270  0.15720  0.01650  Biso   1.000  H
  H63      1.0000 0.93870  0.40610  0.22980  Biso   1.000  H
  H64      1.0000 0.06130  0.59390  0.77020  Biso   1.000  H
  H65      1.0000 0.94020  0.50670  0.28940  Biso   1.000  H
  H66      1.0000 0.05980  0.49330  0.71060  Biso   1.000  H
  H67      1.0000 0.90360  0.55050  0.13650  Biso   1.000  H
  H68      1.0000 0.09640  0.44950  0.86350  Biso   1.000  H
  H69      1.0000 0.74920  0.56530  0.16180  Biso   1.000  H
  H70      1.0000 0.25080  0.43470  0.83820  Biso   1.000  H
  H71      1.0000 0.52450  0.42080  0.10390  Biso   1.000  H
  H72      1.0000 0.47550  0.57920  0.89610  Biso   1.000  H
  H73      1.0000 0.39600  0.30870  0.97500  Biso   1.000  H
  H74      1.0000 0.60400  0.69130  0.02500  Biso   1.000  H
  H75      1.0000 0.52490  0.27040  0.86360  Biso   1.000  H
  H76      1.0000 0.47510  0.72960  0.13640  Biso   1.000  H
  H77      1.0000 0.77460  0.34910  0.88140  Biso   1.000  H
  H78      1.0000 0.22540  0.65090  0.11860  Biso   1.000  H
  O1       1.0000 0.30810  0.00340  0.55070  Biso   1.000  O
  O2       1.0000 0.69190  0.99660  0.44930  Biso   1.000  O
  C67      1.0000 0.51120  0.11210  0.66400  Biso   1.000  C
  C68      1.0000 0.48880  0.88790  0.33600  Biso   1.000  C
  C69      1.0000 0.39830  0.05370  0.60090  Biso   1.000  C
  C70      1.0000 0.60170  0.94630  0.39910  Biso   1.000  C
  H79      1.0000 0.51360  0.08490  0.72240  Biso   1.000  H
  H80      1.0000 0.48640  0.91510  0.27760  Biso   1.000  H
  H81      1.0000 0.46870  0.17770  0.66010  Biso   1.000  H
  H82      1.0000 0.53130  0.82230  0.33990  Biso   1.000  H
  H83      1.0000 0.61470  0.11990  0.65840  Biso   1.000  H
  H84      1.0000 0.38530  0.88010  0.34160  Biso   1.000  H
  H85      1.0000 0.45790  0.99550  0.61690  Biso   1.000  H
  H86      1.0000 0.54210  0.00450  0.38310  Biso   1.000  H
  H87      1.0000 0.42580  0.08680  0.55140  Biso   1.000  H
  H88      1.0000 0.57420  0.91320  0.44860  Biso   1.000  H
  H89      1.0000 0.23260  0.02500  0.56570  Biso   1.000  H
  H90      1.0000 0.76740  0.97500  0.43430  Biso   1.000  H
