data_image0
_cell_length_a       9.98
_cell_length_b       10.066
_cell_length_c       11.377
_cell_angle_alpha    96.63
_cell_angle_beta     113.63
_cell_angle_gamma    101.82

_symmetry_space_group_name_H-M    "P 1"
_symmetry_int_tables_number       1

loop_
  _symmetry_equiv_pos_as_xyz
  'x, y, z'

loop_
  _atom_site_label
  _atom_site_occupancy
  _atom_site_fract_x
  _atom_site_fract_y
  _atom_site_fract_z
  _atom_site_thermal_displace_type
  _atom_site_B_iso_or_equiv
  _atom_site_type_symbol
  Cu1      1.0000 0.24950  0.00314  0.49241  Biso   1.000  Cu
  Cu2      1.0000 0.75050  0.99686  0.50759  Biso   1.000  Cu
  Cu3      1.0000 0.11616  0.96611  0.72680  Biso   1.000  Cu
  Cu4      1.0000 0.88384  0.03389  0.27320  Biso   1.000  Cu
  Cu5      1.0000 0.38957  0.03814  0.26885  Biso   1.000  Cu
  Cu6      1.0000 0.61043  0.96186  0.73115  Biso   1.000  Cu
  S1       1.0000 0.09139  0.18016  0.16085  Biso   1.000  S
  S2       1.0000 0.90861  0.81984  0.83915  Biso   1.000  S
  S3       1.0000 0.58035  0.18940  0.14955  Biso   1.000  S
  S4       1.0000 0.41965  0.81060  0.85045  Biso   1.000  S
  P1       1.0000 0.93401  0.81947  0.43330  Biso   1.000  P
  P2       1.0000 0.06599  0.18053  0.56670  Biso   1.000  P
  P3       1.0000 0.42826  0.81649  0.43895  Biso   1.000  P
  P4       1.0000 0.57174  0.18351  0.56105  Biso   1.000  P
  O1       1.0000 0.06570  0.85820  0.39790  Biso   1.000  O
  O2       1.0000 0.93430  0.14180  0.60210  Biso   1.000  O
  O3       1.0000 0.33470  0.91890  0.37890  Biso   1.000  O
  O4       1.0000 0.66530  0.08110  0.62110  Biso   1.000  O
  O5       1.0000 0.97650  0.82070  0.57770  Biso   1.000  O
  O6       1.0000 0.02350  0.17930  0.42230  Biso   1.000  O
  O7       1.0000 0.57120  0.84460  0.41680  Biso   1.000  O
  O8       1.0000 0.42880  0.15540  0.58320  Biso   1.000  O
  O9       1.0000 0.83080  0.91920  0.38810  Biso   1.000  O
  O10      1.0000 0.16920  0.08080  0.61190  Biso   1.000  O
  O11      1.0000 0.45490  0.82740  0.58160  Biso   1.000  O
  O12      1.0000 0.54510  0.17260  0.41840  Biso   1.000  O
  O13      1.0000 0.55440  0.17440  0.01190  Biso   1.000  O
  O14      1.0000 0.44560  0.82560  0.98810  Biso   1.000  O
  O15      1.0000 0.93760  0.14710  0.15690  Biso   1.000  O
  O16      1.0000 0.06240  0.85290  0.84310  Biso   1.000  O
  O17      1.0000 0.67310  0.10630  0.22130  Biso   1.000  O
  O18      1.0000 0.32690  0.89370  0.77870  Biso   1.000  O
  O19      1.0000 0.07730  0.16280  0.02810  Biso   1.000  O
  O20      1.0000 0.92270  0.83720  0.97190  Biso   1.000  O
  O21      1.0000 0.43170  0.16110  0.15490  Biso   1.000  O
  O22      1.0000 0.56830  0.83890  0.84510  Biso   1.000  O
  O23      1.0000 0.18280  0.10170  0.24470  Biso   1.000  O
  O24      1.0000 0.81720  0.89830  0.75530  Biso   1.000  O
  O25      1.0000 0.27630  0.88420  0.11400  Biso   1.000  O
  O26      1.0000 0.72370  0.11580  0.88600  Biso   1.000  O
  H1       1.0000 0.31450  0.87160  0.06140  Biso   1.000  H
  H2       1.0000 0.68550  0.12840  0.93860  Biso   1.000  H
  H3       1.0000 0.18400  0.86970  0.06250  Biso   1.000  H
  H4       1.0000 0.81600  0.13030  0.93750  Biso   1.000  H
  O27      1.0000 0.22640  0.12990  0.87280  Biso   1.000  O
  O28      1.0000 0.77360  0.87010  0.12720  Biso   1.000  O
  H5       1.0000 0.31940  0.13870  0.91760  Biso   1.000  H
  H6       1.0000 0.68060  0.86130  0.08240  Biso   1.000  H
  H7       1.0000 0.18740  0.13280  0.92580  Biso   1.000  H
  H8       1.0000 0.81260  0.86720  0.07420  Biso   1.000  H
  C1       1.0000 0.82650  0.64500  0.34330  Biso   1.000  C
  C2       1.0000 0.17350  0.35500  0.65670  Biso   1.000  C
  C3       1.0000 0.32060  0.63940  0.35600  Biso   1.000  C
  C4       1.0000 0.67940  0.36060  0.64400  Biso   1.000  C
  C5       1.0000 0.90810  0.54570  0.34990  Biso   1.000  C
  C6       1.0000 0.09190  0.45430  0.65010  Biso   1.000  C
  H9       1.0000 0.01380  0.57390  0.39400  Biso   1.000  H
  H10      1.0000 0.98620  0.42610  0.60600  Biso   1.000  H
  C7       1.0000 0.23660  0.59800  0.21990  Biso   1.000  C
  C8       1.0000 0.76340  0.40200  0.78010  Biso   1.000  C
  H11      1.0000 0.22850  0.66440  0.16880  Biso   1.000  H
  H12      1.0000 0.77150  0.33560  0.83120  Biso   1.000  H
  C9       1.0000 0.83420  0.40670  0.29200  Biso   1.000  C
  C10      1.0000 0.16580  0.59330  0.70800  Biso   1.000  C
  H13      1.0000 0.88930  0.34180  0.29590  Biso   1.000  H
  H14      1.0000 0.11070  0.65820  0.70410  Biso   1.000  H
  C11      1.0000 0.16440  0.45770  0.15950  Biso   1.000  C
  C12      1.0000 0.83560  0.54230  0.84050  Biso   1.000  C
  H15      1.0000 0.10680  0.43010  0.06880  Biso   1.000  H
  H16      1.0000 0.89320  0.56990  0.93120  Biso   1.000  H
  C13      1.0000 0.67490  0.36520  0.22740  Biso   1.000  C
  C14      1.0000 0.32510  0.63480  0.77260  Biso   1.000  C
  C15      1.0000 0.18040  0.35960  0.23780  Biso   1.000  C
  C16      1.0000 0.81960  0.64040  0.76220  Biso   1.000  C
  C17      1.0000 0.59220  0.46440  0.21780  Biso   1.000  C
  C18      1.0000 0.40780  0.53560  0.78220  Biso   1.000  C
  H17      1.0000 0.48670  0.43700  0.17160  Biso   1.000  H
  H18      1.0000 0.51330  0.56300  0.82840  Biso   1.000  H
  C19      1.0000 0.26250  0.39780  0.37340  Biso   1.000  C
  C20      1.0000 0.73750  0.60220  0.62660  Biso   1.000  C
  H19      1.0000 0.27190  0.33120  0.42420  Biso   1.000  H
  H20      1.0000 0.72810  0.66880  0.57580  Biso   1.000  H
  C21      1.0000 0.66860  0.60330  0.27760  Biso   1.000  C
  C22      1.0000 0.33140  0.39670  0.72240  Biso   1.000  C
  H21      1.0000 0.61400  0.66860  0.27370  Biso   1.000  H
  H22      1.0000 0.38600  0.33140  0.72630  Biso   1.000  H
  C23      1.0000 0.33050  0.53830  0.43130  Biso   1.000  C
  C24      1.0000 0.66950  0.46170  0.56870  Biso   1.000  C
  H23      1.0000 0.38380  0.56580  0.52240  Biso   1.000  H
  H24      1.0000 0.61620  0.43420  0.47760  Biso   1.000  H
