data_image0
_cell_length_a       4.847
_cell_length_b       9.9449
_cell_length_c       9.9576
_cell_angle_alpha    88.438
_cell_angle_beta     78.152
_cell_angle_gamma    83.756

_symmetry_space_group_name_H-M    "P 1"
_symmetry_int_tables_number       1

loop_
  _symmetry_equiv_pos_as_xyz
  'x, y, z'

loop_
  _atom_site_label
  _atom_site_occupancy
  _atom_site_fract_x
  _atom_site_fract_y
  _atom_site_fract_z
  _atom_site_thermal_displace_type
  _atom_site_B_iso_or_equiv
  _atom_site_type_symbol
  Cu1      1.0000 0.50000  0.00000  0.50000  Biso   1.000  Cu
  Cu2      1.0000 0.80783  0.02847  0.89813  Biso   1.000  Cu
  Cu3      1.0000 0.19217  0.97153  0.10187  Biso   1.000  Cu
  S1       1.0000 0.60660  0.77864  0.22785  Biso   1.000  S
  S2       1.0000 0.39340  0.22136  0.77215  Biso   1.000  S
  P1       1.0000 0.62330  0.13989  0.21284  Biso   1.000  P
  P2       1.0000 0.37670  0.86011  0.78716  Biso   1.000  P
  O1       1.0000 0.85260  0.08960  0.08560  Biso   1.000  O
  O2       1.0000 0.14740  0.91040  0.91440  Biso   1.000  O
  O3       1.0000 0.15730  0.12880  0.48630  Biso   1.000  O
  O4       1.0000 0.84270  0.87120  0.51370  Biso   1.000  O
  H1       1.0000 0.07700  0.13600  0.40800  Biso   1.000  H
  H2       1.0000 0.92300  0.86400  0.59200  Biso   1.000  H
  H3       1.0000 0.06700  0.14400  0.54400  Biso   1.000  H
  H4       1.0000 0.93300  0.85600  0.45600  Biso   1.000  H
  O5       1.0000 0.50440  0.83100  0.10380  Biso   1.000  O
  O6       1.0000 0.49560  0.16900  0.89620  Biso   1.000  O
  O7       1.0000 0.71950  0.08700  0.34240  Biso   1.000  O
  O8       1.0000 0.28050  0.91300  0.65760  Biso   1.000  O
  O9       1.0000 0.41550  0.82710  0.35310  Biso   1.000  O
  O10      1.0000 0.58450  0.17290  0.64690  Biso   1.000  O
  O11      1.0000 0.33320  0.10490  0.20190  Biso   1.000  O
  O12      1.0000 0.66680  0.89510  0.79810  Biso   1.000  O
  O13      1.0000 0.90110  0.80290  0.21900  Biso   1.000  O
  O14      1.0000 0.09890  0.19710  0.78100  Biso   1.000  O
  C1       1.0000 0.60450  0.59980  0.22410  Biso   1.000  C
  C2       1.0000 0.39550  0.40020  0.77590  Biso   1.000  C
  C3       1.0000 0.66400  0.53630  0.09630  Biso   1.000  C
  C4       1.0000 0.33600  0.46370  0.90370  Biso   1.000  C
  H5       1.0000 0.69590  0.58630  0.01530  Biso   1.000  H
  H6       1.0000 0.30410  0.41370  0.98470  Biso   1.000  H
  C5       1.0000 0.67300  0.39540  0.09400  Biso   1.000  C
  C6       1.0000 0.32700  0.60460  0.90600  Biso   1.000  C
  H7       1.0000 0.71930  0.35040  0.01040  Biso   1.000  H
  H8       1.0000 0.28070  0.64960  0.98960  Biso   1.000  H
  C7       1.0000 0.61290  0.32190  0.21520  Biso   1.000  C
  C8       1.0000 0.38710  0.67810  0.78480  Biso   1.000  C
  C9       1.0000 0.54000  0.39200  0.34090  Biso   1.000  C
  C10      1.0000 0.46000  0.60800  0.65910  Biso   1.000  C
  H9       1.0000 0.49400  0.34340  0.42220  Biso   1.000  H
  H10      1.0000 0.50600  0.65660  0.57780  Biso   1.000  H
  C11      1.0000 0.53400  0.53040  0.34630  Biso   1.000  C
  C12      1.0000 0.46600  0.46960  0.65370  Biso   1.000  C
  H11      1.0000 0.48430  0.57580  0.42960  Biso   1.000  H
  H12      1.0000 0.51570  0.42420  0.57040  Biso   1.000  H
  C13      1.0000 0.86700  0.52110  0.17360  Biso   1.000  C
  C14      1.0000 0.13300  0.47890  0.82640  Biso   1.000  C
  C15      1.0000 0.86600  0.37960  0.16610  Biso   1.000  C
  C16      1.0000 0.13400  0.62040  0.83390  Biso   1.000  C
  C17      1.0000 0.36300  0.40030  0.26520  Biso   1.000  C
  C18      1.0000 0.63700  0.59970  0.73480  Biso   1.000  C
  C19      1.0000 0.36000  0.54280  0.27250  Biso   1.000  C
  C20      1.0000 0.64000  0.45720  0.72750  Biso   1.000  C
  H13      1.0000 0.03380  0.56150  0.14650  Biso   1.000  H
  H14      1.0000 0.96620  0.43850  0.85350  Biso   1.000  H
  H15      1.0000 0.03090  0.32530  0.12900  Biso   1.000  H
  H16      1.0000 0.96910  0.67470  0.87100  Biso   1.000  H
  H17      1.0000 0.19690  0.36000  0.29440  Biso   1.000  H
  H18      1.0000 0.80310  0.64000  0.70560  Biso   1.000  H
  H19      1.0000 0.19360  0.59630  0.30950  Biso   1.000  H
  H20      1.0000 0.80640  0.40370  0.69050  Biso   1.000  H
