data_image0
_cell_length_a       11.6033
_cell_length_b       7.0633
_cell_length_c       13.9717
_cell_angle_alpha    90
_cell_angle_beta     110.63
_cell_angle_gamma    90

_symmetry_space_group_name_H-M    "P 1"
_symmetry_int_tables_number       1

loop_
  _symmetry_equiv_pos_as_xyz
  'x, y, z'

loop_
  _atom_site_label
  _atom_site_occupancy
  _atom_site_fract_x
  _atom_site_fract_y
  _atom_site_fract_z
  _atom_site_thermal_displace_type
  _atom_site_B_iso_or_equiv
  _atom_site_type_symbol
  Cu1      1.0000 0.25653  0.50574  0.75133  Biso   1.000  Cu
  Cu2      1.0000 0.24347  0.00574  0.74867  Biso   1.000  Cu
  Cu3      1.0000 0.74347  0.49426  0.24867  Biso   1.000  Cu
  Cu4      1.0000 0.75653  0.99426  0.25133  Biso   1.000  Cu
  Cu5      1.0000 0.13388  0.74702  0.55630  Biso   1.000  Cu
  Cu6      1.0000 0.36612  0.24702  0.94370  Biso   1.000  Cu
  Cu7      1.0000 0.86612  0.25298  0.44370  Biso   1.000  Cu
  Cu8      1.0000 0.63388  0.75298  0.05630  Biso   1.000  Cu
  S1       1.0000 0.42847  0.77248  0.65771  Biso   1.000  S
  S2       1.0000 0.07153  0.27248  0.84229  Biso   1.000  S
  S3       1.0000 0.57153  0.22752  0.34229  Biso   1.000  S
  S4       1.0000 0.92847  0.72752  0.15771  Biso   1.000  S
  P1       1.0000 0.84406  0.74567  0.45858  Biso   1.000  P
  P2       1.0000 0.65594  0.24567  0.04142  Biso   1.000  P
  P3       1.0000 0.15594  0.25433  0.54142  Biso   1.000  P
  P4       1.0000 0.34406  0.75433  0.95858  Biso   1.000  P
  O1       1.0000 0.44780  0.60510  0.72340  Biso   1.000  O
  O2       1.0000 0.05220  0.10510  0.77660  Biso   1.000  O
  O3       1.0000 0.55220  0.39490  0.27660  Biso   1.000  O
  O4       1.0000 0.94780  0.89490  0.22340  Biso   1.000  O
  O5       1.0000 0.31280  0.76420  0.57040  Biso   1.000  O
  O6       1.0000 0.18720  0.26420  0.92960  Biso   1.000  O
  O7       1.0000 0.68720  0.23580  0.42960  Biso   1.000  O
  O8       1.0000 0.81280  0.73580  0.07040  Biso   1.000  O
  O9       1.0000 0.44210  0.94620  0.71770  Biso   1.000  O
  O10      1.0000 0.05790  0.44620  0.78230  Biso   1.000  O
  O11      1.0000 0.55790  0.05380  0.28230  Biso   1.000  O
  O12      1.0000 0.94210  0.55380  0.21770  Biso   1.000  O
  O13      1.0000 0.82090  0.56720  0.39200  Biso   1.000  O
  O14      1.0000 0.67910  0.06720  0.10800  Biso   1.000  O
  O15      1.0000 0.17910  0.43280  0.60800  Biso   1.000  O
  O16      1.0000 0.32090  0.93280  0.89200  Biso   1.000  O
  O17      1.0000 0.96500  0.73130  0.54840  Biso   1.000  O
  O18      1.0000 0.53500  0.23130  0.95160  Biso   1.000  O
  O19      1.0000 0.03500  0.26870  0.45160  Biso   1.000  O
  O20      1.0000 0.46500  0.76870  0.04840  Biso   1.000  O
  O21      1.0000 0.83830  0.92500  0.39574  Biso   1.000  O
  O22      1.0000 0.66170  0.42500  0.10426  Biso   1.000  O
  O23      1.0000 0.16170  0.07500  0.60426  Biso   1.000  O
  O24      1.0000 0.33830  0.57500  0.89574  Biso   1.000  O
  C1       1.0000 0.54340  0.77220  0.60220  Biso   1.000  C
  C2       1.0000 0.95660  0.27220  0.89780  Biso   1.000  C
  C3       1.0000 0.45660  0.22780  0.39780  Biso   1.000  C
  C4       1.0000 0.04340  0.72780  0.10220  Biso   1.000  C
  C5       1.0000 0.51180  0.74000  0.49860  Biso   1.000  C
  C6       1.0000 0.98820  0.24000  0.00140  Biso   1.000  C
  C7       1.0000 0.48820  0.26000  0.50140  Biso   1.000  C
  C8       1.0000 0.01180  0.76000  0.99860  Biso   1.000  C
  H1       1.0000 0.42970  0.72410  0.45750  Biso   1.000  H
  H2       1.0000 0.07030  0.22410  0.04250  Biso   1.000  H
  H3       1.0000 0.57030  0.27590  0.54250  Biso   1.000  H
  H4       1.0000 0.92970  0.77590  0.95750  Biso   1.000  H
  C9       1.0000 0.60330  0.73160  0.45590  Biso   1.000  C
  C10      1.0000 0.89670  0.23160  0.04410  Biso   1.000  C
  C11      1.0000 0.39670  0.26840  0.54410  Biso   1.000  C
  C12      1.0000 0.10330  0.76840  0.95590  Biso   1.000  C
  H5       1.0000 0.58190  0.70840  0.38630  Biso   1.000  H
  H6       1.0000 0.91810  0.20840  0.11370  Biso   1.000  H
  H7       1.0000 0.41810  0.29160  0.61370  Biso   1.000  H
  H8       1.0000 0.08190  0.79160  0.88630  Biso   1.000  H
  C13      1.0000 0.72650  0.75740  0.51620  Biso   1.000  C
  C14      1.0000 0.77350  0.25740  0.98380  Biso   1.000  C
  C15      1.0000 0.27350  0.24260  0.48380  Biso   1.000  C
  C16      1.0000 0.22650  0.74260  0.01620  Biso   1.000  C
  C17      1.0000 0.75690  0.79300  0.62030  Biso   1.000  C
  C18      1.0000 0.74310  0.29300  0.87970  Biso   1.000  C
  C19      1.0000 0.24310  0.20700  0.37970  Biso   1.000  C
  C20      1.0000 0.25690  0.70700  0.12030  Biso   1.000  C
  H9       1.0000 0.83870  0.81220  0.66130  Biso   1.000  H
  H10      1.0000 0.66130  0.31220  0.83870  Biso   1.000  H
  H11      1.0000 0.16130  0.18780  0.33870  Biso   1.000  H
  H12      1.0000 0.33870  0.68780  0.16130  Biso   1.000  H
  C21      1.0000 0.66530  0.80020  0.66330  Biso   1.000  C
  C22      1.0000 0.83470  0.30020  0.83670  Biso   1.000  C
  C23      1.0000 0.33470  0.19980  0.33670  Biso   1.000  C
  C24      1.0000 0.16530  0.69980  0.16330  Biso   1.000  C
  H13      1.0000 0.68610  0.82370  0.73280  Biso   1.000  H
  H14      1.0000 0.81390  0.32370  0.76720  Biso   1.000  H
  H15      1.0000 0.31390  0.17630  0.26720  Biso   1.000  H
  H16      1.0000 0.18610  0.67630  0.23280  Biso   1.000  H
  O25      1.0000 0.17680  0.75250  0.70730  Biso   1.000  O
  O26      1.0000 0.32320  0.25250  0.79270  Biso   1.000  O
  O27      1.0000 0.82320  0.24750  0.29270  Biso   1.000  O
  O28      1.0000 0.67680  0.74750  0.20730  Biso   1.000  O
  H17      1.0000 0.11000  0.74310  0.71470  Biso   1.000  H
  H18      1.0000 0.39000  0.24310  0.78530  Biso   1.000  H
  H19      1.0000 0.89000  0.25690  0.28530  Biso   1.000  H
  H20      1.0000 0.61000  0.75690  0.21470  Biso   1.000  H
  O29      1.0000 0.09750  0.71980  0.40790  Biso   1.000  O
  O30      1.0000 0.40250  0.21980  0.09210  Biso   1.000  O
  O31      1.0000 0.90250  0.28020  0.59210  Biso   1.000  O
  O32      1.0000 0.59750  0.78020  0.90790  Biso   1.000  O
