data_image0
_cell_length_a       9.26
_cell_length_b       25.543
_cell_length_c       7.7815
_cell_angle_alpha    90
_cell_angle_beta     97.36
_cell_angle_gamma    90

_symmetry_space_group_name_H-M    "P 1"
_symmetry_int_tables_number       1

loop_
  _symmetry_equiv_pos_as_xyz
  'x, y, z'

loop_
  _atom_site_label
  _atom_site_occupancy
  _atom_site_fract_x
  _atom_site_fract_y
  _atom_site_fract_z
  _atom_site_thermal_displace_type
  _atom_site_B_iso_or_equiv
  _atom_site_type_symbol
  Gd1      1.0000 0.51225  0.65060  0.58723  Biso   1.000  Gd
  Gd2      1.0000 0.48775  0.15060  0.91277  Biso   1.000  Gd
  Gd3      1.0000 0.48775  0.34940  0.41277  Biso   1.000  Gd
  Gd4      1.0000 0.51225  0.84940  0.08723  Biso   1.000  Gd
  Cu1      1.0000 0.00000  0.50000  0.50000  Biso   1.000  Cu
  Cu2      1.0000 0.00000  0.00000  0.00000  Biso   1.000  Cu
  O1       1.0000 0.49020  0.70646  0.33480  Biso   1.000  O
  O2       1.0000 0.50980  0.20646  0.16520  Biso   1.000  O
  O3       1.0000 0.50980  0.29354  0.66520  Biso   1.000  O
  O4       1.0000 0.49020  0.79354  0.83480  Biso   1.000  O
  O5       1.0000 0.59030  0.76566  0.17790  Biso   1.000  O
  O6       1.0000 0.40970  0.26566  0.32210  Biso   1.000  O
  O7       1.0000 0.40970  0.23434  0.82210  Biso   1.000  O
  O8       1.0000 0.59030  0.73434  0.67790  Biso   1.000  O
  O9       1.0000 0.26320  0.65660  0.49240  Biso   1.000  O
  O10      1.0000 0.73680  0.15660  0.00760  Biso   1.000  O
  O11      1.0000 0.73680  0.34340  0.50760  Biso   1.000  O
  O12      1.0000 0.26320  0.84340  0.99240  Biso   1.000  O
  O13      1.0000 0.14160  0.58883  0.58880  Biso   1.000  O
  O14      1.0000 0.85840  0.08883  0.91120  Biso   1.000  O
  O15      1.0000 0.85840  0.41117  0.41120  Biso   1.000  O
  O16      1.0000 0.14160  0.91117  0.08880  Biso   1.000  O
  O17      1.0000 0.19140  0.48340  0.43670  Biso   1.000  O
  O18      1.0000 0.80860  0.98340  0.06330  Biso   1.000  O
  O19      1.0000 0.80860  0.51660  0.56330  Biso   1.000  O
  O20      1.0000 0.19140  0.01660  0.93670  Biso   1.000  O
  O21      1.0000 0.34230  0.50838  0.24780  Biso   1.000  O
  O22      1.0000 0.65770  0.00838  0.25220  Biso   1.000  O
  O23      1.0000 0.65770  0.49162  0.75220  Biso   1.000  O
  O24      1.0000 0.34230  0.99162  0.74780  Biso   1.000  O
  O25      1.0000 0.70440  0.62330  0.79940  Biso   1.000  O
  O26      1.0000 0.29560  0.12330  0.70060  Biso   1.000  O
  O27      1.0000 0.29560  0.37670  0.20060  Biso   1.000  O
  O28      1.0000 0.70440  0.87670  0.29940  Biso   1.000  O
  O29      1.0000 0.61420  0.61710  0.05180  Biso   1.000  O
  O30      1.0000 0.38580  0.11710  0.44820  Biso   1.000  O
  O31      1.0000 0.38580  0.38290  0.94820  Biso   1.000  O
  O32      1.0000 0.61420  0.88290  0.55180  Biso   1.000  O
  O33      1.0000 0.39720  0.66390  0.84800  Biso   1.000  O
  O34      1.0000 0.60280  0.16390  0.65200  Biso   1.000  O
  O35      1.0000 0.60280  0.33610  0.15200  Biso   1.000  O
  O36      1.0000 0.39720  0.83610  0.34800  Biso   1.000  O
  O37      1.0000 0.43680  0.56540  0.67220  Biso   1.000  O
  O38      1.0000 0.56320  0.06540  0.82780  Biso   1.000  O
  O39      1.0000 0.56320  0.43460  0.32780  Biso   1.000  O
  O40      1.0000 0.43680  0.93460  0.17220  Biso   1.000  O
  O41      1.0000 0.52150  0.59157  0.34940  Biso   1.000  O
  O42      1.0000 0.47850  0.09157  0.15060  Biso   1.000  O
  O43      1.0000 0.47850  0.40843  0.65060  Biso   1.000  O
  O44      1.0000 0.52150  0.90843  0.84940  Biso   1.000  O
  N1       1.0000 0.74940  0.66650  0.45480  Biso   1.000  N
  N2       1.0000 0.25060  0.16650  0.04520  Biso   1.000  N
  N3       1.0000 0.25060  0.33350  0.54520  Biso   1.000  N
  N4       1.0000 0.74940  0.83350  0.95480  Biso   1.000  N
  N5       1.0000 0.96980  0.53340  0.26990  Biso   1.000  N
  N6       1.0000 0.03020  0.03340  0.23010  Biso   1.000  N
  N7       1.0000 0.03020  0.46660  0.73010  Biso   1.000  N
  N8       1.0000 0.96980  0.96660  0.76990  Biso   1.000  N
  C1       1.0000 0.59650  0.72800  0.27960  Biso   1.000  C
  C2       1.0000 0.40350  0.22800  0.22040  Biso   1.000  C
  C3       1.0000 0.40350  0.27200  0.72040  Biso   1.000  C
  C4       1.0000 0.59650  0.77200  0.77960  Biso   1.000  C
  C5       1.0000 0.74590  0.70490  0.33720  Biso   1.000  C
  C6       1.0000 0.25410  0.20490  0.16280  Biso   1.000  C
  C7       1.0000 0.25410  0.29510  0.66280  Biso   1.000  C
  C8       1.0000 0.74590  0.79510  0.83720  Biso   1.000  C
  C9       1.0000 0.86980  0.72280  0.27090  Biso   1.000  C
  C10      1.0000 0.13020  0.22280  0.22910  Biso   1.000  C
  C11      1.0000 0.13020  0.27720  0.72910  Biso   1.000  C
  C12      1.0000 0.86980  0.77720  0.77090  Biso   1.000  C
  C13      1.0000 0.00240  0.69910  0.32690  Biso   1.000  C
  C14      1.0000 0.99760  0.19910  0.17310  Biso   1.000  C
  C15      1.0000 0.99760  0.30090  0.67310  Biso   1.000  C
  C16      1.0000 0.00240  0.80090  0.82690  Biso   1.000  C
  C17      1.0000 0.00680  0.65900  0.44740  Biso   1.000  C
  C18      1.0000 0.99320  0.15900  0.05260  Biso   1.000  C
  C19      1.0000 0.99320  0.34100  0.55260  Biso   1.000  C
  C20      1.0000 0.00680  0.84100  0.94740  Biso   1.000  C
  C21      1.0000 0.87790  0.64370  0.50690  Biso   1.000  C
  C22      1.0000 0.12210  0.14370  0.99310  Biso   1.000  C
  C23      1.0000 0.12210  0.35630  0.49310  Biso   1.000  C
  C24      1.0000 0.87790  0.85630  0.00690  Biso   1.000  C
  C25      1.0000 0.14780  0.63200  0.51610  Biso   1.000  C
  C26      1.0000 0.85220  0.13200  0.98390  Biso   1.000  C
  C27      1.0000 0.85220  0.36800  0.48390  Biso   1.000  C
  C28      1.0000 0.14780  0.86800  0.01610  Biso   1.000  C
  C29      1.0000 0.22270  0.50730  0.30240  Biso   1.000  C
  C30      1.0000 0.77730  0.00730  0.19760  Biso   1.000  C
  C31      1.0000 0.77730  0.49270  0.69760  Biso   1.000  C
  C32      1.0000 0.22270  0.99270  0.80240  Biso   1.000  C
  C33      1.0000 0.09560  0.53670  0.19980  Biso   1.000  C
  C34      1.0000 0.90440  0.03670  0.30020  Biso   1.000  C
  C35      1.0000 0.90440  0.46330  0.80020  Biso   1.000  C
  C36      1.0000 0.09560  0.96330  0.69980  Biso   1.000  C
  C37      1.0000 0.10650  0.56500  0.05170  Biso   1.000  C
  C38      1.0000 0.89350  0.06500  0.44830  Biso   1.000  C
  C39      1.0000 0.89350  0.43500  0.94830  Biso   1.000  C
  C40      1.0000 0.10650  0.93500  0.55170  Biso   1.000  C
  C41      1.0000 0.98100  0.58860  0.96910  Biso   1.000  C
  C42      1.0000 0.01900  0.08860  0.53090  Biso   1.000  C
  C43      1.0000 0.01900  0.41140  0.03090  Biso   1.000  C
  C44      1.0000 0.98100  0.91140  0.46910  Biso   1.000  C
  C45      1.0000 0.85030  0.58480  0.03990  Biso   1.000  C
  C46      1.0000 0.14970  0.08480  0.46010  Biso   1.000  C
  C47      1.0000 0.14970  0.41520  0.96010  Biso   1.000  C
  C48      1.0000 0.85030  0.91520  0.53990  Biso   1.000  C
  C49      1.0000 0.84980  0.55700  0.19190  Biso   1.000  C
  C50      1.0000 0.15020  0.05700  0.30810  Biso   1.000  C
  C51      1.0000 0.15020  0.44300  0.80810  Biso   1.000  C
  C52      1.0000 0.84980  0.94300  0.69190  Biso   1.000  C
  C53      1.0000 0.71190  0.61060  0.95750  Biso   1.000  C
  C54      1.0000 0.28810  0.11060  0.54250  Biso   1.000  C
  C55      1.0000 0.28810  0.38940  0.04250  Biso   1.000  C
  C56      1.0000 0.71190  0.88940  0.45750  Biso   1.000  C
  O45      1.0000 0.25490  0.72730  0.06290  Biso   1.000  O
  O46      1.0000 0.74510  0.22730  0.43710  Biso   1.000  O
  O47      1.0000 0.74510  0.27270  0.93710  Biso   1.000  O
  O48      1.0000 0.25490  0.77270  0.56290  Biso   1.000  O
