data_image0
_cell_length_a       9.2606
_cell_length_b       25.557
_cell_length_c       7.79
_cell_angle_alpha    90
_cell_angle_beta     97.31
_cell_angle_gamma    90

_symmetry_space_group_name_H-M    "P 1"
_symmetry_int_tables_number       1

loop_
  _symmetry_equiv_pos_as_xyz
  'x, y, z'

loop_
  _atom_site_label
  _atom_site_occupancy
  _atom_site_fract_x
  _atom_site_fract_y
  _atom_site_fract_z
  _atom_site_thermal_displace_type
  _atom_site_B_iso_or_equiv
  _atom_site_type_symbol
  H1       1.0000 0.50300  0.04180  0.31100  Biso   1.000  H
  H2       1.0000 0.49700  0.54180  0.18900  Biso   1.000  H
  H3       1.0000 0.49700  0.95820  0.68900  Biso   1.000  H
  H4       1.0000 0.50300  0.45820  0.81100  Biso   1.000  H
  H5       1.0000 0.65060  0.06100  0.34300  Biso   1.000  H
  H6       1.0000 0.34940  0.56100  0.15700  Biso   1.000  H
  H7       1.0000 0.34940  0.93900  0.65700  Biso   1.000  H
  H8       1.0000 0.65060  0.43900  0.84300  Biso   1.000  H
  H9       1.0000 0.54400  0.89700  0.26000  Biso   1.000  H
  H10      1.0000 0.45600  0.39700  0.24000  Biso   1.000  H
  H11      1.0000 0.45600  0.10300  0.74000  Biso   1.000  H
  H12      1.0000 0.54400  0.60300  0.76000  Biso   1.000  H
  H13      1.0000 0.46600  0.93290  0.33000  Biso   1.000  H
  H14      1.0000 0.53400  0.43290  0.17000  Biso   1.000  H
  H15      1.0000 0.53400  0.06710  0.67000  Biso   1.000  H
  H16      1.0000 0.46600  0.56710  0.83000  Biso   1.000  H
  H17      1.0000 0.45900  0.84900  0.92100  Biso   1.000  H
  H18      1.0000 0.54100  0.34900  0.57900  Biso   1.000  H
  H19      1.0000 0.54100  0.15100  0.07900  Biso   1.000  H
  H20      1.0000 0.45900  0.65100  0.42100  Biso   1.000  H
  H21      1.0000 0.35600  0.81300  0.89000  Biso   1.000  H
  H22      1.0000 0.64400  0.31300  0.61000  Biso   1.000  H
  H23      1.0000 0.64400  0.18700  0.11000  Biso   1.000  H
  H24      1.0000 0.35600  0.68700  0.39000  Biso   1.000  H
  Gd1      1.0000 0.51231  0.84944  0.58704  Biso   1.000  Gd
  Gd2      1.0000 0.48769  0.34944  0.91296  Biso   1.000  Gd
  Gd3      1.0000 0.48769  0.15056  0.41296  Biso   1.000  Gd
  Gd4      1.0000 0.51231  0.65056  0.08704  Biso   1.000  Gd
  Cu1      1.0000 0.00000  0.00000  0.50000  Biso   1.000  Cu
  Cu2      1.0000 0.00000  0.50000  0.00000  Biso   1.000  Cu
  O1       1.0000 0.39750  0.83675  0.84690  Biso   1.000  O
  O2       1.0000 0.60250  0.33675  0.65310  Biso   1.000  O
  O3       1.0000 0.60250  0.16325  0.15310  Biso   1.000  O
  O4       1.0000 0.39750  0.66325  0.34690  Biso   1.000  O
  O5       1.0000 0.59060  0.76580  0.67780  Biso   1.000  O
  O6       1.0000 0.40940  0.26580  0.82220  Biso   1.000  O
  O7       1.0000 0.40940  0.23420  0.32220  Biso   1.000  O
  O8       1.0000 0.59060  0.73420  0.17780  Biso   1.000  O
  O9       1.0000 0.26360  0.65661  0.99290  Biso   1.000  O
  O10      1.0000 0.73640  0.15661  0.50710  Biso   1.000  O
  O11      1.0000 0.73640  0.34339  0.00710  Biso   1.000  O
  O12      1.0000 0.26360  0.84339  0.49290  Biso   1.000  O
  O13      1.0000 0.48960  0.70642  0.83390  Biso   1.000  O
  O14      1.0000 0.51040  0.20642  0.66610  Biso   1.000  O
  O15      1.0000 0.51040  0.29358  0.16610  Biso   1.000  O
  O16      1.0000 0.48960  0.79358  0.33390  Biso   1.000  O
  O17      1.0000 0.52260  0.90848  0.35130  Biso   1.000  O
  O18      1.0000 0.47740  0.40848  0.14870  Biso   1.000  O
  O19      1.0000 0.47740  0.09152  0.64870  Biso   1.000  O
  O20      1.0000 0.52260  0.59152  0.85130  Biso   1.000  O
  O21      1.0000 0.70430  0.87683  0.79990  Biso   1.000  O
  O22      1.0000 0.29570  0.37683  0.70010  Biso   1.000  O
  O23      1.0000 0.29570  0.12317  0.20010  Biso   1.000  O
  O24      1.0000 0.70430  0.62317  0.29990  Biso   1.000  O
  O25      1.0000 0.56270  0.06557  0.32690  Biso   1.000  O
  O26      1.0000 0.43730  0.56557  0.17310  Biso   1.000  O
  O27      1.0000 0.43730  0.93443  0.67310  Biso   1.000  O
  O28      1.0000 0.56270  0.43443  0.82690  Biso   1.000  O
  O29      1.0000 0.14230  0.58885  0.08940  Biso   1.000  O
  O30      1.0000 0.85770  0.08885  0.41060  Biso   1.000  O
  O31      1.0000 0.85770  0.41115  0.91060  Biso   1.000  O
  O32      1.0000 0.14230  0.91115  0.58940  Biso   1.000  O
  O33      1.0000 0.61370  0.88273  0.05020  Biso   1.000  O
  O34      1.0000 0.38630  0.38273  0.44980  Biso   1.000  O
  O35      1.0000 0.38630  0.11727  0.94980  Biso   1.000  O
  O36      1.0000 0.61370  0.61727  0.55020  Biso   1.000  O
  O37      1.0000 0.19180  0.01636  0.43600  Biso   1.000  O
  O38      1.0000 0.80820  0.51636  0.06400  Biso   1.000  O
  O39      1.0000 0.80820  0.98364  0.56400  Biso   1.000  O
  O40      1.0000 0.19180  0.48364  0.93600  Biso   1.000  O
  O41      1.0000 0.74590  0.27268  0.43720  Biso   1.000  O
  O42      1.0000 0.25410  0.77268  0.06280  Biso   1.000  O
  O43      1.0000 0.25410  0.72732  0.56280  Biso   1.000  O
  O44      1.0000 0.74590  0.22732  0.93720  Biso   1.000  O
  O45      1.0000 0.34160  0.99167  0.24820  Biso   1.000  O
  O46      1.0000 0.65840  0.49167  0.25180  Biso   1.000  O
  O47      1.0000 0.65840  0.00833  0.75180  Biso   1.000  O
  O48      1.0000 0.34160  0.50833  0.74820  Biso   1.000  O
  N1       1.0000 0.74920  0.66655  0.95490  Biso   1.000  N
  N2       1.0000 0.25080  0.16655  0.54510  Biso   1.000  N
  N3       1.0000 0.25080  0.33345  0.04510  Biso   1.000  N
  N4       1.0000 0.74920  0.83345  0.45490  Biso   1.000  N
  N5       1.0000 0.97130  0.96666  0.27060  Biso   1.000  N
  N6       1.0000 0.02870  0.46666  0.22940  Biso   1.000  N
  N7       1.0000 0.02870  0.03334  0.72940  Biso   1.000  N
  N8       1.0000 0.97130  0.53334  0.77060  Biso   1.000  N
  C1       1.0000 0.74710  0.70509  0.83750  Biso   1.000  C
  C2       1.0000 0.25290  0.20509  0.66250  Biso   1.000  C
  C3       1.0000 0.25290  0.29491  0.16250  Biso   1.000  C
  C4       1.0000 0.74710  0.79491  0.33750  Biso   1.000  C
  C5       1.0000 0.86920  0.72247  0.77140  Biso   1.000  C
  C6       1.0000 0.13080  0.22247  0.72860  Biso   1.000  C
  C7       1.0000 0.13080  0.27753  0.22860  Biso   1.000  C
  C8       1.0000 0.86920  0.77753  0.27140  Biso   1.000  C
  H25      1.0000 0.86290  0.74950  0.69100  Biso   1.000  H
  H26      1.0000 0.13710  0.24950  0.80900  Biso   1.000  H
  H27      1.0000 0.13710  0.25050  0.30900  Biso   1.000  H
  H28      1.0000 0.86290  0.75050  0.19100  Biso   1.000  H
  C9       1.0000 0.00170  0.69906  0.82660  Biso   1.000  C
  C10      1.0000 0.99830  0.19906  0.67340  Biso   1.000  C
  C11      1.0000 0.99830  0.30094  0.17340  Biso   1.000  C
  C12      1.0000 0.00170  0.80094  0.32660  Biso   1.000  C
  H29      1.0000 0.08560  0.70990  0.78280  Biso   1.000  H
  H30      1.0000 0.91440  0.20990  0.71720  Biso   1.000  H
  H31      1.0000 0.91440  0.29010  0.21720  Biso   1.000  H
  H32      1.0000 0.08560  0.79010  0.28280  Biso   1.000  H
  C13      1.0000 0.00780  0.65908  0.94810  Biso   1.000  C
  C14      1.0000 0.99220  0.15908  0.55190  Biso   1.000  C
  C15      1.0000 0.99220  0.34092  0.05190  Biso   1.000  C
  C16      1.0000 0.00780  0.84092  0.44810  Biso   1.000  C
  C17      1.0000 0.87890  0.64376  0.00700  Biso   1.000  C
  C18      1.0000 0.12110  0.14376  0.49300  Biso   1.000  C
  C19      1.0000 0.12110  0.35624  0.99300  Biso   1.000  C
  C20      1.0000 0.87890  0.85624  0.50700  Biso   1.000  C
  H33      1.0000 0.88200  0.61640  0.08620  Biso   1.000  H
  H34      1.0000 0.11800  0.11640  0.41380  Biso   1.000  H
  H35      1.0000 0.11800  0.38360  0.91380  Biso   1.000  H
  H36      1.0000 0.88200  0.88360  0.58620  Biso   1.000  H
  C21      1.0000 0.59640  0.72792  0.77950  Biso   1.000  C
  C22      1.0000 0.40360  0.22792  0.72050  Biso   1.000  C
  C23      1.0000 0.40360  0.27208  0.22050  Biso   1.000  C
  C24      1.0000 0.59640  0.77208  0.27950  Biso   1.000  C
  C25      1.0000 0.14820  0.63196  0.01640  Biso   1.000  C
  C26      1.0000 0.85180  0.13196  0.48360  Biso   1.000  C
  C27      1.0000 0.85180  0.36804  0.98360  Biso   1.000  C
  C28      1.0000 0.14820  0.86804  0.51640  Biso   1.000  C
  C29      1.0000 0.09660  0.96334  0.20090  Biso   1.000  C
  C30      1.0000 0.90340  0.46334  0.29910  Biso   1.000  C
  C31      1.0000 0.90340  0.03666  0.79910  Biso   1.000  C
  C32      1.0000 0.09660  0.53666  0.70090  Biso   1.000  C
  C33      1.0000 0.10540  0.93548  0.05060  Biso   1.000  C
  C34      1.0000 0.89460  0.43548  0.44940  Biso   1.000  C
  C35      1.0000 0.89460  0.06452  0.94940  Biso   1.000  C
  C36      1.0000 0.10540  0.56452  0.55060  Biso   1.000  C
  H37      1.0000 0.80700  0.06660  0.99570  Biso   1.000  H
  H38      1.0000 0.19300  0.56660  0.50430  Biso   1.000  H
  H39      1.0000 0.19300  0.93340  0.00430  Biso   1.000  H
  H40      1.0000 0.80700  0.43340  0.49570  Biso   1.000  H
  C37      1.0000 0.98240  0.91088  0.97020  Biso   1.000  C
  C38      1.0000 0.01760  0.41088  0.52980  Biso   1.000  C
  C39      1.0000 0.01760  0.08912  0.02980  Biso   1.000  C
  C40      1.0000 0.98240  0.58912  0.47020  Biso   1.000  C
  H41      1.0000 0.01330  0.10860  0.12990  Biso   1.000  H
  H42      1.0000 0.98670  0.60860  0.37010  Biso   1.000  H
  H43      1.0000 0.98670  0.89140  0.87010  Biso   1.000  H
  H44      1.0000 0.01330  0.39140  0.62990  Biso   1.000  H
  C41      1.0000 0.85270  0.91534  0.03960  Biso   1.000  C
  C42      1.0000 0.14730  0.41534  0.46040  Biso   1.000  C
  C43      1.0000 0.14730  0.08466  0.96040  Biso   1.000  C
  C44      1.0000 0.85270  0.58466  0.53960  Biso   1.000  C
  C45      1.0000 0.15010  0.05691  0.80850  Biso   1.000  C
  C46      1.0000 0.84990  0.55691  0.69150  Biso   1.000  C
  C47      1.0000 0.84990  0.94309  0.19150  Biso   1.000  C
  C48      1.0000 0.15010  0.44309  0.30850  Biso   1.000  C
  H45      1.0000 0.23660  0.05440  0.76000  Biso   1.000  H
  H46      1.0000 0.76340  0.55440  0.74000  Biso   1.000  H
  H47      1.0000 0.76340  0.94560  0.24000  Biso   1.000  H
  H48      1.0000 0.23660  0.44560  0.26000  Biso   1.000  H
  C49      1.0000 0.71200  0.88966  0.95630  Biso   1.000  C
  C50      1.0000 0.28800  0.38966  0.54370  Biso   1.000  C
  C51      1.0000 0.28800  0.11034  0.04370  Biso   1.000  C
  C52      1.0000 0.71200  0.61034  0.45630  Biso   1.000  C
  C53      1.0000 0.22150  0.99267  0.30150  Biso   1.000  C
  C54      1.0000 0.77850  0.49267  0.19850  Biso   1.000  C
  C55      1.0000 0.77850  0.00733  0.69850  Biso   1.000  C
  C56      1.0000 0.22150  0.50733  0.80150  Biso   1.000  C
  H49      1.0000 0.68300  0.27700  0.35400  Biso   1.000  H
  H50      1.0000 0.31700  0.77700  0.14600  Biso   1.000  H
  H51      1.0000 0.31700  0.72300  0.64600  Biso   1.000  H
  H52      1.0000 0.68300  0.22300  0.85400  Biso   1.000  H
  H53      1.0000 0.75400  0.24210  0.47000  Biso   1.000  H
  H54      1.0000 0.24600  0.74210  0.03000  Biso   1.000  H
  H55      1.0000 0.24600  0.75790  0.53000  Biso   1.000  H
  H56      1.0000 0.75400  0.25790  0.97000  Biso   1.000  H
