data_image0
_cell_length_a       7.393
_cell_length_b       13.567
_cell_length_c       15.169
_cell_angle_alpha    72.623
_cell_angle_beta     76.15
_cell_angle_gamma    80.17

_symmetry_space_group_name_H-M    "P 1"
_symmetry_int_tables_number       1

loop_
  _symmetry_equiv_pos_as_xyz
  'x, y, z'

loop_
  _atom_site_label
  _atom_site_occupancy
  _atom_site_fract_x
  _atom_site_fract_y
  _atom_site_fract_z
  _atom_site_thermal_displace_type
  _atom_site_B_iso_or_equiv
  _atom_site_type_symbol
  Gd1      1.0000 0.96346  0.55471  0.19150  Biso   1.000  Gd
  Gd2      1.0000 0.03654  0.44529  0.80850  Biso   1.000  Gd
  Cu1      1.0000 0.00000  0.00000  0.50000  Biso   1.000  Cu
  Cu2      1.0000 0.05209  0.88980  0.84656  Biso   1.000  Cu
  Cu3      1.0000 0.94791  0.11020  0.15344  Biso   1.000  Cu
  N1       1.0000 0.84680  0.13130  0.51090  Biso   1.000  N
  N2       1.0000 0.15320  0.86870  0.48910  Biso   1.000  N
  N3       1.0000 0.86830  0.96570  0.92750  Biso   1.000  N
  N4       1.0000 0.13170  0.03430  0.07250  Biso   1.000  N
  N5       1.0000 0.73430  0.17950  0.22400  Biso   1.000  N
  N6       1.0000 0.26570  0.82050  0.77600  Biso   1.000  N
  O1       1.0000 0.08960  0.64490  0.27260  Biso   1.000  O
  O2       1.0000 0.91040  0.35510  0.72740  Biso   1.000  O
  O3       1.0000 0.65840  0.62200  0.25390  Biso   1.000  O
  O4       1.0000 0.34160  0.37800  0.74610  Biso   1.000  O
  O5       1.0000 0.21060  0.59200  0.05850  Biso   1.000  O
  O6       1.0000 0.78940  0.40800  0.94150  Biso   1.000  O
  O7       1.0000 0.00830  0.40380  0.12890  Biso   1.000  O
  O8       1.0000 0.99170  0.59620  0.87110  Biso   1.000  O
  O9       1.0000 0.78870  0.57960  0.06370  Biso   1.000  O
  O10      1.0000 0.21130  0.42040  0.93630  Biso   1.000  O
  O11      1.0000 0.81810  0.80110  0.82790  Biso   1.000  O
  O12      1.0000 0.18190  0.19890  0.17210  Biso   1.000  O
  O13      1.0000 0.84750  0.42410  0.32250  Biso   1.000  O
  O14      1.0000 0.15250  0.57590  0.67750  Biso   1.000  O
  O15      1.0000 0.55810  0.46740  0.39580  Biso   1.000  O
  O16      1.0000 0.44190  0.53260  0.60420  Biso   1.000  O
  O17      1.0000 0.62860  0.98970  0.73520  Biso   1.000  O
  O18      1.0000 0.37140  0.01030  0.26480  Biso   1.000  O
  O19      1.0000 0.85260  0.94310  0.62370  Biso   1.000  O
  O20      1.0000 0.14740  0.05690  0.37630  Biso   1.000  O
  O21      1.0000 0.58840  0.25630  0.84870  Biso   1.000  O
  O22      1.0000 0.41160  0.74370  0.15130  Biso   1.000  O
  O23      1.0000 0.42870  0.24480  0.99560  Biso   1.000  O
  O24      1.0000 0.57130  0.75520  0.00440  Biso   1.000  O
  O25      1.0000 0.90890  0.74380  0.11740  Biso   1.000  O
  O26      1.0000 0.09110  0.25620  0.88260  Biso   1.000  O
  O27      1.0000 0.05600  0.78270  0.96670  Biso   1.000  O
  O28      1.0000 0.94400  0.21730  0.03330  Biso   1.000  O
  O29      1.0000 0.48210  0.46840  0.12590  Biso   1.000  O
  O30      1.0000 0.51790  0.53160  0.87410  Biso   1.000  O
  O31      1.0000 0.23150  0.44380  0.24350  Biso   1.000  O
  O32      1.0000 0.76850  0.55620  0.75650  Biso   1.000  O
  O33      1.0000 0.74790  0.95610  0.41360  Biso   1.000  O
  O34      1.0000 0.25210  0.04390  0.58640  Biso   1.000  O
  O35      1.0000 0.90870  0.99510  0.26510  Biso   1.000  O
  O36      1.0000 0.09130  0.00490  0.73490  Biso   1.000  O
  C1       1.0000 0.71010  0.40880  0.38790  Biso   1.000  C
  C2       1.0000 0.28990  0.59120  0.61210  Biso   1.000  C
  C3       1.0000 0.71850  0.30750  0.46430  Biso   1.000  C
  C4       1.0000 0.28150  0.69250  0.53570  Biso   1.000  C
  C5       1.0000 0.58850  0.29310  0.54950  Biso   1.000  C
  C6       1.0000 0.41150  0.70690  0.45050  Biso   1.000  C
  C7       1.0000 0.59480  0.19920  0.61600  Biso   1.000  C
  C8       1.0000 0.40520  0.80080  0.38400  Biso   1.000  C
  C9       1.0000 0.71990  0.11860  0.59290  Biso   1.000  C
  C10      1.0000 0.28010  0.88140  0.40710  Biso   1.000  C
  C11      1.0000 0.84920  0.22440  0.44780  Biso   1.000  C
  C12      1.0000 0.15080  0.77560  0.55220  Biso   1.000  C
  C13      1.0000 0.73260  0.01020  0.65660  Biso   1.000  C
  C14      1.0000 0.26740  0.98980  0.34340  Biso   1.000  C
  C15      1.0000 0.54930  0.21160  0.93490  Biso   1.000  C
  C16      1.0000 0.45070  0.78840  0.06510  Biso   1.000  C
  C17      1.0000 0.65580  0.10580  0.96810  Biso   1.000  C
  C18      1.0000 0.34420  0.89420  0.03190  Biso   1.000  C
  C19      1.0000 0.62740  0.04940  0.06180  Biso   1.000  C
  C20      1.0000 0.37260  0.95060  0.93820  Biso   1.000  C
  C21      1.0000 0.71770  0.95060  0.08840  Biso   1.000  C
  C22      1.0000 0.28230  0.04940  0.91160  Biso   1.000  C
  C23      1.0000 0.83500  0.91060  0.01940  Biso   1.000  C
  C24      1.0000 0.16500  0.08940  0.98060  Biso   1.000  C
  C25      1.0000 0.77890  0.06140  0.90190  Biso   1.000  C
  C26      1.0000 0.22110  0.93860  0.09810  Biso   1.000  C
  C27      1.0000 0.93960  0.80330  0.03720  Biso   1.000  C
  C28      1.0000 0.06040  0.19670  0.96280  Biso   1.000  C
  C29      1.0000 0.39310  0.41710  0.20270  Biso   1.000  C
  C30      1.0000 0.60690  0.58290  0.79730  Biso   1.000  C
  C31      1.0000 0.48750  0.31350  0.24790  Biso   1.000  C
  C32      1.0000 0.51250  0.68650  0.75210  Biso   1.000  C
  C33      1.0000 0.41980  0.25130  0.33760  Biso   1.000  C
  C34      1.0000 0.58020  0.74870  0.66240  Biso   1.000  C
  C35      1.0000 0.51290  0.15380  0.37180  Biso   1.000  C
  C36      1.0000 0.48710  0.84620  0.62820  Biso   1.000  C
  C37      1.0000 0.66930  0.12040  0.31080  Biso   1.000  C
  C38      1.0000 0.33070  0.87960  0.68920  Biso   1.000  C
  C39      1.0000 0.64790  0.27500  0.19290  Biso   1.000  C
  C40      1.0000 0.35210  0.72500  0.80710  Biso   1.000  C
  C41      1.0000 0.78040  0.01510  0.33360  Biso   1.000  C
  C42      1.0000 0.21960  0.98490  0.66640  Biso   1.000  C
  O37      1.0000 0.83410  0.56810  0.54050  Biso   1.000  O
  O38      1.0000 0.16590  0.43190  0.45950  Biso   1.000  O
  O39      1.0000 0.09980  0.25160  0.60530  Biso   1.000  O
  O40      1.0000 0.90020  0.74840  0.39470  Biso   1.000  O
