data_image0
_cell_length_a       23.7
_cell_length_b       25.162
_cell_length_c       9.693
_cell_angle_alpha    90
_cell_angle_beta     90
_cell_angle_gamma    90

_symmetry_space_group_name_H-M    "P 1"
_symmetry_int_tables_number       1

loop_
  _symmetry_equiv_pos_as_xyz
  'x, y, z'

loop_
  _atom_site_label
  _atom_site_occupancy
  _atom_site_fract_x
  _atom_site_fract_y
  _atom_site_fract_z
  _atom_site_thermal_displace_type
  _atom_site_B_iso_or_equiv
  _atom_site_type_symbol
  Cu1      1.0000 0.38431  0.34466  0.71760  Biso   1.000  Cu
  Cu2      1.0000 0.61569  0.84466  0.28240  Biso   1.000  Cu
  Cu3      1.0000 0.11569  0.84466  0.71760  Biso   1.000  Cu
  Cu4      1.0000 0.88431  0.34466  0.28240  Biso   1.000  Cu
  Cu5      1.0000 0.47944  0.22817  0.99713  Biso   1.000  Cu
  Cu6      1.0000 0.52056  0.72817  0.00287  Biso   1.000  Cu
  Cu7      1.0000 0.02056  0.72817  0.99713  Biso   1.000  Cu
  Cu8      1.0000 0.97944  0.22817  0.00287  Biso   1.000  Cu
  Cu9      1.0000 0.36508  0.08227  0.21687  Biso   1.000  Cu
  Cu10     1.0000 0.63492  0.58227  0.78313  Biso   1.000  Cu
  Cu11     1.0000 0.13492  0.58227  0.21687  Biso   1.000  Cu
  Cu12     1.0000 0.86508  0.08227  0.78313  Biso   1.000  Cu
  Cu13     1.0000 0.27181  0.19883  0.49822  Biso   1.000  Cu
  Cu14     1.0000 0.72819  0.69883  0.50178  Biso   1.000  Cu
  Cu15     1.0000 0.22819  0.69883  0.49822  Biso   1.000  Cu
  Cu16     1.0000 0.77181  0.19883  0.50178  Biso   1.000  Cu
  N1       1.0000 0.39280  0.40160  0.85810  Biso   1.000  N
  N2       1.0000 0.60720  0.90160  0.14190  Biso   1.000  N
  N3       1.0000 0.10720  0.90160  0.85810  Biso   1.000  N
  N4       1.0000 0.89280  0.40160  0.14190  Biso   1.000  N
  N5       1.0000 0.43160  0.39480  0.60990  Biso   1.000  N
  N6       1.0000 0.56840  0.89480  0.39010  Biso   1.000  N
  N7       1.0000 0.06840  0.89480  0.60990  Biso   1.000  N
  N8       1.0000 0.93160  0.39480  0.39010  Biso   1.000  N
  C1       1.0000 0.37370  0.40050  0.98630  Biso   1.000  C
  C2       1.0000 0.62630  0.90050  0.01370  Biso   1.000  C
  C3       1.0000 0.12630  0.90050  0.98630  Biso   1.000  C
  C4       1.0000 0.87370  0.40050  0.01370  Biso   1.000  C
  H1       1.0000 0.35370  0.37090  0.01600  Biso   1.000  H
  H2       1.0000 0.64630  0.87090  0.98400  Biso   1.000  H
  H3       1.0000 0.14630  0.87090  0.01600  Biso   1.000  H
  H4       1.0000 0.85370  0.37090  0.98400  Biso   1.000  H
  C5       1.0000 0.38240  0.44250  0.07900  Biso   1.000  C
  C6       1.0000 0.61760  0.94250  0.92100  Biso   1.000  C
  C7       1.0000 0.11760  0.94250  0.07900  Biso   1.000  C
  C8       1.0000 0.88240  0.44250  0.92100  Biso   1.000  C
  H5       1.0000 0.36800  0.44120  0.16810  Biso   1.000  H
  H6       1.0000 0.63200  0.94120  0.83190  Biso   1.000  H
  H7       1.0000 0.13200  0.94120  0.16810  Biso   1.000  H
  H8       1.0000 0.86800  0.44120  0.83190  Biso   1.000  H
  C9       1.0000 0.41270  0.48520  0.03430  Biso   1.000  C
  C10      1.0000 0.58730  0.98520  0.96570  Biso   1.000  C
  C11      1.0000 0.08730  0.98520  0.03430  Biso   1.000  C
  C12      1.0000 0.91270  0.48520  0.96570  Biso   1.000  C
  H9       1.0000 0.41970  0.51360  0.09340  Biso   1.000  H
  H10      1.0000 0.58030  0.01360  0.90660  Biso   1.000  H
  H11      1.0000 0.08030  0.01360  0.09340  Biso   1.000  H
  H12      1.0000 0.91970  0.51360  0.90660  Biso   1.000  H
  C13      1.0000 0.43280  0.48610  0.90250  Biso   1.000  C
  C14      1.0000 0.56720  0.98610  0.09750  Biso   1.000  C
  C15      1.0000 0.06720  0.98610  0.90250  Biso   1.000  C
  C16      1.0000 0.93280  0.48610  0.09750  Biso   1.000  C
  H13      1.0000 0.45320  0.51530  0.87140  Biso   1.000  H
  H14      1.0000 0.54680  0.01530  0.12860  Biso   1.000  H
  H15      1.0000 0.04680  0.01530  0.87140  Biso   1.000  H
  H16      1.0000 0.95320  0.51530  0.12860  Biso   1.000  H
  C17      1.0000 0.42310  0.44450  0.81650  Biso   1.000  C
  C18      1.0000 0.57690  0.94450  0.18350  Biso   1.000  C
  C19      1.0000 0.07690  0.94450  0.81650  Biso   1.000  C
  C20      1.0000 0.92310  0.44450  0.18350  Biso   1.000  C
  C21      1.0000 0.44380  0.44060  0.67200  Biso   1.000  C
  C22      1.0000 0.55620  0.94060  0.32800  Biso   1.000  C
  C23      1.0000 0.05620  0.94060  0.67200  Biso   1.000  C
  C24      1.0000 0.94380  0.44060  0.32800  Biso   1.000  C
  C25      1.0000 0.47170  0.48090  0.60540  Biso   1.000  C
  C26      1.0000 0.52830  0.98090  0.39460  Biso   1.000  C
  C27      1.0000 0.02830  0.98090  0.60540  Biso   1.000  C
  C28      1.0000 0.97170  0.48090  0.39460  Biso   1.000  C
  H17      1.0000 0.48090  0.51190  0.65260  Biso   1.000  H
  H18      1.0000 0.51910  0.01190  0.34740  Biso   1.000  H
  H19      1.0000 0.01910  0.01190  0.65260  Biso   1.000  H
  H20      1.0000 0.98090  0.51190  0.34740  Biso   1.000  H
  C29      1.0000 0.48610  0.47540  0.46940  Biso   1.000  C
  C30      1.0000 0.51390  0.97540  0.53060  Biso   1.000  C
  C31      1.0000 0.01390  0.97540  0.46940  Biso   1.000  C
  C32      1.0000 0.98610  0.47540  0.53060  Biso   1.000  C
  H21      1.0000 0.50370  0.50300  0.42230  Biso   1.000  H
  H22      1.0000 0.49630  0.00300  0.57770  Biso   1.000  H
  H23      1.0000 0.99630  0.00300  0.42230  Biso   1.000  H
  H24      1.0000 0.00370  0.50300  0.57770  Biso   1.000  H
  C33      1.0000 0.47380  0.42750  0.40220  Biso   1.000  C
  C34      1.0000 0.52620  0.92750  0.59780  Biso   1.000  C
  C35      1.0000 0.02620  0.92750  0.40220  Biso   1.000  C
  C36      1.0000 0.97380  0.42750  0.59780  Biso   1.000  C
  H25      1.0000 0.48330  0.42240  0.31010  Biso   1.000  H
  H26      1.0000 0.51670  0.92240  0.68990  Biso   1.000  H
  H27      1.0000 0.01670  0.92240  0.31010  Biso   1.000  H
  H28      1.0000 0.98330  0.42240  0.68990  Biso   1.000  H
  C37      1.0000 0.44700  0.38790  0.47740  Biso   1.000  C
  C38      1.0000 0.55300  0.88790  0.52260  Biso   1.000  C
  C39      1.0000 0.05300  0.88790  0.47740  Biso   1.000  C
  C40      1.0000 0.94700  0.38790  0.52260  Biso   1.000  C
  H29      1.0000 0.43930  0.35560  0.43480  Biso   1.000  H
  H30      1.0000 0.56070  0.85560  0.56520  Biso   1.000  H
  H31      1.0000 0.06070  0.85560  0.43480  Biso   1.000  H
  H32      1.0000 0.93930  0.35560  0.56520  Biso   1.000  H
  N9       1.0000 0.54270  0.18980  0.08550  Biso   1.000  N
  N10      1.0000 0.45730  0.68980  0.91450  Biso   1.000  N
  N11      1.0000 0.95730  0.68980  0.08550  Biso   1.000  N
  N12      1.0000 0.04270  0.18980  0.91450  Biso   1.000  N
  N13      1.0000 0.54230  0.26250  0.89620  Biso   1.000  N
  N14      1.0000 0.45770  0.76250  0.10380  Biso   1.000  N
  N15      1.0000 0.95770  0.76250  0.89620  Biso   1.000  N
  N16      1.0000 0.04230  0.26250  0.10380  Biso   1.000  N
  C41      1.0000 0.53820  0.15300  0.18410  Biso   1.000  C
  C42      1.0000 0.46180  0.65300  0.81590  Biso   1.000  C
  C43      1.0000 0.96180  0.65300  0.18410  Biso   1.000  C
  C44      1.0000 0.03820  0.15300  0.81590  Biso   1.000  C
  H33      1.0000 0.50230  0.14480  0.21670  Biso   1.000  H
  H34      1.0000 0.49770  0.64480  0.78330  Biso   1.000  H
  H35      1.0000 0.99770  0.64480  0.21670  Biso   1.000  H
  H36      1.0000 0.00230  0.14480  0.78330  Biso   1.000  H
  C45      1.0000 0.58230  0.12700  0.23920  Biso   1.000  C
  C46      1.0000 0.41770  0.62700  0.76080  Biso   1.000  C
  C47      1.0000 0.91770  0.62700  0.23920  Biso   1.000  C
  C48      1.0000 0.08230  0.12700  0.76080  Biso   1.000  C
  H37      1.0000 0.57710  0.10130  0.30690  Biso   1.000  H
  H38      1.0000 0.42290  0.60130  0.69310  Biso   1.000  H
  H39      1.0000 0.92290  0.60130  0.30690  Biso   1.000  H
  H40      1.0000 0.07710  0.10130  0.69310  Biso   1.000  H
  C49      1.0000 0.63720  0.14000  0.19100  Biso   1.000  C
  C50      1.0000 0.36280  0.64000  0.80900  Biso   1.000  C
  C51      1.0000 0.86280  0.64000  0.19100  Biso   1.000  C
  C52      1.0000 0.13720  0.14000  0.80900  Biso   1.000  C
  H41      1.0000 0.66900  0.12290  0.22550  Biso   1.000  H
  H42      1.0000 0.33100  0.62290  0.77450  Biso   1.000  H
  H43      1.0000 0.83100  0.62290  0.22550  Biso   1.000  H
  H44      1.0000 0.16900  0.12290  0.77450  Biso   1.000  H
  C53      1.0000 0.64180  0.17900  0.09100  Biso   1.000  C
  C54      1.0000 0.35820  0.67900  0.90900  Biso   1.000  C
  C55      1.0000 0.85820  0.67900  0.09100  Biso   1.000  C
  C56      1.0000 0.14180  0.17900  0.90900  Biso   1.000  C
  H45      1.0000 0.67720  0.18860  0.05790  Biso   1.000  H
  H46      1.0000 0.32280  0.68860  0.94210  Biso   1.000  H
  H47      1.0000 0.82280  0.68860  0.05790  Biso   1.000  H
  H48      1.0000 0.17720  0.18860  0.94210  Biso   1.000  H
  C57      1.0000 0.59370  0.20400  0.03960  Biso   1.000  C
  C58      1.0000 0.40630  0.70400  0.96040  Biso   1.000  C
  C59      1.0000 0.90630  0.70400  0.03960  Biso   1.000  C
  C60      1.0000 0.09370  0.20400  0.96040  Biso   1.000  C
  C61      1.0000 0.59400  0.24510  0.93610  Biso   1.000  C
  C62      1.0000 0.40600  0.74510  0.06390  Biso   1.000  C
  C63      1.0000 0.90600  0.74510  0.93610  Biso   1.000  C
  C64      1.0000 0.09400  0.24510  0.06390  Biso   1.000  C
  C65      1.0000 0.64140  0.26620  0.87050  Biso   1.000  C
  C66      1.0000 0.35860  0.76620  0.12950  Biso   1.000  C
  C67      1.0000 0.85860  0.76620  0.87050  Biso   1.000  C
  C68      1.0000 0.14140  0.26620  0.12950  Biso   1.000  C
  H49      1.0000 0.67710  0.25450  0.89660  Biso   1.000  H
  H50      1.0000 0.32290  0.75450  0.10340  Biso   1.000  H
  H51      1.0000 0.82290  0.75450  0.89660  Biso   1.000  H
  H52      1.0000 0.17710  0.25450  0.10340  Biso   1.000  H
  C69      1.0000 0.63660  0.30340  0.76940  Biso   1.000  C
  C70      1.0000 0.36340  0.80340  0.23060  Biso   1.000  C
  C71      1.0000 0.86340  0.80340  0.76940  Biso   1.000  C
  C72      1.0000 0.13660  0.30340  0.23060  Biso   1.000  C
  H53      1.0000 0.66850  0.31640  0.72490  Biso   1.000  H
  H54      1.0000 0.33150  0.81640  0.27510  Biso   1.000  H
  H55      1.0000 0.83150  0.81640  0.72490  Biso   1.000  H
  H56      1.0000 0.16850  0.31640  0.27510  Biso   1.000  H
  C73      1.0000 0.58300  0.32160  0.73350  Biso   1.000  C
  C74      1.0000 0.41700  0.82160  0.26650  Biso   1.000  C
  C75      1.0000 0.91700  0.82160  0.73350  Biso   1.000  C
  C76      1.0000 0.08300  0.32160  0.26650  Biso   1.000  C
  H57      1.0000 0.57810  0.34870  0.66930  Biso   1.000  H
  H58      1.0000 0.42190  0.84870  0.33070  Biso   1.000  H
  H59      1.0000 0.92190  0.84870  0.66930  Biso   1.000  H
  H60      1.0000 0.07810  0.34870  0.33070  Biso   1.000  H
  C77      1.0000 0.53730  0.29740  0.79820  Biso   1.000  C
  C78      1.0000 0.46270  0.79740  0.20180  Biso   1.000  C
  C79      1.0000 0.96270  0.79740  0.79820  Biso   1.000  C
  C80      1.0000 0.03730  0.29740  0.20180  Biso   1.000  C
  H61      1.0000 0.50120  0.30670  0.76960  Biso   1.000  H
  H62      1.0000 0.49880  0.80670  0.23040  Biso   1.000  H
  H63      1.0000 0.99880  0.80670  0.76960  Biso   1.000  H
  H64      1.0000 0.00120  0.30670  0.23040  Biso   1.000  H
  N17      1.0000 0.31600  0.03290  0.10690  Biso   1.000  N
  N18      1.0000 0.68400  0.53290  0.89310  Biso   1.000  N
  N19      1.0000 0.18400  0.53290  0.10690  Biso   1.000  N
  N20      1.0000 0.81600  0.03290  0.89310  Biso   1.000  N
  N21      1.0000 0.35680  0.02330  0.35350  Biso   1.000  N
  N22      1.0000 0.64320  0.52330  0.64650  Biso   1.000  N
  N23      1.0000 0.14320  0.52330  0.35350  Biso   1.000  N
  N24      1.0000 0.85680  0.02330  0.64650  Biso   1.000  N
  C81      1.0000 0.30030  0.04090  0.97870  Biso   1.000  C
  C82      1.0000 0.69970  0.54090  0.02130  Biso   1.000  C
  C83      1.0000 0.19970  0.54090  0.97870  Biso   1.000  C
  C84      1.0000 0.80030  0.04090  0.02130  Biso   1.000  C
  H65      1.0000 0.30780  0.07360  0.93780  Biso   1.000  H
  H66      1.0000 0.69220  0.57360  0.06220  Biso   1.000  H
  H67      1.0000 0.19220  0.57360  0.93780  Biso   1.000  H
  H68      1.0000 0.80780  0.07360  0.06220  Biso   1.000  H
  C85      1.0000 0.27300  0.00210  0.90220  Biso   1.000  C
  C86      1.0000 0.72700  0.50210  0.09780  Biso   1.000  C
  C87      1.0000 0.22700  0.50210  0.90220  Biso   1.000  C
  C88      1.0000 0.77300  0.00210  0.09780  Biso   1.000  C
  H69      1.0000 0.26300  0.00800  0.81070  Biso   1.000  H
  H70      1.0000 0.73700  0.50800  0.18930  Biso   1.000  H
  H71      1.0000 0.23700  0.50800  0.81070  Biso   1.000  H
  H72      1.0000 0.76300  0.00800  0.18930  Biso   1.000  H
  C89      1.0000 0.26120  0.95520  0.96600  Biso   1.000  C
  C90      1.0000 0.73880  0.45520  0.03400  Biso   1.000  C
  C91      1.0000 0.23880  0.45520  0.96600  Biso   1.000  C
  C92      1.0000 0.76120  0.95520  0.03400  Biso   1.000  C
  H73      1.0000 0.24200  0.92870  0.91850  Biso   1.000  H
  H74      1.0000 0.75800  0.42870  0.08150  Biso   1.000  H
  H75      1.0000 0.25800  0.42870  0.91850  Biso   1.000  H
  H76      1.0000 0.74200  0.92870  0.08150  Biso   1.000  H
  C93      1.0000 0.27740  0.94700  0.09840  Biso   1.000  C
  C94      1.0000 0.72260  0.44700  0.90160  Biso   1.000  C
  C95      1.0000 0.22260  0.44700  0.09840  Biso   1.000  C
  C96      1.0000 0.77740  0.94700  0.90160  Biso   1.000  C
  H77      1.0000 0.26980  0.91490  0.14220  Biso   1.000  H
  H78      1.0000 0.73020  0.41490  0.85780  Biso   1.000  H
  H79      1.0000 0.23020  0.41490  0.14220  Biso   1.000  H
  H80      1.0000 0.76980  0.91490  0.85780  Biso   1.000  H
  C97      1.0000 0.30500  0.98630  0.16590  Biso   1.000  C
  C98      1.0000 0.69500  0.48630  0.83410  Biso   1.000  C
  C99      1.0000 0.19500  0.48630  0.16590  Biso   1.000  C
  C100     1.0000 0.80500  0.98630  0.83410  Biso   1.000  C
  C101     1.0000 0.32520  0.98200  0.30960  Biso   1.000  C
  C102     1.0000 0.67480  0.48200  0.69040  Biso   1.000  C
  C103     1.0000 0.17480  0.48200  0.30960  Biso   1.000  C
  C104     1.0000 0.82520  0.98200  0.69040  Biso   1.000  C
  C105     1.0000 0.31440  0.93990  0.39520  Biso   1.000  C
  C106     1.0000 0.68560  0.43990  0.60480  Biso   1.000  C
  C107     1.0000 0.18560  0.43990  0.39520  Biso   1.000  C
  C108     1.0000 0.81440  0.93990  0.60480  Biso   1.000  C
  H81      1.0000 0.29350  0.91120  0.36320  Biso   1.000  H
  H82      1.0000 0.70650  0.41120  0.63680  Biso   1.000  H
  H83      1.0000 0.20650  0.41120  0.36320  Biso   1.000  H
  H84      1.0000 0.79350  0.91120  0.63680  Biso   1.000  H
  C109     1.0000 0.33460  0.94010  0.52980  Biso   1.000  C
  C110     1.0000 0.66540  0.44010  0.47020  Biso   1.000  C
  C111     1.0000 0.16540  0.44010  0.52980  Biso   1.000  C
  C112     1.0000 0.83460  0.94010  0.47020  Biso   1.000  C
  H85      1.0000 0.32670  0.91220  0.58990  Biso   1.000  H
  H86      1.0000 0.67330  0.41220  0.41010  Biso   1.000  H
  H87      1.0000 0.17330  0.41220  0.58990  Biso   1.000  H
  H88      1.0000 0.82670  0.91220  0.41010  Biso   1.000  H
  C113     1.0000 0.36690  0.98290  0.57110  Biso   1.000  C
  C114     1.0000 0.63310  0.48290  0.42890  Biso   1.000  C
  C115     1.0000 0.13310  0.48290  0.57110  Biso   1.000  C
  C116     1.0000 0.86690  0.98290  0.42890  Biso   1.000  C
  H89      1.0000 0.38190  0.98400  0.65970  Biso   1.000  H
  H90      1.0000 0.61810  0.48400  0.34030  Biso   1.000  H
  H91      1.0000 0.11810  0.48400  0.65970  Biso   1.000  H
  H92      1.0000 0.88190  0.98400  0.34030  Biso   1.000  H
  C117     1.0000 0.37650  0.02330  0.48210  Biso   1.000  C
  C118     1.0000 0.62350  0.52330  0.51790  Biso   1.000  C
  C119     1.0000 0.12350  0.52330  0.48210  Biso   1.000  C
  C120     1.0000 0.87650  0.02330  0.51790  Biso   1.000  C
  H93      1.0000 0.39770  0.05220  0.51180  Biso   1.000  H
  H94      1.0000 0.60230  0.55220  0.48820  Biso   1.000  H
  H95      1.0000 0.10230  0.55220  0.51180  Biso   1.000  H
  H96      1.0000 0.89770  0.05220  0.48820  Biso   1.000  H
  N25      1.0000 0.20850  0.23710  0.58810  Biso   1.000  N
  N26      1.0000 0.79150  0.73710  0.41190  Biso   1.000  N
  N27      1.0000 0.29150  0.73710  0.58810  Biso   1.000  N
  N28      1.0000 0.70850  0.23710  0.41190  Biso   1.000  N
  N29      1.0000 0.20850  0.16660  0.39510  Biso   1.000  N
  N30      1.0000 0.79150  0.66660  0.60490  Biso   1.000  N
  N31      1.0000 0.29150  0.66660  0.39510  Biso   1.000  N
  N32      1.0000 0.70850  0.16660  0.60490  Biso   1.000  N
  C121     1.0000 0.21460  0.27430  0.68460  Biso   1.000  C
  C122     1.0000 0.78540  0.77430  0.31540  Biso   1.000  C
  C123     1.0000 0.28540  0.77430  0.68460  Biso   1.000  C
  C124     1.0000 0.71460  0.27430  0.31540  Biso   1.000  C
  H97      1.0000 0.25060  0.28310  0.71520  Biso   1.000  H
  H98      1.0000 0.74940  0.78310  0.28480  Biso   1.000  H
  H99      1.0000 0.24940  0.78310  0.71520  Biso   1.000  H
  H100     1.0000 0.75060  0.28310  0.28480  Biso   1.000  H
  C125     1.0000 0.16790  0.30050  0.74050  Biso   1.000  C
  C126     1.0000 0.83210  0.80050  0.25950  Biso   1.000  C
  C127     1.0000 0.33210  0.80050  0.74050  Biso   1.000  C
  C128     1.0000 0.66790  0.30050  0.25950  Biso   1.000  C
  H101     1.0000 0.17250  0.32500  0.81130  Biso   1.000  H
  H102     1.0000 0.82750  0.82500  0.18870  Biso   1.000  H
  H103     1.0000 0.32750  0.82500  0.81130  Biso   1.000  H
  H104     1.0000 0.67250  0.32500  0.18870  Biso   1.000  H
  C129     1.0000 0.11750  0.29000  0.69180  Biso   1.000  C
  C130     1.0000 0.88250  0.79000  0.30820  Biso   1.000  C
  C131     1.0000 0.38250  0.79000  0.69180  Biso   1.000  C
  C132     1.0000 0.61750  0.29000  0.30820  Biso   1.000  C
  H105     1.0000 0.08650  0.30840  0.72650  Biso   1.000  H
  H106     1.0000 0.91350  0.80840  0.27350  Biso   1.000  H
  H107     1.0000 0.41350  0.80840  0.72650  Biso   1.000  H
  H108     1.0000 0.58650  0.30840  0.27350  Biso   1.000  H
  C133     1.0000 0.10910  0.25180  0.58890  Biso   1.000  C
  C134     1.0000 0.89090  0.75180  0.41110  Biso   1.000  C
  C135     1.0000 0.39090  0.75180  0.58890  Biso   1.000  C
  C136     1.0000 0.60910  0.25180  0.41110  Biso   1.000  C
  H109     1.0000 0.07330  0.24430  0.55520  Biso   1.000  H
  H110     1.0000 0.92670  0.74430  0.44480  Biso   1.000  H
  H111     1.0000 0.42670  0.74430  0.55520  Biso   1.000  H
  H112     1.0000 0.57330  0.24430  0.44480  Biso   1.000  H
  C137     1.0000 0.15750  0.22490  0.53810  Biso   1.000  C
  C138     1.0000 0.84250  0.72490  0.46190  Biso   1.000  C
  C139     1.0000 0.34250  0.72490  0.53810  Biso   1.000  C
  C140     1.0000 0.65750  0.22490  0.46190  Biso   1.000  C
  C141     1.0000 0.15700  0.18330  0.43040  Biso   1.000  C
  C142     1.0000 0.84300  0.68330  0.56960  Biso   1.000  C
  C143     1.0000 0.34300  0.68330  0.43040  Biso   1.000  C
  C144     1.0000 0.65700  0.18330  0.56960  Biso   1.000  C
  C145     1.0000 0.10890  0.16410  0.36830  Biso   1.000  C
  C146     1.0000 0.89110  0.66410  0.63170  Biso   1.000  C
  C147     1.0000 0.39110  0.66410  0.36830  Biso   1.000  C
  C148     1.0000 0.60890  0.16410  0.63170  Biso   1.000  C
  H113     1.0000 0.07350  0.17640  0.39440  Biso   1.000  H
  H114     1.0000 0.92650  0.67640  0.60560  Biso   1.000  H
  H115     1.0000 0.42650  0.67640  0.39440  Biso   1.000  H
  H116     1.0000 0.57350  0.17640  0.60560  Biso   1.000  H
  C149     1.0000 0.11450  0.12680  0.26780  Biso   1.000  C
  C150     1.0000 0.88550  0.62680  0.73220  Biso   1.000  C
  C151     1.0000 0.38550  0.62680  0.26780  Biso   1.000  C
  C152     1.0000 0.61450  0.12680  0.73220  Biso   1.000  C
  H117     1.0000 0.08270  0.11180  0.22730  Biso   1.000  H
  H118     1.0000 0.91730  0.61180  0.77270  Biso   1.000  H
  H119     1.0000 0.41730  0.61180  0.22730  Biso   1.000  H
  H120     1.0000 0.58270  0.11180  0.77270  Biso   1.000  H
  C153     1.0000 0.16810  0.11130  0.22620  Biso   1.000  C
  C154     1.0000 0.83190  0.61130  0.77380  Biso   1.000  C
  C155     1.0000 0.33190  0.61130  0.22620  Biso   1.000  C
  C156     1.0000 0.66810  0.11130  0.77380  Biso   1.000  C
  H121     1.0000 0.17270  0.08800  0.15260  Biso   1.000  H
  H122     1.0000 0.82730  0.58800  0.84740  Biso   1.000  H
  H123     1.0000 0.32730  0.58800  0.15260  Biso   1.000  H
  H124     1.0000 0.67270  0.08800  0.84740  Biso   1.000  H
  C157     1.0000 0.21330  0.13060  0.29410  Biso   1.000  C
  C158     1.0000 0.78670  0.63060  0.70590  Biso   1.000  C
  C159     1.0000 0.28670  0.63060  0.29410  Biso   1.000  C
  C160     1.0000 0.71330  0.13060  0.70590  Biso   1.000  C
  H125     1.0000 0.24910  0.11840  0.27000  Biso   1.000  H
  H126     1.0000 0.75090  0.61840  0.73000  Biso   1.000  H
  H127     1.0000 0.25090  0.61840  0.27000  Biso   1.000  H
  H128     1.0000 0.74910  0.11840  0.73000  Biso   1.000  H
  O1       1.0000 0.34150  0.29700  0.83950  Biso   1.000  O
  O2       1.0000 0.65850  0.79700  0.16050  Biso   1.000  O
  O3       1.0000 0.15850  0.79700  0.83950  Biso   1.000  O
  O4       1.0000 0.84150  0.29700  0.16050  Biso   1.000  O
  O5       1.0000 0.42460  0.27150  0.90780  Biso   1.000  O
  O6       1.0000 0.57540  0.77150  0.09220  Biso   1.000  O
  O7       1.0000 0.07540  0.77150  0.90780  Biso   1.000  O
  O8       1.0000 0.92460  0.27150  0.09220  Biso   1.000  O
  O9       1.0000 0.34290  0.14060  0.09400  Biso   1.000  O
  O10      1.0000 0.65710  0.64060  0.90600  Biso   1.000  O
  O11      1.0000 0.15710  0.64060  0.09400  Biso   1.000  O
  O12      1.0000 0.84290  0.14060  0.90600  Biso   1.000  O
  O13      1.0000 0.42380  0.18290  0.08080  Biso   1.000  O
  O14      1.0000 0.57620  0.68290  0.91920  Biso   1.000  O
  O15      1.0000 0.07620  0.68290  0.08080  Biso   1.000  O
  O16      1.0000 0.92380  0.18290  0.91920  Biso   1.000  O
  C161     1.0000 0.37190  0.26420  0.89900  Biso   1.000  C
  C162     1.0000 0.62810  0.76420  0.10100  Biso   1.000  C
  C163     1.0000 0.12810  0.76420  0.89900  Biso   1.000  C
  C164     1.0000 0.87190  0.26420  0.10100  Biso   1.000  C
  C165     1.0000 0.34180  0.21650  0.95660  Biso   1.000  C
  C166     1.0000 0.65820  0.71650  0.04340  Biso   1.000  C
  C167     1.0000 0.15820  0.71650  0.95660  Biso   1.000  C
  C168     1.0000 0.84180  0.21650  0.04340  Biso   1.000  C
  H129     1.0000 0.32790  0.19600  0.87890  Biso   1.000  H
  H130     1.0000 0.67210  0.69600  0.12110  Biso   1.000  H
  H131     1.0000 0.17210  0.69600  0.87890  Biso   1.000  H
  H132     1.0000 0.82790  0.19600  0.12110  Biso   1.000  H
  H133     1.0000 0.30900  0.22940  0.00620  Biso   1.000  H
  H134     1.0000 0.69100  0.72940  0.99380  Biso   1.000  H
  H135     1.0000 0.19100  0.72940  0.00620  Biso   1.000  H
  H136     1.0000 0.80900  0.22940  0.99380  Biso   1.000  H
  C169     1.0000 0.37220  0.17840  0.05080  Biso   1.000  C
  C170     1.0000 0.62780  0.67840  0.94920  Biso   1.000  C
  C171     1.0000 0.12780  0.67840  0.05080  Biso   1.000  C
  C172     1.0000 0.87220  0.17840  0.94920  Biso   1.000  C
  O17      1.0000 0.32770  0.24250  0.58340  Biso   1.000  O
  O18      1.0000 0.67230  0.74250  0.41660  Biso   1.000  O
  O19      1.0000 0.17230  0.74250  0.58340  Biso   1.000  O
  O20      1.0000 0.82770  0.24250  0.41660  Biso   1.000  O
  O21      1.0000 0.40770  0.28610  0.59250  Biso   1.000  O
  O22      1.0000 0.59230  0.78610  0.40750  Biso   1.000  O
  O23      1.0000 0.09230  0.78610  0.59250  Biso   1.000  O
  O24      1.0000 0.90770  0.28610  0.40750  Biso   1.000  O
  O25      1.0000 0.32660  0.15620  0.40710  Biso   1.000  O
  O26      1.0000 0.67340  0.65620  0.59290  Biso   1.000  O
  O27      1.0000 0.17340  0.65620  0.40710  Biso   1.000  O
  O28      1.0000 0.82660  0.15620  0.59290  Biso   1.000  O
  O29      1.0000 0.40950  0.12930  0.33720  Biso   1.000  O
  O30      1.0000 0.59050  0.62930  0.66280  Biso   1.000  O
  O31      1.0000 0.09050  0.62930  0.33720  Biso   1.000  O
  O32      1.0000 0.90950  0.12930  0.66280  Biso   1.000  O
  C173     1.0000 0.37890  0.24740  0.54950  Biso   1.000  C
  C174     1.0000 0.62110  0.74740  0.45050  Biso   1.000  C
  C175     1.0000 0.12110  0.74740  0.54950  Biso   1.000  C
  C176     1.0000 0.87890  0.24740  0.45050  Biso   1.000  C
  C177     1.0000 0.40950  0.20960  0.46100  Biso   1.000  C
  C178     1.0000 0.59050  0.70960  0.53900  Biso   1.000  C
  C179     1.0000 0.09050  0.70960  0.46100  Biso   1.000  C
  C180     1.0000 0.90950  0.20960  0.53900  Biso   1.000  C
  H137     1.0000 0.44140  0.19650  0.51380  Biso   1.000  H
  H138     1.0000 0.55860  0.69650  0.48620  Biso   1.000  H
  H139     1.0000 0.05860  0.69650  0.51380  Biso   1.000  H
  H140     1.0000 0.94140  0.19650  0.48620  Biso   1.000  H
  H141     1.0000 0.42490  0.22970  0.38430  Biso   1.000  H
  H142     1.0000 0.57510  0.72970  0.61570  Biso   1.000  H
  H143     1.0000 0.07510  0.72970  0.38430  Biso   1.000  H
  H144     1.0000 0.92490  0.22970  0.61570  Biso   1.000  H
  C181     1.0000 0.37970  0.16150  0.40060  Biso   1.000  C
  C182     1.0000 0.62030  0.66150  0.59940  Biso   1.000  C
  C183     1.0000 0.12030  0.66150  0.40060  Biso   1.000  C
  C184     1.0000 0.87970  0.16150  0.59940  Biso   1.000  C
  O33      1.0000 0.30360  0.37130  0.62110  Biso   1.000  O
  O34      1.0000 0.69640  0.87130  0.37890  Biso   1.000  O
  O35      1.0000 0.19640  0.87130  0.62110  Biso   1.000  O
  O36      1.0000 0.80360  0.37130  0.37890  Biso   1.000  O
  O37      1.0000 0.44320  0.05130  0.11450  Biso   1.000  O
  O38      1.0000 0.55680  0.55130  0.88550  Biso   1.000  O
  O39      1.0000 0.05680  0.55130  0.11450  Biso   1.000  O
  O40      1.0000 0.94320  0.05130  0.88550  Biso   1.000  O
  O41      1.0000 0.47480  0.29550  0.18650  Biso   1.000  O
  O42      1.0000 0.52520  0.79550  0.81350  Biso   1.000  O
  O43      1.0000 0.02520  0.79550  0.18650  Biso   1.000  O
  O44      1.0000 0.97480  0.29550  0.81350  Biso   1.000  O
  O45      1.0000 0.27700  0.12870  0.68150  Biso   1.000  O
  O46      1.0000 0.72300  0.62870  0.31850  Biso   1.000  O
  O47      1.0000 0.22300  0.62870  0.68150  Biso   1.000  O
  O48      1.0000 0.77700  0.12870  0.31850  Biso   1.000  O
  Cl1      1.0000 0.29713  0.30721  0.25120  Biso   1.000  Cl
  Cl2      1.0000 0.70287  0.80721  0.74880  Biso   1.000  Cl
  Cl3      1.0000 0.20287  0.80721  0.25120  Biso   1.000  Cl
  Cl4      1.0000 0.79713  0.30721  0.74880  Biso   1.000  Cl
  O49      1.0000 0.27340  0.32170  0.12400  Biso   1.000  O
  O50      1.0000 0.72660  0.82170  0.87600  Biso   1.000  O
  O51      1.0000 0.22660  0.82170  0.12400  Biso   1.000  O
  O52      1.0000 0.77340  0.32170  0.87600  Biso   1.000  O
  O53      1.0000 0.35370  0.30370  0.25200  Biso   1.000  O
  O54      1.0000 0.64630  0.80370  0.74800  Biso   1.000  O
  O55      1.0000 0.14630  0.80370  0.25200  Biso   1.000  O
  O56      1.0000 0.85370  0.30370  0.74800  Biso   1.000  O
  O57      1.0000 0.27790  0.25520  0.27700  Biso   1.000  O
  O58      1.0000 0.72210  0.75520  0.72300  Biso   1.000  O
  O59      1.0000 0.22210  0.75520  0.27700  Biso   1.000  O
  O60      1.0000 0.77790  0.25520  0.72300  Biso   1.000  O
  O61      1.0000 0.27620  0.33790  0.35620  Biso   1.000  O
  O62      1.0000 0.72380  0.83790  0.64380  Biso   1.000  O
  O63      1.0000 0.22380  0.83790  0.35620  Biso   1.000  O
  O64      1.0000 0.77620  0.33790  0.64380  Biso   1.000  O
  Cl5      1.0000 0.95686  0.11866  0.24380  Biso   1.000  Cl
  Cl6      1.0000 0.04314  0.61866  0.75620  Biso   1.000  Cl
  Cl7      1.0000 0.54314  0.61866  0.24380  Biso   1.000  Cl
  Cl8      1.0000 0.45686  0.11866  0.75620  Biso   1.000  Cl
  O65      1.0000 0.97070  0.17330  0.23190  Biso   1.000  O
  O66      1.0000 0.02930  0.67330  0.76810  Biso   1.000  O
  O67      1.0000 0.52930  0.67330  0.23190  Biso   1.000  O
  O68      1.0000 0.47070  0.17330  0.76810  Biso   1.000  O
  O69      1.0000 0.97700  0.10040  0.37190  Biso   1.000  O
  O70      1.0000 0.02300  0.60040  0.62810  Biso   1.000  O
  O71      1.0000 0.52300  0.60040  0.37190  Biso   1.000  O
  O72      1.0000 0.47700  0.10040  0.62810  Biso   1.000  O
  O73      1.0000 0.89840  0.11210  0.23380  Biso   1.000  O
  O74      1.0000 0.10160  0.61210  0.76620  Biso   1.000  O
  O75      1.0000 0.60160  0.61210  0.23380  Biso   1.000  O
  O76      1.0000 0.39840  0.11210  0.76620  Biso   1.000  O
  O77      1.0000 0.98520  0.09230  0.13510  Biso   1.000  O
  O78      1.0000 0.01480  0.59230  0.86490  Biso   1.000  O
  O79      1.0000 0.51480  0.59230  0.13510  Biso   1.000  O
  O80      1.0000 0.48520  0.09230  0.86490  Biso   1.000  O
  Cl9      1.0000 0.56463  0.41715  0.03790  Biso   1.000  Cl
  Cl10     1.0000 0.43537  0.91715  0.96210  Biso   1.000  Cl
  Cl11     1.0000 0.93537  0.91715  0.03790  Biso   1.000  Cl
  Cl12     1.0000 0.06463  0.41715  0.96210  Biso   1.000  Cl
  O81      1.0000 0.51550  0.38710  0.04530  Biso   1.000  O
  O82      1.0000 0.48450  0.88710  0.95470  Biso   1.000  O
  O83      1.0000 0.98450  0.88710  0.04530  Biso   1.000  O
  O84      1.0000 0.01550  0.38710  0.95470  Biso   1.000  O
  O85      1.0000 0.57100  0.43750  0.90430  Biso   1.000  O
  O86      1.0000 0.42900  0.93750  0.09570  Biso   1.000  O
  O87      1.0000 0.92900  0.93750  0.90430  Biso   1.000  O
  O88      1.0000 0.07100  0.43750  0.09570  Biso   1.000  O
  O89      1.0000 0.55880  0.46200  0.12610  Biso   1.000  O
  O90      1.0000 0.44120  0.96200  0.87390  Biso   1.000  O
  O91      1.0000 0.94120  0.96200  0.12610  Biso   1.000  O
  O92      1.0000 0.05880  0.46200  0.87390  Biso   1.000  O
  O93      1.0000 0.60980  0.38700  0.07400  Biso   1.000  O
  O94      1.0000 0.39020  0.88700  0.92600  Biso   1.000  O
  O95      1.0000 0.89020  0.88700  0.07400  Biso   1.000  O
  O96      1.0000 0.10980  0.38700  0.92600  Biso   1.000  O
  Cl13     1.0000 0.68573  0.01666  0.47520  Biso   1.000  Cl
  Cl14     1.0000 0.31427  0.51666  0.52480  Biso   1.000  Cl
  Cl15     1.0000 0.81427  0.51666  0.47520  Biso   1.000  Cl
  Cl16     1.0000 0.18573  0.01666  0.52480  Biso   1.000  Cl
  O97      1.0000 0.68730  0.98220  0.36210  Biso   1.000  O
  O98      1.0000 0.31270  0.48220  0.63790  Biso   1.000  O
  O99      1.0000 0.81270  0.48220  0.36210  Biso   1.000  O
  O100     1.0000 0.18730  0.98220  0.63790  Biso   1.000  O
  O101     1.0000 0.64310  0.05460  0.46200  Biso   1.000  O
  O102     1.0000 0.35690  0.55460  0.53800  Biso   1.000  O
  O103     1.0000 0.85690  0.55460  0.46200  Biso   1.000  O
  O104     1.0000 0.14310  0.05460  0.53800  Biso   1.000  O
  O105     1.0000 0.67840  0.98740  0.59650  Biso   1.000  O
  O106     1.0000 0.32160  0.48740  0.40350  Biso   1.000  O
  O107     1.0000 0.82160  0.48740  0.59650  Biso   1.000  O
  O108     1.0000 0.17840  0.98740  0.40350  Biso   1.000  O
  O109     1.0000 0.73920  0.04300  0.48400  Biso   1.000  O
  O110     1.0000 0.26080  0.54300  0.51600  Biso   1.000  O
  O111     1.0000 0.76080  0.54300  0.48400  Biso   1.000  O
  O112     1.0000 0.23920  0.04300  0.51600  Biso   1.000  O
