data_image0
_cell_length_a       23.743
_cell_length_b       9.7522
_cell_length_c       27.731
_cell_angle_alpha    90
_cell_angle_beta     114.58
_cell_angle_gamma    90

_symmetry_space_group_name_H-M    "P 1"
_symmetry_int_tables_number       1

loop_
  _symmetry_equiv_pos_as_xyz
  'x, y, z'

loop_
  _atom_site_label
  _atom_site_occupancy
  _atom_site_fract_x
  _atom_site_fract_y
  _atom_site_fract_z
  _atom_site_thermal_displace_type
  _atom_site_B_iso_or_equiv
  _atom_site_type_symbol
  Cu1      1.0000 0.63961  0.23495  0.98706  Biso   1.000  Cu
  Cu2      1.0000 0.86039  0.73495  0.01294  Biso   1.000  Cu
  Cu3      1.0000 0.36039  0.76505  0.01294  Biso   1.000  Cu
  Cu4      1.0000 0.13961  0.26505  0.98706  Biso   1.000  Cu
  N1       1.0000 0.59560  0.32780  0.02510  Biso   1.000  N
  N2       1.0000 0.90440  0.82780  0.97490  Biso   1.000  N
  N3       1.0000 0.40440  0.67220  0.97490  Biso   1.000  N
  N4       1.0000 0.09560  0.17220  0.02510  Biso   1.000  N
  N5       1.0000 0.55950  0.13470  0.95440  Biso   1.000  N
  N6       1.0000 0.94050  0.63470  0.04560  Biso   1.000  N
  N7       1.0000 0.44050  0.86530  0.04560  Biso   1.000  N
  N8       1.0000 0.05950  0.36530  0.95440  Biso   1.000  N
  C1       1.0000 0.61990  0.42820  0.06150  Biso   1.000  C
  C2       1.0000 0.88010  0.92820  0.93850  Biso   1.000  C
  C3       1.0000 0.38010  0.57180  0.93850  Biso   1.000  C
  C4       1.0000 0.11990  0.07180  0.06150  Biso   1.000  C
  H1       1.0000 0.66000  0.45880  0.06990  Biso   1.000  H
  H2       1.0000 0.84000  0.95880  0.93010  Biso   1.000  H
  H3       1.0000 0.34000  0.54120  0.93010  Biso   1.000  H
  H4       1.0000 0.16000  0.04120  0.06990  Biso   1.000  H
  C5       1.0000 0.58520  0.48630  0.08630  Biso   1.000  C
  C6       1.0000 0.91480  0.98630  0.91370  Biso   1.000  C
  C7       1.0000 0.41480  0.51370  0.91370  Biso   1.000  C
  C8       1.0000 0.08520  0.01370  0.08630  Biso   1.000  C
  H5       1.0000 0.60230  0.55450  0.11170  Biso   1.000  H
  H6       1.0000 0.89770  0.05450  0.88830  Biso   1.000  H
  H7       1.0000 0.39770  0.44550  0.88830  Biso   1.000  H
  H8       1.0000 0.10230  0.94550  0.11170  Biso   1.000  H
  C9       1.0000 0.52680  0.44270  0.07340  Biso   1.000  C
  C10      1.0000 0.97320  0.94270  0.92660  Biso   1.000  C
  C11      1.0000 0.47320  0.55730  0.92660  Biso   1.000  C
  C12      1.0000 0.02680  0.05730  0.07340  Biso   1.000  C
  H9       1.0000 0.50330  0.48240  0.08940  Biso   1.000  H
  H10      1.0000 0.99670  0.98240  0.91060  Biso   1.000  H
  H11      1.0000 0.49670  0.51760  0.91060  Biso   1.000  H
  H12      1.0000 0.00330  0.01760  0.08940  Biso   1.000  H
  C13      1.0000 0.50190  0.34100  0.03700  Biso   1.000  C
  C14      1.0000 0.99810  0.84100  0.96300  Biso   1.000  C
  C15      1.0000 0.49810  0.65900  0.96300  Biso   1.000  C
  C16      1.0000 0.00190  0.15900  0.03700  Biso   1.000  C
  H13      1.0000 0.46230  0.30790  0.02920  Biso   1.000  H
  H14      1.0000 0.03770  0.80790  0.97080  Biso   1.000  H
  H15      1.0000 0.53770  0.69210  0.97080  Biso   1.000  H
  H16      1.0000 0.96230  0.19210  0.02920  Biso   1.000  H
  C17      1.0000 0.53750  0.28680  0.01140  Biso   1.000  C
  C18      1.0000 0.96250  0.78680  0.98860  Biso   1.000  C
  C19      1.0000 0.46250  0.71320  0.98860  Biso   1.000  C
  C20      1.0000 0.03750  0.21320  0.01140  Biso   1.000  C
  C21      1.0000 0.51620  0.17780  0.97040  Biso   1.000  C
  C22      1.0000 0.98380  0.67780  0.02960  Biso   1.000  C
  C23      1.0000 0.48380  0.82220  0.02960  Biso   1.000  C
  C24      1.0000 0.01620  0.32220  0.97040  Biso   1.000  C
  C25      1.0000 0.45810  0.12000  0.95060  Biso   1.000  C
  C26      1.0000 0.04190  0.62000  0.04940  Biso   1.000  C
  C27      1.0000 0.54190  0.88000  0.04940  Biso   1.000  C
  C28      1.0000 0.95810  0.38000  0.95060  Biso   1.000  C
  H17      1.0000 0.42850  0.14980  0.96210  Biso   1.000  H
  H18      1.0000 0.07150  0.64980  0.03790  Biso   1.000  H
  H19      1.0000 0.57150  0.85020  0.03790  Biso   1.000  H
  H20      1.0000 0.92850  0.35020  0.96210  Biso   1.000  H
  C29      1.0000 0.44440  0.01410  0.91260  Biso   1.000  C
  C30      1.0000 0.05560  0.51410  0.08740  Biso   1.000  C
  C31      1.0000 0.55560  0.98590  0.08740  Biso   1.000  C
  C32      1.0000 0.94440  0.48590  0.91260  Biso   1.000  C
  H21      1.0000 0.40530  0.97410  0.89800  Biso   1.000  H
  H22      1.0000 0.09470  0.47410  0.10200  Biso   1.000  H
  H23      1.0000 0.59470  0.02590  0.10200  Biso   1.000  H
  H24      1.0000 0.90530  0.52590  0.89800  Biso   1.000  H
  C33      1.0000 0.48960  0.97170  0.89750  Biso   1.000  C
  C34      1.0000 0.01040  0.47170  0.10250  Biso   1.000  C
  C35      1.0000 0.51040  0.02830  0.10250  Biso   1.000  C
  C36      1.0000 0.98960  0.52830  0.89750  Biso   1.000  C
  H25      1.0000 0.48210  0.90210  0.87270  Biso   1.000  H
  H26      1.0000 0.01790  0.40210  0.12730  Biso   1.000  H
  H27      1.0000 0.51790  0.09790  0.12730  Biso   1.000  H
  H28      1.0000 0.98210  0.59790  0.87270  Biso   1.000  H
  C37      1.0000 0.54680  0.03520  0.92030  Biso   1.000  C
  C38      1.0000 0.95320  0.53520  0.07970  Biso   1.000  C
  C39      1.0000 0.45320  0.96480  0.07970  Biso   1.000  C
  C40      1.0000 0.04680  0.46480  0.92030  Biso   1.000  C
  H29      1.0000 0.57780  0.00500  0.91070  Biso   1.000  H
  H30      1.0000 0.92220  0.50500  0.08930  Biso   1.000  H
  H31      1.0000 0.42220  0.99500  0.08930  Biso   1.000  H
  H32      1.0000 0.07780  0.49500  0.91070  Biso   1.000  H
  Cu5      1.0000 0.82696  0.45128  0.13077  Biso   1.000  Cu
  Cu6      1.0000 0.67304  0.95128  0.86923  Biso   1.000  Cu
  Cu7      1.0000 0.17304  0.54872  0.86923  Biso   1.000  Cu
  Cu8      1.0000 0.32696  0.04872  0.13077  Biso   1.000  Cu
  N9       1.0000 0.86460  0.58690  0.18890  Biso   1.000  N
  N10      1.0000 0.63540  0.08690  0.81110  Biso   1.000  N
  N11      1.0000 0.13540  0.41310  0.81110  Biso   1.000  N
  N12      1.0000 0.36460  0.91310  0.18890  Biso   1.000  N
  N13      1.0000 0.90010  0.34170  0.17910  Biso   1.000  N
  N14      1.0000 0.59990  0.84170  0.82090  Biso   1.000  N
  N15      1.0000 0.09990  0.65830  0.82090  Biso   1.000  N
  N16      1.0000 0.40010  0.15830  0.17910  Biso   1.000  N
  C41      1.0000 0.84490  0.71460  0.18950  Biso   1.000  C
  C42      1.0000 0.65510  0.21460  0.81050  Biso   1.000  C
  C43      1.0000 0.15510  0.28540  0.81050  Biso   1.000  C
  C44      1.0000 0.34490  0.78540  0.18950  Biso   1.000  C
  H33      1.0000 0.80950  0.74430  0.16090  Biso   1.000  H
  H34      1.0000 0.69050  0.24430  0.83910  Biso   1.000  H
  H35      1.0000 0.19050  0.25570  0.83910  Biso   1.000  H
  H36      1.0000 0.30950  0.75570  0.16090  Biso   1.000  H
  C45      1.0000 0.87490  0.80480  0.23060  Biso   1.000  C
  C46      1.0000 0.62510  0.30480  0.76940  Biso   1.000  C
  C47      1.0000 0.12510  0.19520  0.76940  Biso   1.000  C
  C48      1.0000 0.37490  0.69520  0.23060  Biso   1.000  C
  H37      1.0000 0.86080  0.89420  0.22960  Biso   1.000  H
  H38      1.0000 0.63920  0.39420  0.77040  Biso   1.000  H
  H39      1.0000 0.13920  0.10580  0.77040  Biso   1.000  H
  H40      1.0000 0.36080  0.60580  0.22960  Biso   1.000  H
  C49      1.0000 0.92730  0.75690  0.27380  Biso   1.000  C
  C50      1.0000 0.57270  0.25690  0.72620  Biso   1.000  C
  C51      1.0000 0.07270  0.24310  0.72620  Biso   1.000  C
  C52      1.0000 0.42730  0.74310  0.27380  Biso   1.000  C
  H41      1.0000 0.94730  0.81310  0.30310  Biso   1.000  H
  H42      1.0000 0.55270  0.31310  0.69690  Biso   1.000  H
  H43      1.0000 0.05270  0.18690  0.69690  Biso   1.000  H
  H44      1.0000 0.44730  0.68690  0.30310  Biso   1.000  H
  C53      1.0000 0.94850  0.63050  0.27310  Biso   1.000  C
  C54      1.0000 0.55150  0.13050  0.72690  Biso   1.000  C
  C55      1.0000 0.05150  0.36950  0.72690  Biso   1.000  C
  C56      1.0000 0.44850  0.86950  0.27310  Biso   1.000  C
  H45      1.0000 0.98480  0.60050  0.30070  Biso   1.000  H
  H46      1.0000 0.51520  0.10050  0.69930  Biso   1.000  H
  H47      1.0000 0.01520  0.39950  0.69930  Biso   1.000  H
  H48      1.0000 0.48480  0.89950  0.30070  Biso   1.000  H
  C57      1.0000 0.91590  0.54400  0.23070  Biso   1.000  C
  C58      1.0000 0.58410  0.04400  0.76930  Biso   1.000  C
  C59      1.0000 0.08410  0.45600  0.76930  Biso   1.000  C
  C60      1.0000 0.41590  0.95600  0.23070  Biso   1.000  C
  C61      1.0000 0.93420  0.40220  0.22590  Biso   1.000  C
  C62      1.0000 0.56580  0.90220  0.77410  Biso   1.000  C
  C63      1.0000 0.06580  0.59780  0.77410  Biso   1.000  C
  C64      1.0000 0.43420  0.09780  0.22590  Biso   1.000  C
  C65      1.0000 0.98130  0.32970  0.26580  Biso   1.000  C
  C66      1.0000 0.51870  0.82970  0.73420  Biso   1.000  C
  C67      1.0000 0.01870  0.67030  0.73420  Biso   1.000  C
  C68      1.0000 0.48130  0.17030  0.26580  Biso   1.000  C
  H49      1.0000 0.00470  0.37170  0.29810  Biso   1.000  H
  H50      1.0000 0.49530  0.87170  0.70190  Biso   1.000  H
  H51      1.0000 0.99530  0.62830  0.70190  Biso   1.000  H
  H52      1.0000 0.50470  0.12830  0.29810  Biso   1.000  H
  C69      1.0000 0.99310  0.19710  0.25730  Biso   1.000  C
  C70      1.0000 0.50690  0.69710  0.74270  Biso   1.000  C
  C71      1.0000 0.00690  0.80290  0.74270  Biso   1.000  C
  C72      1.0000 0.49310  0.30290  0.25730  Biso   1.000  C
  H53      1.0000 0.02370  0.14700  0.28380  Biso   1.000  H
  H54      1.0000 0.47630  0.64700  0.71620  Biso   1.000  H
  H55      1.0000 0.97630  0.85300  0.71620  Biso   1.000  H
  H56      1.0000 0.52370  0.35300  0.28380  Biso   1.000  H
  C73      1.0000 0.95850  0.13860  0.20840  Biso   1.000  C
  C74      1.0000 0.54150  0.63860  0.79160  Biso   1.000  C
  C75      1.0000 0.04150  0.86140  0.79160  Biso   1.000  C
  C76      1.0000 0.45850  0.36140  0.20840  Biso   1.000  C
  H57      1.0000 0.96700  0.05020  0.20070  Biso   1.000  H
  H58      1.0000 0.53300  0.55020  0.79930  Biso   1.000  H
  H59      1.0000 0.03300  0.94980  0.79930  Biso   1.000  H
  H60      1.0000 0.46700  0.44980  0.20070  Biso   1.000  H
  C77      1.0000 0.91180  0.21260  0.17170  Biso   1.000  C
  C78      1.0000 0.58820  0.71260  0.82830  Biso   1.000  C
  C79      1.0000 0.08820  0.78740  0.82830  Biso   1.000  C
  C80      1.0000 0.41180  0.28740  0.17170  Biso   1.000  C
  H61      1.0000 0.88680  0.17050  0.13990  Biso   1.000  H
  H62      1.0000 0.61320  0.67050  0.86010  Biso   1.000  H
  H63      1.0000 0.11320  0.82950  0.86010  Biso   1.000  H
  H64      1.0000 0.38680  0.32950  0.13990  Biso   1.000  H
  O1       1.0000 0.76310  0.34780  0.16150  Biso   1.000  O
  O2       1.0000 0.73690  0.84780  0.83850  Biso   1.000  O
  O3       1.0000 0.23690  0.65220  0.83850  Biso   1.000  O
  O4       1.0000 0.26310  0.15220  0.16150  Biso   1.000  O
  O5       1.0000 0.71750  0.31770  0.03050  Biso   1.000  O
  O6       1.0000 0.78250  0.81770  0.96950  Biso   1.000  O
  O7       1.0000 0.28250  0.68230  0.96950  Biso   1.000  O
  O8       1.0000 0.21750  0.18230  0.03050  Biso   1.000  O
  O9       1.0000 0.67190  0.14300  0.94310  Biso   1.000  O
  O10      1.0000 0.82810  0.64300  0.05690  Biso   1.000  O
  O11      1.0000 0.32810  0.85700  0.05690  Biso   1.000  O
  O12      1.0000 0.17190  0.35700  0.94310  Biso   1.000  O
  O13      1.0000 0.74040  0.07250  0.91490  Biso   1.000  O
  O14      1.0000 0.75960  0.57250  0.08510  Biso   1.000  O
  O15      1.0000 0.25960  0.92750  0.08510  Biso   1.000  O
  O16      1.0000 0.24040  0.42750  0.91490  Biso   1.000  O
  O17      1.0000 0.81920  0.32920  0.07150  Biso   1.000  O
  O18      1.0000 0.68080  0.82920  0.92850  Biso   1.000  O
  O19      1.0000 0.18080  0.67080  0.92850  Biso   1.000  O
  O20      1.0000 0.31920  0.17080  0.07150  Biso   1.000  O
  C81      1.0000 0.77050  0.28550  0.03460  Biso   1.000  C
  C82      1.0000 0.72950  0.78550  0.96540  Biso   1.000  C
  C83      1.0000 0.22950  0.71450  0.96540  Biso   1.000  C
  C84      1.0000 0.27050  0.21450  0.03460  Biso   1.000  C
  C85      1.0000 0.78120  0.19350  0.99530  Biso   1.000  C
  C86      1.0000 0.71880  0.69350  0.00470  Biso   1.000  C
  C87      1.0000 0.21880  0.80650  0.00470  Biso   1.000  C
  C88      1.0000 0.28120  0.30650  0.99530  Biso   1.000  C
  H65      1.0000 0.80610  0.24470  0.98130  Biso   1.000  H
  H66      1.0000 0.69390  0.74470  0.01870  Biso   1.000  H
  H67      1.0000 0.19390  0.75530  0.01870  Biso   1.000  H
  H68      1.0000 0.30610  0.25530  0.98130  Biso   1.000  H
  H69      1.0000 0.80630  0.11700  0.01510  Biso   1.000  H
  H70      1.0000 0.69370  0.61700  0.98490  Biso   1.000  H
  H71      1.0000 0.19370  0.88300  0.98490  Biso   1.000  H
  H72      1.0000 0.30630  0.38300  0.01510  Biso   1.000  H
  C89      1.0000 0.72740  0.13440  0.94860  Biso   1.000  C
  C90      1.0000 0.77260  0.63440  0.05140  Biso   1.000  C
  C91      1.0000 0.27260  0.86560  0.05140  Biso   1.000  C
  C92      1.0000 0.22740  0.36560  0.94860  Biso   1.000  C
  O21      1.0000 0.60950  0.41930  0.91690  Biso   1.000  O
  O22      1.0000 0.89050  0.91930  0.08310  Biso   1.000  O
  O23      1.0000 0.39050  0.58070  0.08310  Biso   1.000  O
  O24      1.0000 0.10950  0.08070  0.91690  Biso   1.000  O
  Cu9      1.0000 0.30791  0.48566  0.63125  Biso   1.000  Cu
  Cu10     1.0000 0.19209  0.98566  0.36875  Biso   1.000  Cu
  Cu11     1.0000 0.69209  0.51434  0.36875  Biso   1.000  Cu
  Cu12     1.0000 0.80791  0.01434  0.63125  Biso   1.000  Cu
  N17      1.0000 0.32730  0.62730  0.68790  Biso   1.000  N
  N18      1.0000 0.17270  0.12730  0.31210  Biso   1.000  N
  N19      1.0000 0.67270  0.37270  0.31210  Biso   1.000  N
  N20      1.0000 0.82730  0.87270  0.68790  Biso   1.000  N
  N21      1.0000 0.28570  0.38010  0.68240  Biso   1.000  N
  N22      1.0000 0.21430  0.88010  0.31760  Biso   1.000  N
  N23      1.0000 0.71430  0.61990  0.31760  Biso   1.000  N
  N24      1.0000 0.78570  0.11990  0.68240  Biso   1.000  N
  C93      1.0000 0.34660  0.75380  0.68660  Biso   1.000  C
  C94      1.0000 0.15340  0.25380  0.31340  Biso   1.000  C
  C95      1.0000 0.65340  0.24620  0.31340  Biso   1.000  C
  C96      1.0000 0.84660  0.74620  0.68660  Biso   1.000  C
  H73      1.0000 0.35220  0.78090  0.65670  Biso   1.000  H
  H74      1.0000 0.14780  0.28090  0.34330  Biso   1.000  H
  H75      1.0000 0.64780  0.21910  0.34330  Biso   1.000  H
  H76      1.0000 0.85220  0.71910  0.65670  Biso   1.000  H
  C97      1.0000 0.35880  0.84770  0.72660  Biso   1.000  C
  C98      1.0000 0.14120  0.34770  0.27340  Biso   1.000  C
  C99      1.0000 0.64120  0.15230  0.27340  Biso   1.000  C
  C100     1.0000 0.85880  0.65230  0.72660  Biso   1.000  C
  H77      1.0000 0.37300  0.93540  0.72470  Biso   1.000  H
  H78      1.0000 0.12700  0.43540  0.27530  Biso   1.000  H
  H79      1.0000 0.62700  0.06460  0.27530  Biso   1.000  H
  H80      1.0000 0.87300  0.56460  0.72470  Biso   1.000  H
  C101     1.0000 0.34840  0.80380  0.77070  Biso   1.000  C
  C102     1.0000 0.15160  0.30380  0.22930  Biso   1.000  C
  C103     1.0000 0.65160  0.19620  0.22930  Biso   1.000  C
  C104     1.0000 0.84840  0.69620  0.77070  Biso   1.000  C
  H81      1.0000 0.35480  0.86440  0.79840  Biso   1.000  H
  H82      1.0000 0.14520  0.36440  0.20160  Biso   1.000  H
  H83      1.0000 0.64520  0.13560  0.20160  Biso   1.000  H
  H84      1.0000 0.85480  0.63560  0.79840  Biso   1.000  H
  C105     1.0000 0.32960  0.67570  0.77300  Biso   1.000  C
  C106     1.0000 0.17040  0.17570  0.22700  Biso   1.000  C
  C107     1.0000 0.67040  0.32430  0.22700  Biso   1.000  C
  C108     1.0000 0.82960  0.82430  0.77300  Biso   1.000  C
  H85      1.0000 0.32400  0.64670  0.80270  Biso   1.000  H
  H86      1.0000 0.17600  0.14670  0.19730  Biso   1.000  H
  H87      1.0000 0.67600  0.35330  0.19730  Biso   1.000  H
  H88      1.0000 0.82400  0.85330  0.80270  Biso   1.000  H
  C109     1.0000 0.31840  0.58610  0.73120  Biso   1.000  C
  C110     1.0000 0.18160  0.08610  0.26880  Biso   1.000  C
  C111     1.0000 0.68160  0.41390  0.26880  Biso   1.000  C
  C112     1.0000 0.81840  0.91390  0.73120  Biso   1.000  C
  C113     1.0000 0.29640  0.44500  0.72820  Biso   1.000  C
  C114     1.0000 0.20360  0.94500  0.27180  Biso   1.000  C
  C115     1.0000 0.70360  0.55500  0.27180  Biso   1.000  C
  C116     1.0000 0.79640  0.05500  0.72820  Biso   1.000  C
  C117     1.0000 0.28720  0.37710  0.76850  Biso   1.000  C
  C118     1.0000 0.21280  0.87710  0.23150  Biso   1.000  C
  C119     1.0000 0.71280  0.62290  0.23150  Biso   1.000  C
  C120     1.0000 0.78720  0.12290  0.76850  Biso   1.000  C
  H89      1.0000 0.29350  0.42310  0.79980  Biso   1.000  H
  H90      1.0000 0.20650  0.92310  0.20020  Biso   1.000  H
  H91      1.0000 0.70650  0.57690  0.20020  Biso   1.000  H
  H92      1.0000 0.79350  0.07690  0.79980  Biso   1.000  H
  C121     1.0000 0.26930  0.24610  0.76240  Biso   1.000  C
  C122     1.0000 0.23070  0.74610  0.23760  Biso   1.000  C
  C123     1.0000 0.73070  0.75390  0.23760  Biso   1.000  C
  C124     1.0000 0.76930  0.25390  0.76240  Biso   1.000  C
  H93      1.0000 0.26390  0.20110  0.78970  Biso   1.000  H
  H94      1.0000 0.23610  0.70110  0.21030  Biso   1.000  H
  H95      1.0000 0.73610  0.79890  0.21030  Biso   1.000  H
  H96      1.0000 0.76390  0.29890  0.78970  Biso   1.000  H
  C125     1.0000 0.25840  0.17440  0.71470  Biso   1.000  C
  C126     1.0000 0.24160  0.67440  0.28530  Biso   1.000  C
  C127     1.0000 0.74160  0.82560  0.28530  Biso   1.000  C
  C128     1.0000 0.75840  0.32560  0.71470  Biso   1.000  C
  H97      1.0000 0.24610  0.08300  0.70980  Biso   1.000  H
  H98      1.0000 0.25390  0.58300  0.29020  Biso   1.000  H
  H99      1.0000 0.75390  0.91700  0.29020  Biso   1.000  H
  H100     1.0000 0.74610  0.41700  0.70980  Biso   1.000  H
  C129     1.0000 0.26730  0.24970  0.67620  Biso   1.000  C
  C130     1.0000 0.23270  0.74970  0.32380  Biso   1.000  C
  C131     1.0000 0.73270  0.75030  0.32380  Biso   1.000  C
  C132     1.0000 0.76730  0.25030  0.67620  Biso   1.000  C
  H101     1.0000 0.26010  0.20690  0.64410  Biso   1.000  H
  H102     1.0000 0.23990  0.70690  0.35590  Biso   1.000  H
  H103     1.0000 0.73990  0.79310  0.35590  Biso   1.000  H
  H104     1.0000 0.76010  0.29310  0.64410  Biso   1.000  H
  O25      1.0000 0.40230  0.38740  0.65900  Biso   1.000  O
  O26      1.0000 0.09770  0.88740  0.34100  Biso   1.000  O
  O27      1.0000 0.59770  0.61260  0.34100  Biso   1.000  O
  O28      1.0000 0.90230  0.11260  0.65900  Biso   1.000  O
  Cu13     1.0000 0.15522  0.76364  0.51737  Biso   1.000  Cu
  Cu14     1.0000 0.34478  0.26364  0.48263  Biso   1.000  Cu
  Cu15     1.0000 0.84478  0.23636  0.48263  Biso   1.000  Cu
  Cu16     1.0000 0.65522  0.73636  0.51737  Biso   1.000  Cu
  N25      1.0000 0.07220  0.84580  0.47790  Biso   1.000  N
  N26      1.0000 0.42780  0.34580  0.52210  Biso   1.000  N
  N27      1.0000 0.92780  0.15420  0.52210  Biso   1.000  N
  N28      1.0000 0.57220  0.65420  0.47790  Biso   1.000  N
  N29      1.0000 0.10990  0.65880  0.55170  Biso   1.000  N
  N30      1.0000 0.39010  0.15880  0.44830  Biso   1.000  N
  N31      1.0000 0.89010  0.34120  0.44830  Biso   1.000  N
  N32      1.0000 0.60990  0.84120  0.55170  Biso   1.000  N
  C133     1.0000 0.05860  0.94200  0.44080  Biso   1.000  C
  C134     1.0000 0.44140  0.44200  0.55920  Biso   1.000  C
  C135     1.0000 0.94140  0.05800  0.55920  Biso   1.000  C
  C136     1.0000 0.55860  0.55800  0.44080  Biso   1.000  C
  H105     1.0000 0.09020  0.97980  0.43360  Biso   1.000  H
  H106     1.0000 0.40980  0.47980  0.56640  Biso   1.000  H
  H107     1.0000 0.90980  0.02020  0.56640  Biso   1.000  H
  H108     1.0000 0.59020  0.52020  0.43360  Biso   1.000  H
  C137     1.0000 0.99850  0.98720  0.41250  Biso   1.000  C
  C138     1.0000 0.50150  0.48720  0.58750  Biso   1.000  C
  C139     1.0000 0.00150  0.01280  0.58750  Biso   1.000  C
  C140     1.0000 0.49850  0.51280  0.41250  Biso   1.000  C
  H109     1.0000 0.98980  0.05310  0.38620  Biso   1.000  H
  H110     1.0000 0.51020  0.55310  0.61380  Biso   1.000  H
  H111     1.0000 0.01020  0.94690  0.61380  Biso   1.000  H
  H112     1.0000 0.48980  0.44690  0.38620  Biso   1.000  H
  C141     1.0000 0.95190  0.93400  0.42380  Biso   1.000  C
  C142     1.0000 0.54810  0.43400  0.57620  Biso   1.000  C
  C143     1.0000 0.04810  0.06600  0.57620  Biso   1.000  C
  C144     1.0000 0.45190  0.56600  0.42380  Biso   1.000  C
  H113     1.0000 0.91140  0.96420  0.40520  Biso   1.000  H
  H114     1.0000 0.58860  0.46420  0.59480  Biso   1.000  H
  H115     1.0000 0.08860  0.03580  0.59480  Biso   1.000  H
  H116     1.0000 0.41140  0.53580  0.40520  Biso   1.000  H
  C145     1.0000 0.96540  0.83460  0.46320  Biso   1.000  C
  C146     1.0000 0.53460  0.33460  0.53680  Biso   1.000  C
  C147     1.0000 0.03460  0.16540  0.53680  Biso   1.000  C
  C148     1.0000 0.46540  0.66540  0.46320  Biso   1.000  C
  H117     1.0000 0.93430  0.79790  0.47140  Biso   1.000  H
  H118     1.0000 0.56570  0.29790  0.52860  Biso   1.000  H
  H119     1.0000 0.06570  0.20210  0.52860  Biso   1.000  H
  H120     1.0000 0.43430  0.70210  0.47140  Biso   1.000  H
  C149     1.0000 0.02690  0.79130  0.49010  Biso   1.000  C
  C150     1.0000 0.47310  0.29130  0.50990  Biso   1.000  C
  C151     1.0000 0.97310  0.20870  0.50990  Biso   1.000  C
  C152     1.0000 0.52690  0.70870  0.49010  Biso   1.000  C
  C153     1.0000 0.04910  0.68690  0.53200  Biso   1.000  C
  C154     1.0000 0.45090  0.18690  0.46800  Biso   1.000  C
  C155     1.0000 0.95090  0.31310  0.46800  Biso   1.000  C
  C156     1.0000 0.54910  0.81310  0.53200  Biso   1.000  C
  C157     1.0000 0.01080  0.61760  0.55180  Biso   1.000  C
  C158     1.0000 0.48920  0.11760  0.44820  Biso   1.000  C
  C159     1.0000 0.98920  0.38240  0.44820  Biso   1.000  C
  C160     1.0000 0.51080  0.88240  0.55180  Biso   1.000  C
  H121     1.0000 0.96880  0.63850  0.53890  Biso   1.000  H
  H122     1.0000 0.53120  0.13850  0.46110  Biso   1.000  H
  H123     1.0000 0.03120  0.36150  0.46110  Biso   1.000  H
  H124     1.0000 0.46880  0.86150  0.53890  Biso   1.000  H
  C161     1.0000 0.03610  0.51920  0.59020  Biso   1.000  C
  C162     1.0000 0.46390  0.01920  0.40980  Biso   1.000  C
  C163     1.0000 0.96390  0.48080  0.40980  Biso   1.000  C
  C164     1.0000 0.53610  0.98080  0.59020  Biso   1.000  C
  H125     1.0000 0.01140  0.47240  0.60350  Biso   1.000  H
  H126     1.0000 0.48860  0.97240  0.39650  Biso   1.000  H
  H127     1.0000 0.98860  0.52760  0.39650  Biso   1.000  H
  H128     1.0000 0.51140  0.02760  0.60350  Biso   1.000  H
  C165     1.0000 0.09880  0.49030  0.60910  Biso   1.000  C
  C166     1.0000 0.40120  0.99030  0.39090  Biso   1.000  C
  C167     1.0000 0.90120  0.50970  0.39090  Biso   1.000  C
  C168     1.0000 0.59880  0.00970  0.60910  Biso   1.000  C
  H129     1.0000 0.11710  0.42380  0.63490  Biso   1.000  H
  H130     1.0000 0.38290  0.92380  0.36510  Biso   1.000  H
  H131     1.0000 0.88290  0.57620  0.36510  Biso   1.000  H
  H132     1.0000 0.61710  0.07620  0.63490  Biso   1.000  H
  C169     1.0000 0.13340  0.56340  0.58820  Biso   1.000  C
  C170     1.0000 0.36660  0.06340  0.41180  Biso   1.000  C
  C171     1.0000 0.86660  0.43660  0.41180  Biso   1.000  C
  C172     1.0000 0.63340  0.93660  0.58820  Biso   1.000  C
  H133     1.0000 0.17540  0.54410  0.60050  Biso   1.000  H
  H134     1.0000 0.32460  0.04410  0.39950  Biso   1.000  H
  H135     1.0000 0.82460  0.45590  0.39950  Biso   1.000  H
  H136     1.0000 0.67540  0.95590  0.60050  Biso   1.000  H
  O29      1.0000 0.32710  0.60380  0.58280  Biso   1.000  O
  O30      1.0000 0.17290  0.10380  0.41720  Biso   1.000  O
  O31      1.0000 0.67290  0.39620  0.41720  Biso   1.000  O
  O32      1.0000 0.82710  0.89620  0.58280  Biso   1.000  O
  O33      1.0000 0.24450  0.86040  0.42590  Biso   1.000  O
  O34      1.0000 0.25550  0.36040  0.57410  Biso   1.000  O
  O35      1.0000 0.75550  0.13960  0.57410  Biso   1.000  O
  O36      1.0000 0.74450  0.63960  0.42590  Biso   1.000  O
  O37      1.0000 0.18720  0.84720  0.47130  Biso   1.000  O
  O38      1.0000 0.31280  0.34720  0.52870  Biso   1.000  O
  O39      1.0000 0.81280  0.15280  0.52870  Biso   1.000  O
  O40      1.0000 0.68720  0.65280  0.47130  Biso   1.000  O
  O41      1.0000 0.23190  0.67420  0.55880  Biso   1.000  O
  O42      1.0000 0.26810  0.17420  0.44120  Biso   1.000  O
  O43      1.0000 0.76810  0.32580  0.44120  Biso   1.000  O
  O44      1.0000 0.73190  0.82580  0.55880  Biso   1.000  O
  C173     1.0000 0.28050  0.66710  0.55090  Biso   1.000  C
  C174     1.0000 0.21950  0.16710  0.44910  Biso   1.000  C
  C175     1.0000 0.71950  0.33290  0.44910  Biso   1.000  C
  C176     1.0000 0.78050  0.83290  0.55090  Biso   1.000  C
  C177     1.0000 0.28550  0.72670  0.50250  Biso   1.000  C
  C178     1.0000 0.21450  0.22670  0.49750  Biso   1.000  C
  C179     1.0000 0.71450  0.27330  0.49750  Biso   1.000  C
  C180     1.0000 0.78550  0.77330  0.50250  Biso   1.000  C
  H137     1.0000 0.32360  0.77920  0.51480  Biso   1.000  H
  H138     1.0000 0.17640  0.27920  0.48520  Biso   1.000  H
  H139     1.0000 0.67640  0.22080  0.48520  Biso   1.000  H
  H140     1.0000 0.82360  0.72080  0.51480  Biso   1.000  H
  H141     1.0000 0.29020  0.65060  0.48200  Biso   1.000  H
  H142     1.0000 0.20980  0.15060  0.51800  Biso   1.000  H
  H143     1.0000 0.70980  0.34940  0.51800  Biso   1.000  H
  H144     1.0000 0.79020  0.84940  0.48200  Biso   1.000  H
  C181     1.0000 0.23460  0.81680  0.46510  Biso   1.000  C
  C182     1.0000 0.26540  0.31680  0.53490  Biso   1.000  C
  C183     1.0000 0.76540  0.18320  0.53490  Biso   1.000  C
  C184     1.0000 0.73460  0.68320  0.46510  Biso   1.000  C
  O45      1.0000 0.19380  0.95210  0.58410  Biso   1.000  O
  O46      1.0000 0.30620  0.45210  0.41590  Biso   1.000  O
  O47      1.0000 0.80620  0.04790  0.41590  Biso   1.000  O
  O48      1.0000 0.69380  0.54790  0.58410  Biso   1.000  O
  Cl1      1.0000 0.37740  0.02140  0.59240  Biso   1.000  Cl
  Cl2      1.0000 0.12260  0.52140  0.40760  Biso   1.000  Cl
  Cl3      1.0000 0.62260  0.97860  0.40760  Biso   1.000  Cl
  Cl4      1.0000 0.87740  0.47860  0.59240  Biso   1.000  Cl
  O49      1.0000 0.41670  0.13140  0.61880  Biso   1.000  O
  O50      1.0000 0.08330  0.63140  0.38120  Biso   1.000  O
  O51      1.0000 0.58330  0.86860  0.38120  Biso   1.000  O
  O52      1.0000 0.91670  0.36860  0.61880  Biso   1.000  O
  O53      1.0000 0.40810  0.89520  0.60980  Biso   1.000  O
  O54      1.0000 0.09190  0.39520  0.39020  Biso   1.000  O
  O55      1.0000 0.59190  0.10480  0.39020  Biso   1.000  O
  O56      1.0000 0.90810  0.60480  0.60980  Biso   1.000  O
  O57      1.0000 0.36640  0.03470  0.53800  Biso   1.000  O
  O58      1.0000 0.13360  0.53470  0.46200  Biso   1.000  O
  O59      1.0000 0.63360  0.96530  0.46200  Biso   1.000  O
  O60      1.0000 0.86640  0.46530  0.53800  Biso   1.000  O
  O61      1.0000 0.32060  0.02640  0.59500  Biso   1.000  O
  O62      1.0000 0.17940  0.52640  0.40500  Biso   1.000  O
  O63      1.0000 0.67940  0.97360  0.40500  Biso   1.000  O
  O64      1.0000 0.82060  0.47360  0.59500  Biso   1.000  O
  Cl5      1.0000 0.46000  0.26900  0.80340  Biso   1.000  Cl
  Cl6      1.0000 0.04000  0.76900  0.19660  Biso   1.000  Cl
  Cl7      1.0000 0.54000  0.73100  0.19660  Biso   1.000  Cl
  Cl8      1.0000 0.96000  0.23100  0.80340  Biso   1.000  Cl
  O65      1.0000 0.52570  0.26130  0.82940  Biso   1.000  O
  O66      1.0000 0.97430  0.76130  0.17060  Biso   1.000  O
  O67      1.0000 0.47430  0.73870  0.17060  Biso   1.000  O
  O68      1.0000 0.02570  0.23870  0.82940  Biso   1.000  O
  O69      1.0000 0.43700  0.28560  0.84170  Biso   1.000  O
  O70      1.0000 0.06300  0.78560  0.15830  Biso   1.000  O
  O71      1.0000 0.56300  0.71440  0.15830  Biso   1.000  O
  O72      1.0000 0.93700  0.21440  0.84170  Biso   1.000  O
  O73      1.0000 0.44310  0.38450  0.76870  Biso   1.000  O
  O74      1.0000 0.05690  0.88450  0.23130  Biso   1.000  O
  O75      1.0000 0.55690  0.61550  0.23130  Biso   1.000  O
  O76      1.0000 0.94310  0.11550  0.76870  Biso   1.000  O
  O77      1.0000 0.43830  0.15170  0.77400  Biso   1.000  O
  O78      1.0000 0.06170  0.65170  0.22600  Biso   1.000  O
  O79      1.0000 0.56170  0.84830  0.22600  Biso   1.000  O
  O80      1.0000 0.93830  0.34830  0.77400  Biso   1.000  O
  Cl9      1.0000 0.71890  0.99010  0.09590  Biso   1.000  Cl
  Cl10     1.0000 0.78110  0.49010  0.90410  Biso   1.000  Cl
  Cl11     1.0000 0.28110  0.00990  0.90410  Biso   1.000  Cl
  Cl12     1.0000 0.21890  0.50990  0.09590  Biso   1.000  Cl
  O81      1.0000 0.77960  0.00160  0.10160  Biso   1.000  O
  O82      1.0000 0.72040  0.50160  0.89840  Biso   1.000  O
  O83      1.0000 0.22040  0.99840  0.89840  Biso   1.000  O
  O84      1.0000 0.27960  0.49840  0.10160  Biso   1.000  O
  O85      1.0000 0.70300  0.10120  0.12200  Biso   1.000  O
  O86      1.0000 0.79700  0.60120  0.87800  Biso   1.000  O
  O87      1.0000 0.29700  0.89880  0.87800  Biso   1.000  O
  O88      1.0000 0.20300  0.39880  0.12200  Biso   1.000  O
  O89      1.0000 0.70540  0.86300  0.11260  Biso   1.000  O
  O90      1.0000 0.79460  0.36300  0.88740  Biso   1.000  O
  O91      1.0000 0.29460  0.13700  0.88740  Biso   1.000  O
  O92      1.0000 0.20540  0.63700  0.11260  Biso   1.000  O
  O93      1.0000 0.67750  0.99580  0.04140  Biso   1.000  O
  O94      1.0000 0.82250  0.49580  0.95860  Biso   1.000  O
  O95      1.0000 0.32250  0.00420  0.95860  Biso   1.000  O
  O96      1.0000 0.17750  0.50420  0.04140  Biso   1.000  O
  Cl13     1.0000 0.66230  0.69820  0.70380  Biso   1.000  Cl
  Cl14     1.0000 0.83770  0.19820  0.29620  Biso   1.000  Cl
  Cl15     1.0000 0.33770  0.30180  0.29620  Biso   1.000  Cl
  Cl16     1.0000 0.16230  0.80180  0.70380  Biso   1.000  Cl
  O97      1.0000 0.60180  0.67600  0.67070  Biso   1.000  O
  O98      1.0000 0.89820  0.17600  0.32930  Biso   1.000  O
  O99      1.0000 0.39820  0.32400  0.32930  Biso   1.000  O
  O100     1.0000 0.10180  0.82400  0.67070  Biso   1.000  O
  O101     1.0000 0.69880  0.68630  0.67450  Biso   1.000  O
  O102     1.0000 0.80120  0.18630  0.32550  Biso   1.000  O
  O103     1.0000 0.30120  0.31370  0.32550  Biso   1.000  O
  O104     1.0000 0.19880  0.81370  0.67450  Biso   1.000  O
  O105     1.0000 0.66890  0.83160  0.72400  Biso   1.000  O
  O106     1.0000 0.83110  0.33160  0.27600  Biso   1.000  O
  O107     1.0000 0.33110  0.16840  0.27600  Biso   1.000  O
  O108     1.0000 0.16890  0.66840  0.72400  Biso   1.000  O
  O109     1.0000 0.68740  0.60950  0.74750  Biso   1.000  O
  O110     1.0000 0.81260  0.10950  0.25250  Biso   1.000  O
  O111     1.0000 0.31260  0.39050  0.25250  Biso   1.000  O
  O112     1.0000 0.18740  0.89050  0.74750  Biso   1.000  O
