data_image0
_cell_length_a       10.153
_cell_length_b       10.177
_cell_length_c       12.86
_cell_angle_alpha    94.9
_cell_angle_beta     105.11
_cell_angle_gamma    115.19

_symmetry_space_group_name_H-M    "P 1"
_symmetry_int_tables_number       1

loop_
  _symmetry_equiv_pos_as_xyz
  'x, y, z'

loop_
  _atom_site_label
  _atom_site_occupancy
  _atom_site_fract_x
  _atom_site_fract_y
  _atom_site_fract_z
  _atom_site_thermal_displace_type
  _atom_site_B_iso_or_equiv
  _atom_site_type_symbol
  Cu1      1.0000 0.60763  0.50024  0.58621  Biso   1.000  Cu
  Cu2      1.0000 0.39237  0.49976  0.41379  Biso   1.000  Cu
  O1       1.0000 0.76250  0.62710  0.52210  Biso   1.000  O
  O2       1.0000 0.23750  0.37290  0.47790  Biso   1.000  O
  O3       1.0000 0.57980  0.62430  0.37920  Biso   1.000  O
  O4       1.0000 0.42020  0.37570  0.62080  Biso   1.000  O
  C1       1.0000 0.71700  0.66120  0.43280  Biso   1.000  C
  C2       1.0000 0.28300  0.33880  0.56720  Biso   1.000  C
  C3       1.0000 0.83550  0.75310  0.38400  Biso   1.000  C
  C4       1.0000 0.16450  0.24690  0.61600  Biso   1.000  C
  C5       1.0000 0.78700  0.75650  0.27340  Biso   1.000  C
  C6       1.0000 0.21300  0.24350  0.72660  Biso   1.000  C
  H1       1.0000 0.68320  0.70190  0.23120  Biso   1.000  H
  H2       1.0000 0.31680  0.29810  0.76880  Biso   1.000  H
  C7       1.0000 0.89280  0.84120  0.22560  Biso   1.000  C
  C8       1.0000 0.10720  0.15880  0.77440  Biso   1.000  C
  O5       1.0000 0.84660  0.84410  0.11730  Biso   1.000  O
  O6       1.0000 0.15340  0.15590  0.88270  Biso   1.000  O
  H3       1.0000 0.74910  0.76870  0.07140  Biso   1.000  H
  H4       1.0000 0.25090  0.23130  0.92860  Biso   1.000  H
  C9       1.0000 0.04640  0.92570  0.28910  Biso   1.000  C
  C10      1.0000 0.95360  0.07430  0.71090  Biso   1.000  C
  H5       1.0000 0.11720  0.98470  0.25770  Biso   1.000  H
  H6       1.0000 0.88280  0.01530  0.74230  Biso   1.000  H
  C11      1.0000 0.09430  0.92240  0.39910  Biso   1.000  C
  C12      1.0000 0.90570  0.07760  0.60090  Biso   1.000  C
  H7       1.0000 0.19760  0.97900  0.44160  Biso   1.000  H
  H8       1.0000 0.80240  0.02100  0.55840  Biso   1.000  H
  C13      1.0000 0.98930  0.83520  0.44690  Biso   1.000  C
  C14      1.0000 0.01070  0.16480  0.55310  Biso   1.000  C
  H9       1.0000 0.02250  0.83210  0.52080  Biso   1.000  H
  H10      1.0000 0.97750  0.16790  0.47920  Biso   1.000  H
  O7       1.0000 0.58130  0.32320  0.49160  Biso   1.000  O
  O8       1.0000 0.41870  0.67680  0.50840  Biso   1.000  O
  O9       1.0000 0.39830  0.32180  0.34850  Biso   1.000  O
  O10      1.0000 0.60170  0.67820  0.65150  Biso   1.000  O
  C15      1.0000 0.48630  0.27080  0.39450  Biso   1.000  C
  C16      1.0000 0.51370  0.72920  0.60550  Biso   1.000  C
  C17      1.0000 0.47730  0.13860  0.32710  Biso   1.000  C
  C18      1.0000 0.52270  0.86140  0.67290  Biso   1.000  C
  C19      1.0000 0.40110  0.09840  0.21450  Biso   1.000  C
  C20      1.0000 0.59890  0.90160  0.78550  Biso   1.000  C
  H11      1.0000 0.35640  0.15390  0.18140  Biso   1.000  H
  H12      1.0000 0.64360  0.84610  0.81860  Biso   1.000  H
  C21      1.0000 0.39120  0.97580  0.15100  Biso   1.000  C
  C22      1.0000 0.60880  0.02420  0.84900  Biso   1.000  C
  O11      1.0000 0.31250  0.94080  0.04090  Biso   1.000  O
  O12      1.0000 0.68750  0.05920  0.95910  Biso   1.000  O
  H13      1.0000 0.32640  0.87230  0.00270  Biso   1.000  H
  H14      1.0000 0.67360  0.12770  0.99730  Biso   1.000  H
  C23      1.0000 0.45660  0.89230  0.19970  Biso   1.000  C
  C24      1.0000 0.54340  0.10770  0.80030  Biso   1.000  C
  H15      1.0000 0.45030  0.81020  0.15680  Biso   1.000  H
  H16      1.0000 0.54970  0.18980  0.84320  Biso   1.000  H
  C25      1.0000 0.53070  0.93120  0.31170  Biso   1.000  C
  C26      1.0000 0.46930  0.06880  0.68830  Biso   1.000  C
  H17      1.0000 0.57300  0.87390  0.34470  Biso   1.000  H
  H18      1.0000 0.42700  0.12610  0.65530  Biso   1.000  H
  C27      1.0000 0.54330  0.05530  0.37630  Biso   1.000  C
  C28      1.0000 0.45670  0.94470  0.62370  Biso   1.000  C
  H19      1.0000 0.59550  0.08220  0.45190  Biso   1.000  H
  H20      1.0000 0.40450  0.91780  0.54810  Biso   1.000  H
  N1       1.0000 0.75790  0.49230  0.74020  Biso   1.000  N
  N2       1.0000 0.24210  0.50770  0.25980  Biso   1.000  N
  C29      1.0000 0.77500  0.57070  0.83460  Biso   1.000  C
  C30      1.0000 0.22500  0.42930  0.16540  Biso   1.000  C
  H21      1.0000 0.72110  0.62550  0.83200  Biso   1.000  H
  H22      1.0000 0.27890  0.37450  0.16800  Biso   1.000  H
  C31      1.0000 0.86750  0.57680  0.93680  Biso   1.000  C
  C32      1.0000 0.13250  0.42320  0.06320  Biso   1.000  C
  H23      1.0000 0.87540  0.63540  0.00000  Biso   1.000  H
  H24      1.0000 0.12460  0.36460  0.00000  Biso   1.000  H
  C33      1.0000 0.94800  0.49640  0.94550  Biso   1.000  C
  C34      1.0000 0.05200  0.50360  0.05450  Biso   1.000  C
  C35      1.0000 0.92320  0.40900  0.84860  Biso   1.000  C
  C36      1.0000 0.07680  0.59100  0.15140  Biso   1.000  C
  H25      1.0000 0.97110  0.34870  0.84930  Biso   1.000  H
  H26      1.0000 0.02890  0.65130  0.15070  Biso   1.000  H
  C37      1.0000 0.82810  0.40850  0.74950  Biso   1.000  C
  C38      1.0000 0.17190  0.59150  0.25050  Biso   1.000  C
  H27      1.0000 0.81270  0.34550  0.68580  Biso   1.000  H
  H28      1.0000 0.18730  0.65450  0.31420  Biso   1.000  H
  O13      1.0000 0.31850  0.71870  0.91720  Biso   1.000  O
  O14      1.0000 0.68150  0.28130  0.08280  Biso   1.000  O
  C39      1.0000 0.26110  0.65780  0.81760  Biso   1.000  C
  C40      1.0000 0.73890  0.34220  0.18240  Biso   1.000  C
  H29      1.0000 0.28400  0.58310  0.79480  Biso   1.000  H
  H30      1.0000 0.71600  0.41690  0.20520  Biso   1.000  H
  N3       1.0000 0.17180  0.68790  0.74150  Biso   1.000  N
  N4       1.0000 0.82820  0.31210  0.25850  Biso   1.000  N
  C41      1.0000 0.13310  0.80550  0.76720  Biso   1.000  C
  C42      1.0000 0.86690  0.19450  0.23280  Biso   1.000  C
  H31      1.0000 0.17940  0.84940  0.84500  Biso   1.000  H
  H32      1.0000 0.82060  0.15060  0.15500  Biso   1.000  H
  H33      1.0000 0.02310  0.76470  0.74690  Biso   1.000  H
  H34      1.0000 0.97690  0.23530  0.25310  Biso   1.000  H
  H35      1.0000 0.17100  0.88030  0.72680  Biso   1.000  H
  H36      1.0000 0.82900  0.11970  0.27320  Biso   1.000  H
  C43      1.0000 0.11120  0.60770  0.62650  Biso   1.000  C
  C44      1.0000 0.88880  0.39230  0.37350  Biso   1.000  C
  H37      1.0000 0.14490  0.53330  0.62020  Biso   1.000  H
  H38      1.0000 0.85510  0.46670  0.37980  Biso   1.000  H
  H39      1.0000 0.14830  0.67640  0.58160  Biso   1.000  H
  H40      1.0000 0.85170  0.32360  0.41840  Biso   1.000  H
  H41      1.0000 0.00060  0.56070  0.60200  Biso   1.000  H
  H42      1.0000 0.99940  0.43930  0.39800  Biso   1.000  H
  O15      1.0000 0.55690  0.64730  0.99710  Biso   1.000  O
  O16      1.0000 0.44310  0.35270  0.00290  Biso   1.000  O
  H43      1.0000 0.51530  0.70720  0.98330  Biso   1.000  H
  H44      1.0000 0.48470  0.29280  0.01670  Biso   1.000  H
  H45      1.0000 0.48390  0.59710  0.01860  Biso   1.000  H
  H46      1.0000 0.51610  0.40290  0.98140  Biso   1.000  H
  O17      1.0000 0.03930  0.97260  0.01080  Biso   1.000  O
  O18      1.0000 0.96070  0.02740  0.98920  Biso   1.000  O
  H47      1.0000 0.08430  0.96900  0.97090  Biso   1.000  H
  H48      1.0000 0.91570  0.03100  0.02910  Biso   1.000  H
  H49      1.0000 0.02380  0.06940  0.95550  Biso   1.000  H
  H50      1.0000 0.97620  0.93060  0.04450  Biso   1.000  H
