data_image0
_cell_length_a       10.5527
_cell_length_b       11.8073
_cell_length_c       13.4535
_cell_angle_alpha    100.841
_cell_angle_beta     105.604
_cell_angle_gamma    97.337

_symmetry_space_group_name_H-M    "P 1"
_symmetry_int_tables_number       1

loop_
  _symmetry_equiv_pos_as_xyz
  'x, y, z'

loop_
  _atom_site_label
  _atom_site_occupancy
  _atom_site_fract_x
  _atom_site_fract_y
  _atom_site_fract_z
  _atom_site_thermal_displace_type
  _atom_site_B_iso_or_equiv
  _atom_site_type_symbol
  C1       1.0000 0.53110  0.84090  0.64880  Biso   1.000  C
  C2       1.0000 0.46890  0.15910  0.35120  Biso   1.000  C
  C3       1.0000 0.42550  0.89840  0.61090  Biso   1.000  C
  C4       1.0000 0.57450  0.10160  0.38910  Biso   1.000  C
  C5       1.0000 0.31640  0.80970  0.55550  Biso   1.000  C
  C6       1.0000 0.68360  0.19030  0.44450  Biso   1.000  C
  C7       1.0000 0.17220  0.80750  0.50320  Biso   1.000  C
  C8       1.0000 0.82780  0.19250  0.49680  Biso   1.000  C
  C9       1.0000 0.13260  0.88650  0.44260  Biso   1.000  C
  C10      1.0000 0.86740  0.11350  0.55740  Biso   1.000  C
  H1       1.0000 0.19620  0.94150  0.43230  Biso   1.000  H
  H2       1.0000 0.80380  0.05850  0.56770  Biso   1.000  H
  C11      1.0000 0.07500  0.72610  0.51480  Biso   1.000  C
  C12      1.0000 0.92500  0.27390  0.48520  Biso   1.000  C
  H3       1.0000 0.10050  0.67160  0.55420  Biso   1.000  H
  H4       1.0000 0.89950  0.32840  0.44580  Biso   1.000  H
  C13      1.0000 0.94100  0.72350  0.46920  Biso   1.000  C
  C14      1.0000 0.05900  0.27650  0.53080  Biso   1.000  C
  H5       1.0000 0.87690  0.66810  0.47840  Biso   1.000  H
  H6       1.0000 0.12310  0.33190  0.52160  Biso   1.000  H
  C15      1.0000 0.90210  0.80270  0.41030  Biso   1.000  C
  C16      1.0000 0.09790  0.19730  0.58970  Biso   1.000  C
  H7       1.0000 0.81170  0.80150  0.37950  Biso   1.000  H
  H8       1.0000 0.18830  0.19850  0.62050  Biso   1.000  H
  C17      1.0000 0.99650  0.88260  0.39720  Biso   1.000  C
  C18      1.0000 0.00350  0.11740  0.60280  Biso   1.000  C
  H9       1.0000 0.96990  0.93620  0.35690  Biso   1.000  H
  H10      1.0000 0.03010  0.06380  0.64310  Biso   1.000  H
  C19      1.0000 0.67160  0.89100  0.71360  Biso   1.000  C
  C20      1.0000 0.32840  0.10900  0.28640  Biso   1.000  C
  C21      1.0000 0.77630  0.85560  0.68000  Biso   1.000  C
  C22      1.0000 0.22370  0.14440  0.32000  Biso   1.000  C
  H11      1.0000 0.75860  0.80320  0.61490  Biso   1.000  H
  H12      1.0000 0.24140  0.19680  0.38510  Biso   1.000  H
  C23      1.0000 0.69950  0.97380  0.80940  Biso   1.000  C
  C24      1.0000 0.30050  0.02620  0.19060  Biso   1.000  C
  H13      1.0000 0.63010  0.99990  0.83190  Biso   1.000  H
  H14      1.0000 0.36990  0.00010  0.16810  Biso   1.000  H
  C25      1.0000 0.83160  0.01690  0.87080  Biso   1.000  C
  C26      1.0000 0.16840  0.98310  0.12920  Biso   1.000  C
  H15      1.0000 0.85060  0.07250  0.93430  Biso   1.000  H
  H16      1.0000 0.14940  0.92750  0.06570  Biso   1.000  H
  C27      1.0000 0.93450  0.97800  0.83840  Biso   1.000  C
  C28      1.0000 0.06550  0.02200  0.16160  Biso   1.000  C
  H17      1.0000 0.02270  0.00580  0.88080  Biso   1.000  H
  H18      1.0000 0.97730  0.99420  0.11920  Biso   1.000  H
  C29      1.0000 0.90750  0.89820  0.74340  Biso   1.000  C
  C30      1.0000 0.09250  0.10180  0.25660  Biso   1.000  C
  H19      1.0000 0.97750  0.87260  0.72140  Biso   1.000  H
  H20      1.0000 0.02250  0.12740  0.27860  Biso   1.000  H
  C31      1.0000 0.22290  0.35660  0.05480  Biso   1.000  C
  C32      1.0000 0.77710  0.64340  0.94520  Biso   1.000  C
  C33      1.0000 0.34990  0.35090  0.04610  Biso   1.000  C
  C34      1.0000 0.65010  0.64910  0.95390  Biso   1.000  C
  C35      1.0000 0.43310  0.36140  0.15020  Biso   1.000  C
  C36      1.0000 0.56690  0.63860  0.84980  Biso   1.000  C
  C37      1.0000 0.09060  0.34860  0.97750  Biso   1.000  C
  C38      1.0000 0.90940  0.65140  0.02250  Biso   1.000  C
  C39      1.0000 0.07480  0.34030  0.87070  Biso   1.000  C
  C40      1.0000 0.92520  0.65970  0.12930  Biso   1.000  C
  H21      1.0000 0.14860  0.33630  0.84580  Biso   1.000  H
  H22      1.0000 0.85140  0.66370  0.15420  Biso   1.000  H
  C41      1.0000 0.95120  0.33790  0.80050  Biso   1.000  C
  C42      1.0000 0.04880  0.66210  0.19950  Biso   1.000  C
  H23      1.0000 0.94380  0.33430  0.72950  Biso   1.000  H
  H24      1.0000 0.05620  0.66570  0.27050  Biso   1.000  H
  C43      1.0000 0.84160  0.34070  0.83310  Biso   1.000  C
  C44      1.0000 0.15840  0.65930  0.16690  Biso   1.000  C
  H25      1.0000 0.75880  0.33870  0.78520  Biso   1.000  H
  H26      1.0000 0.24120  0.66130  0.21480  Biso   1.000  H
  C45      1.0000 0.85350  0.34650  0.93760  Biso   1.000  C
  C46      1.0000 0.14650  0.65350  0.06240  Biso   1.000  C
  H27      1.0000 0.77850  0.34810  0.96130  Biso   1.000  H
  H28      1.0000 0.22150  0.65190  0.03870  Biso   1.000  H
  C47      1.0000 0.97690  0.35010  0.00800  Biso   1.000  C
  C48      1.0000 0.02310  0.64990  0.99200  Biso   1.000  C
  H29      1.0000 0.98320  0.35360  0.07890  Biso   1.000  H
  H30      1.0000 0.01680  0.64640  0.92110  Biso   1.000  H
  C49      1.0000 0.57690  0.35340  0.18000  Biso   1.000  C
  C50      1.0000 0.42310  0.64660  0.82000  Biso   1.000  C
  C51      1.0000 0.67620  0.44590  0.24440  Biso   1.000  C
  C52      1.0000 0.32380  0.55410  0.75560  Biso   1.000  C
  H31      1.0000 0.65350  0.51580  0.27260  Biso   1.000  H
  H32      1.0000 0.34650  0.48420  0.72740  Biso   1.000  H
  C53      1.0000 0.61470  0.25150  0.13680  Biso   1.000  C
  C54      1.0000 0.38530  0.74850  0.86320  Biso   1.000  C
  H33      1.0000 0.54970  0.18870  0.09190  Biso   1.000  H
  H34      1.0000 0.45030  0.81130  0.90810  Biso   1.000  H
  C55      1.0000 0.80980  0.43500  0.26720  Biso   1.000  C
  C56      1.0000 0.19020  0.56500  0.73280  Biso   1.000  C
  H35      1.0000 0.87560  0.49760  0.31160  Biso   1.000  H
  H36      1.0000 0.12440  0.50240  0.68840  Biso   1.000  H
  C57      1.0000 0.84580  0.33480  0.22600  Biso   1.000  C
  C58      1.0000 0.15420  0.66520  0.77400  Biso   1.000  C
  H37      1.0000 0.93560  0.32840  0.24220  Biso   1.000  H
  H38      1.0000 0.06440  0.67160  0.75780  Biso   1.000  H
  C59      1.0000 0.74880  0.24300  0.16030  Biso   1.000  C
  C60      1.0000 0.25120  0.75700  0.83970  Biso   1.000  C
  H39      1.0000 0.77320  0.17440  0.13120  Biso   1.000  H
  H40      1.0000 0.22680  0.82560  0.86880  Biso   1.000  H
  C61      1.0000 0.40360  0.35320  0.95290  Biso   1.000  C
  C62      1.0000 0.59640  0.64680  0.04710  Biso   1.000  C
  H41      1.0000 0.36110  0.40640  0.91400  Biso   1.000  H
  H42      1.0000 0.63890  0.59360  0.08600  Biso   1.000  H
  H43      1.0000 0.49870  0.38590  0.98040  Biso   1.000  H
  H44      1.0000 0.50130  0.61410  0.01960  Biso   1.000  H
  C63      1.0000 0.38520  0.23770  0.87560  Biso   1.000  C
  C64      1.0000 0.61480  0.76230  0.12440  Biso   1.000  C
  C65      1.0000 0.31770  0.13060  0.86600  Biso   1.000  C
  C66      1.0000 0.68230  0.86940  0.13400  Biso   1.000  C
  H45      1.0000 0.26910  0.11350  0.91130  Biso   1.000  H
  H46      1.0000 0.73090  0.88650  0.08870  Biso   1.000  H
  C67      1.0000 0.32750  0.04470  0.77910  Biso   1.000  C
  C68      1.0000 0.67250  0.95530  0.22090  Biso   1.000  C
  H47      1.0000 0.28620  0.96630  0.76260  Biso   1.000  H
  H48      1.0000 0.71380  0.03370  0.23740  Biso   1.000  H
  C69      1.0000 0.40260  0.08880  0.72370  Biso   1.000  C
  C70      1.0000 0.59740  0.91120  0.27630  Biso   1.000  C
  C71      1.0000 0.43530  0.02990  0.62630  Biso   1.000  C
  C72      1.0000 0.56470  0.97010  0.37370  Biso   1.000  C
  H49      1.0000 0.52560  0.06490  0.63080  Biso   1.000  H
  H50      1.0000 0.47440  0.93510  0.36920  Biso   1.000  H
  H51      1.0000 0.37480  0.04570  0.56430  Biso   1.000  H
  H52      1.0000 0.62520  0.95430  0.43570  Biso   1.000  H
  Cl1      1.0000 0.20227  0.47060  0.37148  Biso   1.000  Cl
  Cl2      1.0000 0.79773  0.52940  0.62852  Biso   1.000  Cl
  Cl3      1.0000 0.56971  0.59376  0.44056  Biso   1.000  Cl
  Cl4      1.0000 0.43029  0.40624  0.55944  Biso   1.000  Cl
  Cu1      1.0000 0.39774  0.39990  0.38047  Biso   1.000  Cu
  Cu2      1.0000 0.60226  0.60010  0.61953  Biso   1.000  Cu
  N1       1.0000 0.48940  0.72440  0.61800  Biso   1.000  N
  N2       1.0000 0.51060  0.27560  0.38200  Biso   1.000  N
  N3       1.0000 0.35960  0.70670  0.56150  Biso   1.000  N
  N4       1.0000 0.64040  0.29330  0.43850  Biso   1.000  N
  H53      1.0000 0.30990  0.63850  0.53260  Biso   1.000  H
  H54      1.0000 0.69010  0.36150  0.46740  Biso   1.000  H
  N5       1.0000 0.36220  0.37660  0.21970  Biso   1.000  N
  N6       1.0000 0.63780  0.62340  0.78030  Biso   1.000  N
  N7       1.0000 0.23570  0.37120  0.15970  Biso   1.000  N
  N8       1.0000 0.76430  0.62880  0.84030  Biso   1.000  N
  H55      1.0000 0.16970  0.37650  0.18530  Biso   1.000  H
  H56      1.0000 0.83030  0.62350  0.81470  Biso   1.000  H
  S1       1.0000 0.46311  0.23651  0.77768  Biso   1.000  S
  S2       1.0000 0.53689  0.76349  0.22232  Biso   1.000  S
