data_image0
_cell_length_a       15.852
_cell_length_b       8.435
_cell_length_c       14.076
_cell_angle_alpha    90
_cell_angle_beta     113.16
_cell_angle_gamma    90

_symmetry_space_group_name_H-M    "P 1"
_symmetry_int_tables_number       1

loop_
  _symmetry_equiv_pos_as_xyz
  'x, y, z'

loop_
  _atom_site_label
  _atom_site_occupancy
  _atom_site_fract_x
  _atom_site_fract_y
  _atom_site_fract_z
  _atom_site_thermal_displace_type
  _atom_site_B_iso_or_equiv
  _atom_site_type_symbol
  Cu1      1.0000 0.00000  0.00000  0.00000  Biso   1.000  Cu
  Cu2      1.0000 0.50000  0.50000  0.00000  Biso   1.000  Cu
  Cu3      1.0000 0.00000  0.00000  0.50000  Biso   1.000  Cu
  Cu4      1.0000 0.50000  0.50000  0.50000  Biso   1.000  Cu
  O1       1.0000 0.01962  0.20380  0.07326  Biso   1.000  O
  O2       1.0000 0.51962  0.70380  0.07326  Biso   1.000  O
  O3       1.0000 0.98038  0.20380  0.42674  Biso   1.000  O
  O4       1.0000 0.48038  0.70380  0.42674  Biso   1.000  O
  O5       1.0000 0.98038  0.79620  0.92674  Biso   1.000  O
  O6       1.0000 0.48038  0.29620  0.92674  Biso   1.000  O
  O7       1.0000 0.01962  0.79620  0.57326  Biso   1.000  O
  O8       1.0000 0.51962  0.29620  0.57326  Biso   1.000  O
  O9       1.0000 0.92986  0.09790  0.14352  Biso   1.000  O
  O10      1.0000 0.42986  0.59790  0.14352  Biso   1.000  O
  O11      1.0000 0.07014  0.09790  0.35648  Biso   1.000  O
  O12      1.0000 0.57014  0.59790  0.35648  Biso   1.000  O
  O13      1.0000 0.07014  0.90210  0.85648  Biso   1.000  O
  O14      1.0000 0.57014  0.40210  0.85648  Biso   1.000  O
  O15      1.0000 0.92986  0.90210  0.64352  Biso   1.000  O
  O16      1.0000 0.42986  0.40210  0.64352  Biso   1.000  O
  N1       1.0000 0.11815  0.92400  0.10586  Biso   1.000  N
  N2       1.0000 0.61815  0.42400  0.10586  Biso   1.000  N
  N3       1.0000 0.88185  0.92400  0.39414  Biso   1.000  N
  N4       1.0000 0.38185  0.42400  0.39414  Biso   1.000  N
  N5       1.0000 0.88185  0.07600  0.89414  Biso   1.000  N
  N6       1.0000 0.38185  0.57600  0.89414  Biso   1.000  N
  N7       1.0000 0.11815  0.07600  0.60586  Biso   1.000  N
  N8       1.0000 0.61815  0.57600  0.60586  Biso   1.000  N
  C1       1.0000 0.97856  0.20720  0.13535  Biso   1.000  C
  C2       1.0000 0.47856  0.70720  0.13535  Biso   1.000  C
  C3       1.0000 0.02144  0.20720  0.36465  Biso   1.000  C
  C4       1.0000 0.52144  0.70720  0.36465  Biso   1.000  C
  C5       1.0000 0.02144  0.79280  0.86465  Biso   1.000  C
  C6       1.0000 0.52144  0.29280  0.86465  Biso   1.000  C
  C7       1.0000 0.97856  0.79280  0.63535  Biso   1.000  C
  C8       1.0000 0.47856  0.29280  0.63535  Biso   1.000  C
  C9       1.0000 0.99126  0.35670  0.19685  Biso   1.000  C
  C10      1.0000 0.49126  0.85670  0.19685  Biso   1.000  C
  C11      1.0000 0.00874  0.35670  0.30315  Biso   1.000  C
  C12      1.0000 0.50874  0.85670  0.30315  Biso   1.000  C
  C13      1.0000 0.00874  0.64330  0.80315  Biso   1.000  C
  C14      1.0000 0.50874  0.14330  0.80315  Biso   1.000  C
  C15      1.0000 0.99126  0.64330  0.69685  Biso   1.000  C
  C16      1.0000 0.49126  0.14330  0.69685  Biso   1.000  C
  C17      1.0000 0.98180  0.50080  0.14550  Biso   1.000  C
  C18      1.0000 0.48180  0.00080  0.14550  Biso   1.000  C
  C19      1.0000 0.01820  0.50080  0.35450  Biso   1.000  C
  C20      1.0000 0.51820  0.00080  0.35450  Biso   1.000  C
  C21      1.0000 0.01820  0.49920  0.85450  Biso   1.000  C
  C22      1.0000 0.51820  0.99920  0.85450  Biso   1.000  C
  C23      1.0000 0.98180  0.49920  0.64550  Biso   1.000  C
  C24      1.0000 0.48180  0.99920  0.64550  Biso   1.000  C
  H1       1.0000 0.96990  0.50140  0.07530  Biso   1.000  H
  H2       1.0000 0.46990  0.00140  0.07530  Biso   1.000  H
  H3       1.0000 0.03010  0.50140  0.42470  Biso   1.000  H
  H4       1.0000 0.53010  0.00140  0.42470  Biso   1.000  H
  H5       1.0000 0.03010  0.49860  0.92470  Biso   1.000  H
  H6       1.0000 0.53010  0.99860  0.92470  Biso   1.000  H
  H7       1.0000 0.96990  0.49860  0.57530  Biso   1.000  H
  H8       1.0000 0.46990  0.99860  0.57530  Biso   1.000  H
  C25      1.0000 0.14081  0.93250  0.20630  Biso   1.000  C
  C26      1.0000 0.64081  0.43250  0.20630  Biso   1.000  C
  C27      1.0000 0.85919  0.93250  0.29370  Biso   1.000  C
  C28      1.0000 0.35919  0.43250  0.29370  Biso   1.000  C
  C29      1.0000 0.85919  0.06750  0.79370  Biso   1.000  C
  C30      1.0000 0.35919  0.56750  0.79370  Biso   1.000  C
  C31      1.0000 0.14081  0.06750  0.70630  Biso   1.000  C
  C32      1.0000 0.64081  0.56750  0.70630  Biso   1.000  C
  H9       1.0000 0.10440  0.97820  0.23690  Biso   1.000  H
  H10      1.0000 0.60440  0.47820  0.23690  Biso   1.000  H
  H11      1.0000 0.89560  0.97820  0.26310  Biso   1.000  H
  H12      1.0000 0.39560  0.47820  0.26310  Biso   1.000  H
  H13      1.0000 0.89560  0.02180  0.76310  Biso   1.000  H
  H14      1.0000 0.39560  0.52180  0.76310  Biso   1.000  H
  H15      1.0000 0.10440  0.02180  0.73690  Biso   1.000  H
  H16      1.0000 0.60440  0.52180  0.73690  Biso   1.000  H
  N9       1.0000 0.22295  0.86690  0.25868  Biso   1.000  N
  N10      1.0000 0.72295  0.36690  0.25868  Biso   1.000  N
  N11      1.0000 0.77705  0.86690  0.24132  Biso   1.000  N
  N12      1.0000 0.27705  0.36690  0.24132  Biso   1.000  N
  N13      1.0000 0.77705  0.13310  0.74132  Biso   1.000  N
  N14      1.0000 0.27705  0.63310  0.74132  Biso   1.000  N
  N15      1.0000 0.22295  0.13310  0.75868  Biso   1.000  N
  N16      1.0000 0.72295  0.63310  0.75868  Biso   1.000  N
  C33      1.0000 0.25450  0.81250  0.18830  Biso   1.000  C
  C34      1.0000 0.75450  0.31250  0.18830  Biso   1.000  C
  C35      1.0000 0.74550  0.81250  0.31170  Biso   1.000  C
  C36      1.0000 0.24550  0.31250  0.31170  Biso   1.000  C
  C37      1.0000 0.74550  0.18750  0.81170  Biso   1.000  C
  C38      1.0000 0.24550  0.68750  0.81170  Biso   1.000  C
  C39      1.0000 0.25450  0.18750  0.68830  Biso   1.000  C
  C40      1.0000 0.75450  0.68750  0.68830  Biso   1.000  C
  H17      1.0000 0.31000  0.76130  0.20220  Biso   1.000  H
  H18      1.0000 0.81000  0.26130  0.20220  Biso   1.000  H
  H19      1.0000 0.69000  0.76130  0.29780  Biso   1.000  H
  H20      1.0000 0.19000  0.26130  0.29780  Biso   1.000  H
  H21      1.0000 0.69000  0.23870  0.79780  Biso   1.000  H
  H22      1.0000 0.19000  0.73870  0.79780  Biso   1.000  H
  H23      1.0000 0.31000  0.23870  0.70220  Biso   1.000  H
  H24      1.0000 0.81000  0.73870  0.70220  Biso   1.000  H
  C41      1.0000 0.19004  0.84680  0.09450  Biso   1.000  C
  C42      1.0000 0.69004  0.34680  0.09450  Biso   1.000  C
  C43      1.0000 0.80996  0.84680  0.40550  Biso   1.000  C
  C44      1.0000 0.30996  0.34680  0.40550  Biso   1.000  C
  C45      1.0000 0.80996  0.15320  0.90550  Biso   1.000  C
  C46      1.0000 0.30996  0.65320  0.90550  Biso   1.000  C
  C47      1.0000 0.19004  0.15320  0.59450  Biso   1.000  C
  C48      1.0000 0.69004  0.65320  0.59450  Biso   1.000  C
  H25      1.0000 0.19360  0.82220  0.03180  Biso   1.000  H
  H26      1.0000 0.69360  0.32220  0.03180  Biso   1.000  H
  H27      1.0000 0.80640  0.82220  0.46820  Biso   1.000  H
  H28      1.0000 0.30640  0.32220  0.46820  Biso   1.000  H
  H29      1.0000 0.80640  0.17780  0.96820  Biso   1.000  H
  H30      1.0000 0.30640  0.67780  0.96820  Biso   1.000  H
  H31      1.0000 0.19360  0.17780  0.53180  Biso   1.000  H
  H32      1.0000 0.69360  0.67780  0.53180  Biso   1.000  H
  C49      1.0000 0.98990  0.64290  0.19700  Biso   1.000  C
  C50      1.0000 0.48990  0.14290  0.19700  Biso   1.000  C
  C51      1.0000 0.01010  0.64290  0.30300  Biso   1.000  C
  C52      1.0000 0.51010  0.14290  0.30300  Biso   1.000  C
  C53      1.0000 0.01010  0.35710  0.80300  Biso   1.000  C
  C54      1.0000 0.51010  0.85710  0.80300  Biso   1.000  C
  C55      1.0000 0.98990  0.35710  0.69700  Biso   1.000  C
  C56      1.0000 0.48990  0.85710  0.69700  Biso   1.000  C
  H33      1.0000 0.98180  0.73820  0.16140  Biso   1.000  H
  H34      1.0000 0.48180  0.23820  0.16140  Biso   1.000  H
  H35      1.0000 0.01820  0.73820  0.33860  Biso   1.000  H
  H36      1.0000 0.51820  0.23820  0.33860  Biso   1.000  H
  H37      1.0000 0.01820  0.26180  0.83860  Biso   1.000  H
  H38      1.0000 0.51820  0.76180  0.83860  Biso   1.000  H
  H39      1.0000 0.98180  0.26180  0.66140  Biso   1.000  H
  H40      1.0000 0.48180  0.76180  0.66140  Biso   1.000  H
  C57      1.0000 0.26770  0.85370  0.37150  Biso   1.000  C
  C58      1.0000 0.76770  0.35370  0.37150  Biso   1.000  C
  C59      1.0000 0.73230  0.85370  0.12850  Biso   1.000  C
  C60      1.0000 0.23230  0.35370  0.12850  Biso   1.000  C
  C61      1.0000 0.73230  0.14630  0.62850  Biso   1.000  C
  C62      1.0000 0.23230  0.64630  0.62850  Biso   1.000  C
  C63      1.0000 0.26770  0.14630  0.87150  Biso   1.000  C
  C64      1.0000 0.76770  0.64630  0.87150  Biso   1.000  C
  H41      1.0000 0.32540  0.90850  0.39550  Biso   1.000  H
  H42      1.0000 0.82540  0.40850  0.39550  Biso   1.000  H
  H43      1.0000 0.67460  0.90850  0.10450  Biso   1.000  H
  H44      1.0000 0.17460  0.40850  0.10450  Biso   1.000  H
  H45      1.0000 0.67460  0.09150  0.60450  Biso   1.000  H
  H46      1.0000 0.17460  0.59150  0.60450  Biso   1.000  H
  H47      1.0000 0.32540  0.09150  0.89550  Biso   1.000  H
  H48      1.0000 0.82540  0.59150  0.89550  Biso   1.000  H
  H49      1.0000 0.27790  0.74390  0.39060  Biso   1.000  H
  H50      1.0000 0.77790  0.24390  0.39060  Biso   1.000  H
  H51      1.0000 0.72210  0.74390  0.10940  Biso   1.000  H
  H52      1.0000 0.22210  0.24390  0.10940  Biso   1.000  H
  H53      1.0000 0.72210  0.25610  0.60940  Biso   1.000  H
  H54      1.0000 0.22210  0.75610  0.60940  Biso   1.000  H
  H55      1.0000 0.27790  0.25610  0.89060  Biso   1.000  H
  H56      1.0000 0.77790  0.75610  0.89060  Biso   1.000  H
  H57      1.0000 0.22910  0.89990  0.40210  Biso   1.000  H
  H58      1.0000 0.72910  0.39990  0.40210  Biso   1.000  H
  H59      1.0000 0.77090  0.89990  0.09790  Biso   1.000  H
  H60      1.0000 0.27090  0.39990  0.09790  Biso   1.000  H
  H61      1.0000 0.77090  0.10010  0.59790  Biso   1.000  H
  H62      1.0000 0.27090  0.60010  0.59790  Biso   1.000  H
  H63      1.0000 0.22910  0.10010  0.90210  Biso   1.000  H
  H64      1.0000 0.72910  0.60010  0.90210  Biso   1.000  H
