data_image0
_cell_length_a       11.268
_cell_length_b       9.895
_cell_length_c       14.994
_cell_angle_alpha    90
_cell_angle_beta     110.73
_cell_angle_gamma    90

_symmetry_space_group_name_H-M    "P 1"
_symmetry_int_tables_number       1

loop_
  _symmetry_equiv_pos_as_xyz
  'x, y, z'

loop_
  _atom_site_label
  _atom_site_occupancy
  _atom_site_fract_x
  _atom_site_fract_y
  _atom_site_fract_z
  _atom_site_thermal_displace_type
  _atom_site_B_iso_or_equiv
  _atom_site_type_symbol
  Cu1      1.0000 0.03736  0.20123  0.70546  Biso   1.000  Cu
  Cu2      1.0000 0.96264  0.70123  0.79454  Biso   1.000  Cu
  Cu3      1.0000 0.96264  0.79877  0.29454  Biso   1.000  Cu
  Cu4      1.0000 0.03736  0.29877  0.20546  Biso   1.000  Cu
  C1       1.0000 0.02980  0.19620  0.52020  Biso   1.000  C
  C2       1.0000 0.97020  0.69620  0.97980  Biso   1.000  C
  C3       1.0000 0.97020  0.80380  0.47980  Biso   1.000  C
  C4       1.0000 0.02980  0.30380  0.02020  Biso   1.000  C
  N1       1.0000 0.97520  0.17110  0.42690  Biso   1.000  N
  N2       1.0000 0.02480  0.67110  0.07310  Biso   1.000  N
  N3       1.0000 0.02480  0.82890  0.57310  Biso   1.000  N
  N4       1.0000 0.97520  0.32890  0.92690  Biso   1.000  N
  H1       1.0000 0.00930  0.18220  0.38440  Biso   1.000  H
  H2       1.0000 0.99070  0.68220  0.11560  Biso   1.000  H
  H3       1.0000 0.99070  0.81780  0.61560  Biso   1.000  H
  H4       1.0000 0.00930  0.31780  0.88440  Biso   1.000  H
  C5       1.0000 0.85370  0.12420  0.41110  Biso   1.000  C
  C6       1.0000 0.14630  0.62420  0.08890  Biso   1.000  C
  C7       1.0000 0.14630  0.87580  0.58890  Biso   1.000  C
  C8       1.0000 0.85370  0.37580  0.91110  Biso   1.000  C
  C9       1.0000 0.75570  0.08450  0.32820  Biso   1.000  C
  C10      1.0000 0.24430  0.58450  0.17180  Biso   1.000  C
  C11      1.0000 0.24430  0.91550  0.67180  Biso   1.000  C
  C12      1.0000 0.75570  0.41550  0.82820  Biso   1.000  C
  H5       1.0000 0.76580  0.08320  0.26930  Biso   1.000  H
  H6       1.0000 0.23420  0.58320  0.23070  Biso   1.000  H
  H7       1.0000 0.23420  0.91680  0.73070  Biso   1.000  H
  H8       1.0000 0.76580  0.41680  0.76930  Biso   1.000  H
  C13      1.0000 0.64320  0.04720  0.33820  Biso   1.000  C
  C14      1.0000 0.35680  0.54720  0.16180  Biso   1.000  C
  C15      1.0000 0.35680  0.95280  0.66180  Biso   1.000  C
  C16      1.0000 0.64320  0.45280  0.83820  Biso   1.000  C
  H9       1.0000 0.57490  0.02270  0.28420  Biso   1.000  H
  H10      1.0000 0.42510  0.52270  0.21580  Biso   1.000  H
  H11      1.0000 0.42510  0.97730  0.71580  Biso   1.000  H
  H12      1.0000 0.57490  0.47730  0.78420  Biso   1.000  H
  C17      1.0000 0.62840  0.04510  0.42760  Biso   1.000  C
  C18      1.0000 0.37160  0.54510  0.07240  Biso   1.000  C
  C19      1.0000 0.37160  0.95490  0.57240  Biso   1.000  C
  C20      1.0000 0.62840  0.45490  0.92760  Biso   1.000  C
  H13      1.0000 0.55150  0.01770  0.43150  Biso   1.000  H
  H14      1.0000 0.44850  0.51770  0.06850  Biso   1.000  H
  H15      1.0000 0.44850  0.98230  0.56850  Biso   1.000  H
  H16      1.0000 0.55150  0.48230  0.93150  Biso   1.000  H
  C21      1.0000 0.72700  0.08340  0.51050  Biso   1.000  C
  C22      1.0000 0.27300  0.58340  0.98950  Biso   1.000  C
  C23      1.0000 0.27300  0.91660  0.48950  Biso   1.000  C
  C24      1.0000 0.72700  0.41660  0.01050  Biso   1.000  C
  H17      1.0000 0.71750  0.08220  0.56970  Biso   1.000  H
  H18      1.0000 0.28250  0.58220  0.93030  Biso   1.000  H
  H19      1.0000 0.28250  0.91780  0.43030  Biso   1.000  H
  H20      1.0000 0.71750  0.41780  0.06970  Biso   1.000  H
  C25      1.0000 0.83980  0.12340  0.50090  Biso   1.000  C
  C26      1.0000 0.16020  0.62340  0.99910  Biso   1.000  C
  C27      1.0000 0.16020  0.87660  0.49910  Biso   1.000  C
  C28      1.0000 0.83980  0.37660  0.00090  Biso   1.000  C
  N5       1.0000 0.95370  0.16920  0.56800  Biso   1.000  N
  N6       1.0000 0.04630  0.66920  0.93200  Biso   1.000  N
  N7       1.0000 0.04630  0.83080  0.43200  Biso   1.000  N
  N8       1.0000 0.95370  0.33080  0.06800  Biso   1.000  N
  C29      1.0000 0.16200  0.24580  0.57000  Biso   1.000  C
  C30      1.0000 0.83800  0.74580  0.93000  Biso   1.000  C
  C31      1.0000 0.83800  0.75420  0.43000  Biso   1.000  C
  C32      1.0000 0.16200  0.25420  0.07000  Biso   1.000  C
  H21      1.0000 0.18380  0.31370  0.53170  Biso   1.000  H
  H22      1.0000 0.81620  0.81370  0.96830  Biso   1.000  H
  H23      1.0000 0.81620  0.68630  0.46830  Biso   1.000  H
  H24      1.0000 0.18380  0.18630  0.03170  Biso   1.000  H
  H25      1.0000 0.22190  0.17180  0.58130  Biso   1.000  H
  H26      1.0000 0.77810  0.67180  0.91870  Biso   1.000  H
  H27      1.0000 0.77810  0.82820  0.41870  Biso   1.000  H
  H28      1.0000 0.22190  0.32820  0.08130  Biso   1.000  H
  N9       1.0000 0.16520  0.30530  0.66240  Biso   1.000  N
  N10      1.0000 0.83480  0.80530  0.83760  Biso   1.000  N
  N11      1.0000 0.83480  0.69470  0.33760  Biso   1.000  N
  N12      1.0000 0.16520  0.19470  0.16240  Biso   1.000  N
  C33      1.0000 0.29170  0.29640  0.74060  Biso   1.000  C
  C34      1.0000 0.70830  0.79640  0.75940  Biso   1.000  C
  C35      1.0000 0.70830  0.70360  0.25940  Biso   1.000  C
  C36      1.0000 0.29170  0.20360  0.24060  Biso   1.000  C
  H29      1.0000 0.32600  0.38670  0.75660  Biso   1.000  H
  H30      1.0000 0.67400  0.88670  0.74340  Biso   1.000  H
  H31      1.0000 0.67400  0.61330  0.24340  Biso   1.000  H
  H32      1.0000 0.32600  0.11330  0.25660  Biso   1.000  H
  H33      1.0000 0.34920  0.24580  0.71790  Biso   1.000  H
  H34      1.0000 0.65080  0.74580  0.78210  Biso   1.000  H
  H35      1.0000 0.65080  0.75420  0.28210  Biso   1.000  H
  H36      1.0000 0.34920  0.25420  0.21790  Biso   1.000  H
  C37      1.0000 0.28540  0.22850  0.83000  Biso   1.000  C
  C38      1.0000 0.71460  0.72850  0.67000  Biso   1.000  C
  C39      1.0000 0.71460  0.77150  0.17000  Biso   1.000  C
  C40      1.0000 0.28540  0.27150  0.33000  Biso   1.000  C
  O1       1.0000 0.17920  0.17940  0.82670  Biso   1.000  O
  O2       1.0000 0.82080  0.67940  0.67330  Biso   1.000  O
  O3       1.0000 0.82080  0.82060  0.17330  Biso   1.000  O
  O4       1.0000 0.17920  0.32060  0.32670  Biso   1.000  O
  O5       1.0000 0.38440  0.22580  0.90050  Biso   1.000  O
  O6       1.0000 0.61560  0.72580  0.59950  Biso   1.000  O
  O7       1.0000 0.61560  0.77420  0.09950  Biso   1.000  O
  O8       1.0000 0.38440  0.27420  0.40050  Biso   1.000  O
  C41      1.0000 0.11900  0.44730  0.64620  Biso   1.000  C
  C42      1.0000 0.88100  0.94730  0.85380  Biso   1.000  C
  C43      1.0000 0.88100  0.55270  0.35380  Biso   1.000  C
  C44      1.0000 0.11900  0.05270  0.14620  Biso   1.000  C
  H37      1.0000 0.05230  0.45420  0.58410  Biso   1.000  H
  H38      1.0000 0.94770  0.95420  0.91590  Biso   1.000  H
  H39      1.0000 0.94770  0.54580  0.41590  Biso   1.000  H
  H40      1.0000 0.05230  0.04580  0.08410  Biso   1.000  H
  H41      1.0000 0.18800  0.50600  0.64630  Biso   1.000  H
  H42      1.0000 0.81200  0.00600  0.85370  Biso   1.000  H
  H43      1.0000 0.81200  0.49400  0.35370  Biso   1.000  H
  H44      1.0000 0.18800  0.99400  0.14630  Biso   1.000  H
  C45      1.0000 0.06830  0.49380  0.72240  Biso   1.000  C
  C46      1.0000 0.93170  0.99380  0.77760  Biso   1.000  C
  C47      1.0000 0.93170  0.50620  0.27760  Biso   1.000  C
  C48      1.0000 0.06830  0.00620  0.22240  Biso   1.000  C
  O9       1.0000 0.01400  0.41120  0.75700  Biso   1.000  O
  O10      1.0000 0.98600  0.91120  0.74300  Biso   1.000  O
  O11      1.0000 0.98600  0.58880  0.24300  Biso   1.000  O
  O12      1.0000 0.01400  0.08880  0.25700  Biso   1.000  O
  O13      1.0000 0.08010  0.62040  0.74092  Biso   1.000  O
  O14      1.0000 0.91990  0.12040  0.75908  Biso   1.000  O
  O15      1.0000 0.91990  0.37960  0.25908  Biso   1.000  O
  O16      1.0000 0.08010  0.87960  0.24092  Biso   1.000  O
  O17      1.0000 0.59200  0.40810  0.38120  Biso   1.000  O
  O18      1.0000 0.40800  0.90810  0.11880  Biso   1.000  O
  O19      1.0000 0.40800  0.59190  0.61880  Biso   1.000  O
  O20      1.0000 0.59200  0.09190  0.88120  Biso   1.000  O
  H45      1.0000 0.53500  0.35600  0.38500  Biso   1.000  H
  H46      1.0000 0.46500  0.85600  0.11500  Biso   1.000  H
  H47      1.0000 0.46500  0.64400  0.61500  Biso   1.000  H
  H48      1.0000 0.53500  0.14400  0.88500  Biso   1.000  H
  H49      1.0000 0.61000  0.37500  0.33500  Biso   1.000  H
  H50      1.0000 0.39000  0.87500  0.16500  Biso   1.000  H
  H51      1.0000 0.39000  0.62500  0.66500  Biso   1.000  H
  H52      1.0000 0.61000  0.12500  0.83500  Biso   1.000  H
  O21      1.0000 0.46710  0.31790  0.59760  Biso   1.000  O
  O22      1.0000 0.53290  0.81790  0.90240  Biso   1.000  O
  O23      1.0000 0.53290  0.68210  0.40240  Biso   1.000  O
  O24      1.0000 0.46710  0.18210  0.09760  Biso   1.000  O
  H53      1.0000 0.46300  0.40100  0.61000  Biso   1.000  H
  H54      1.0000 0.53700  0.90100  0.89000  Biso   1.000  H
  H55      1.0000 0.53700  0.59900  0.39000  Biso   1.000  H
  H56      1.0000 0.46300  0.09900  0.11000  Biso   1.000  H
  H57      1.0000 0.43500  0.30400  0.53780  Biso   1.000  H
  H58      1.0000 0.56500  0.80400  0.96220  Biso   1.000  H
  H59      1.0000 0.56500  0.69600  0.46220  Biso   1.000  H
  H60      1.0000 0.43500  0.19600  0.03780  Biso   1.000  H
  O25      1.0000 0.63820  0.14010  0.71300  Biso   1.000  O
  O26      1.0000 0.36180  0.64010  0.78700  Biso   1.000  O
  O27      1.0000 0.36180  0.85990  0.28700  Biso   1.000  O
  O28      1.0000 0.63820  0.35990  0.21300  Biso   1.000  O
  H61      1.0000 0.71510  0.16100  0.72500  Biso   1.000  H
  H62      1.0000 0.28490  0.66100  0.77500  Biso   1.000  H
  H63      1.0000 0.28490  0.83900  0.27500  Biso   1.000  H
  H64      1.0000 0.71510  0.33900  0.22500  Biso   1.000  H
  H65      1.0000 0.58100  0.19400  0.68100  Biso   1.000  H
  H66      1.0000 0.41900  0.69400  0.81900  Biso   1.000  H
  H67      1.0000 0.41900  0.80600  0.31900  Biso   1.000  H
  H68      1.0000 0.58100  0.30600  0.18100  Biso   1.000  H
  O29      1.0000 0.81380  0.45820  0.54500  Biso   1.000  O
  O30      1.0000 0.18620  0.95820  0.95500  Biso   1.000  O
  O31      1.0000 0.18620  0.54180  0.45500  Biso   1.000  O
  O32      1.0000 0.81380  0.04180  0.04500  Biso   1.000  O
  H69      1.0000 0.74000  0.43800  0.50600  Biso   1.000  H
  H70      1.0000 0.26000  0.93800  0.99400  Biso   1.000  H
  H71      1.0000 0.26000  0.56200  0.49400  Biso   1.000  H
  H72      1.0000 0.74000  0.06200  0.00600  Biso   1.000  H
  H73      1.0000 0.77500  0.42700  0.58000  Biso   1.000  H
  H74      1.0000 0.22500  0.92700  0.92000  Biso   1.000  H
  H75      1.0000 0.22500  0.57300  0.42000  Biso   1.000  H
  H76      1.0000 0.77500  0.07300  0.08000  Biso   1.000  H
