data_image0
_cell_length_a       8.5878
_cell_length_b       12.9197
_cell_length_c       9.7408
_cell_angle_alpha    90
_cell_angle_beta     92.83
_cell_angle_gamma    90

_symmetry_space_group_name_H-M    "P 1"
_symmetry_int_tables_number       1

loop_
  _symmetry_equiv_pos_as_xyz
  'x, y, z'

loop_
  _atom_site_label
  _atom_site_occupancy
  _atom_site_fract_x
  _atom_site_fract_y
  _atom_site_fract_z
  _atom_site_thermal_displace_type
  _atom_site_B_iso_or_equiv
  _atom_site_type_symbol
  Re1      1.0000 0.01413  0.62428  0.87080  Biso   1.000  Re
  Re2      1.0000 0.48587  0.12428  0.62920  Biso   1.000  Re
  Re3      1.0000 0.98587  0.37572  0.12920  Biso   1.000  Re
  Re4      1.0000 0.51413  0.87572  0.37080  Biso   1.000  Re
  Cu1      1.0000 0.16199  0.79186  0.18271  Biso   1.000  Cu
  Cu2      1.0000 0.33801  0.29186  0.31729  Biso   1.000  Cu
  Cu3      1.0000 0.83801  0.20814  0.81729  Biso   1.000  Cu
  Cu4      1.0000 0.66199  0.70814  0.68271  Biso   1.000  Cu
  O1       1.0000 0.00840  0.69669  0.02060  Biso   1.000  O
  O2       1.0000 0.49160  0.19669  0.47940  Biso   1.000  O
  O3       1.0000 0.99160  0.30331  0.97940  Biso   1.000  O
  O4       1.0000 0.50840  0.80331  0.52060  Biso   1.000  O
  O5       1.0000 0.12130  0.51320  0.89860  Biso   1.000  O
  O6       1.0000 0.37870  0.01320  0.60140  Biso   1.000  O
  O7       1.0000 0.87870  0.48680  0.10140  Biso   1.000  O
  O8       1.0000 0.62130  0.98680  0.39860  Biso   1.000  O
  O9       1.0000 0.10550  0.69690  0.74890  Biso   1.000  O
  O10      1.0000 0.39450  0.19690  0.75110  Biso   1.000  O
  O11      1.0000 0.89450  0.30310  0.25110  Biso   1.000  O
  O12      1.0000 0.60550  0.80310  0.24890  Biso   1.000  O
  O13      1.0000 0.82630  0.59510  0.80840  Biso   1.000  O
  O14      1.0000 0.67370  0.09510  0.69160  Biso   1.000  O
  O15      1.0000 0.17370  0.40490  0.19160  Biso   1.000  O
  O16      1.0000 0.32630  0.90490  0.30840  Biso   1.000  O
  O17      1.0000 0.27880  0.66947  0.24920  Biso   1.000  O
  O18      1.0000 0.22120  0.16947  0.25080  Biso   1.000  O
  O19      1.0000 0.72120  0.33053  0.75080  Biso   1.000  O
  O20      1.0000 0.77880  0.83053  0.74920  Biso   1.000  O
  O21      1.0000 0.46520  0.55825  0.18870  Biso   1.000  O
  O22      1.0000 0.03480  0.05825  0.31130  Biso   1.000  O
  O23      1.0000 0.53480  0.44175  0.81130  Biso   1.000  O
  O24      1.0000 0.96520  0.94175  0.68870  Biso   1.000  O
  O25      1.0000 0.05950  0.91719  0.11330  Biso   1.000  O
  O26      1.0000 0.44050  0.41719  0.38670  Biso   1.000  O
  O27      1.0000 0.94050  0.08281  0.88670  Biso   1.000  O
  O28      1.0000 0.55950  0.58281  0.61330  Biso   1.000  O
  N1       1.0000 0.31350  0.78620  0.03320  Biso   1.000  N
  N2       1.0000 0.18650  0.28620  0.46680  Biso   1.000  N
  N3       1.0000 0.68650  0.21380  0.96680  Biso   1.000  N
  N4       1.0000 0.81350  0.71380  0.53320  Biso   1.000  N
  N5       1.0000 0.51160  0.73500  0.82960  Biso   1.000  N
  N6       1.0000 0.98840  0.23500  0.67040  Biso   1.000  N
  N7       1.0000 0.48840  0.26500  0.17040  Biso   1.000  N
  N8       1.0000 0.01160  0.76500  0.32960  Biso   1.000  N
  C1       1.0000 0.38230  0.63500  0.16970  Biso   1.000  C
  C2       1.0000 0.11770  0.13500  0.33030  Biso   1.000  C
  C3       1.0000 0.61770  0.36500  0.83030  Biso   1.000  C
  C4       1.0000 0.88230  0.86500  0.66970  Biso   1.000  C
  C5       1.0000 0.40010  0.69940  0.04180  Biso   1.000  C
  C6       1.0000 0.09990  0.19940  0.45820  Biso   1.000  C
  C7       1.0000 0.59990  0.30060  0.95820  Biso   1.000  C
  C8       1.0000 0.90010  0.80060  0.54180  Biso   1.000  C
  C9       1.0000 0.32510  0.84810  0.92440  Biso   1.000  C
  C10      1.0000 0.17490  0.34810  0.57560  Biso   1.000  C
  C11      1.0000 0.67490  0.15190  0.07560  Biso   1.000  C
  C12      1.0000 0.82510  0.65190  0.42440  Biso   1.000  C
  H1       1.0000 0.26500  0.90980  0.91710  Biso   1.000  H
  H2       1.0000 0.23500  0.40980  0.58290  Biso   1.000  H
  H3       1.0000 0.73500  0.09020  0.08290  Biso   1.000  H
  H4       1.0000 0.76500  0.59020  0.41710  Biso   1.000  H
  C13      1.0000 0.42570  0.82210  0.82100  Biso   1.000  C
  C14      1.0000 0.07430  0.32210  0.67900  Biso   1.000  C
  C15      1.0000 0.57430  0.17790  0.17900  Biso   1.000  C
  C16      1.0000 0.92570  0.67790  0.32100  Biso   1.000  C
  H5       1.0000 0.43350  0.86650  0.74390  Biso   1.000  H
  H6       1.0000 0.06650  0.36650  0.75610  Biso   1.000  H
  H7       1.0000 0.56650  0.13350  0.25610  Biso   1.000  H
  H8       1.0000 0.93350  0.63350  0.24390  Biso   1.000  H
  C17      1.0000 0.49950  0.67290  0.93930  Biso   1.000  C
  C18      1.0000 0.00050  0.17290  0.56070  Biso   1.000  C
  C19      1.0000 0.50050  0.32710  0.06070  Biso   1.000  C
  C20      1.0000 0.99950  0.82710  0.43930  Biso   1.000  C
  H9       1.0000 0.55880  0.61090  0.94670  Biso   1.000  H
  H10      1.0000 0.94120  0.11090  0.55330  Biso   1.000  H
  H11      1.0000 0.44120  0.38910  0.05330  Biso   1.000  H
  H12      1.0000 0.05880  0.88910  0.44670  Biso   1.000  H
  H13      1.0000 0.96600  0.91200  0.08100  Biso   1.000  H
  H14      1.0000 0.53400  0.41200  0.41900  Biso   1.000  H
  H15      1.0000 0.03400  0.08800  0.91900  Biso   1.000  H
  H16      1.0000 0.46600  0.58800  0.58100  Biso   1.000  H
  H17      1.0000 0.05400  0.96500  0.16900  Biso   1.000  H
  H18      1.0000 0.44600  0.46500  0.33100  Biso   1.000  H
  H19      1.0000 0.94600  0.03500  0.83100  Biso   1.000  H
  H20      1.0000 0.55400  0.53500  0.66900  Biso   1.000  H
  O29      1.0000 0.25990  0.59970  0.52750  Biso   1.000  O
  O30      1.0000 0.24010  0.09970  0.97250  Biso   1.000  O
  O31      1.0000 0.74010  0.40030  0.47250  Biso   1.000  O
  O32      1.0000 0.75990  0.90030  0.02750  Biso   1.000  O
  H21      1.0000 0.22600  0.64000  0.57400  Biso   1.000  H
  H22      1.0000 0.27400  0.14000  0.92600  Biso   1.000  H
  H23      1.0000 0.77400  0.36000  0.42600  Biso   1.000  H
  H24      1.0000 0.72600  0.86000  0.07400  Biso   1.000  H
  H25      1.0000 0.26300  0.62500  0.44200  Biso   1.000  H
  H26      1.0000 0.23700  0.12500  0.05800  Biso   1.000  H
  H27      1.0000 0.73700  0.37500  0.55800  Biso   1.000  H
  H28      1.0000 0.76300  0.87500  0.94200  Biso   1.000  H
