data_image0
_cell_length_a       13.407
_cell_length_b       6.925
_cell_length_c       27.42
_cell_angle_alpha    90
_cell_angle_beta     97.402
_cell_angle_gamma    90

_symmetry_space_group_name_H-M    "P 1"
_symmetry_int_tables_number       1

loop_
  _symmetry_equiv_pos_as_xyz
  'x, y, z'

loop_
  _atom_site_label
  _atom_site_occupancy
  _atom_site_fract_x
  _atom_site_fract_y
  _atom_site_fract_z
  _atom_site_thermal_displace_type
  _atom_site_B_iso_or_equiv
  _atom_site_type_symbol
  Cu1      1.0000 0.44903  0.16055  0.67753  Biso   1.000  Cu
  Cu2      1.0000 0.05097  0.66055  0.82247  Biso   1.000  Cu
  Cu3      1.0000 0.55097  0.83945  0.32247  Biso   1.000  Cu
  Cu4      1.0000 0.94903  0.33945  0.17753  Biso   1.000  Cu
  N1       1.0000 0.59410  0.13800  0.71011  Biso   1.000  N
  N2       1.0000 0.90590  0.63800  0.78989  Biso   1.000  N
  N3       1.0000 0.40590  0.86200  0.28989  Biso   1.000  N
  N4       1.0000 0.09410  0.36200  0.21011  Biso   1.000  N
  N5       1.0000 0.42890  0.18730  0.74608  Biso   1.000  N
  N6       1.0000 0.07110  0.68730  0.75392  Biso   1.000  N
  N7       1.0000 0.57110  0.81270  0.25392  Biso   1.000  N
  N8       1.0000 0.92890  0.31270  0.24608  Biso   1.000  N
  N9       1.0000 0.29900  0.20510  0.67003  Biso   1.000  N
  N10      1.0000 0.20100  0.70510  0.82997  Biso   1.000  N
  N11      1.0000 0.70100  0.79490  0.32997  Biso   1.000  N
  N12      1.0000 0.79900  0.29490  0.17003  Biso   1.000  N
  N13      1.0000 0.31030  0.18260  0.97679  Biso   1.000  N
  N14      1.0000 0.18970  0.68260  0.52321  Biso   1.000  N
  N15      1.0000 0.68970  0.81740  0.02321  Biso   1.000  N
  N16      1.0000 0.81030  0.31740  0.47679  Biso   1.000  N
  N17      1.0000 0.47170  0.70850  0.66789  Biso   1.000  N
  N18      1.0000 0.02830  0.20850  0.83211  Biso   1.000  N
  N19      1.0000 0.52830  0.29150  0.33211  Biso   1.000  N
  N20      1.0000 0.97170  0.79150  0.16789  Biso   1.000  N
  O1       1.0000 0.46700  0.17350  0.60818  Biso   1.000  O
  O2       1.0000 0.03300  0.67350  0.89182  Biso   1.000  O
  O3       1.0000 0.53300  0.82650  0.39182  Biso   1.000  O
  O4       1.0000 0.96700  0.32650  0.10818  Biso   1.000  O
  H1       1.0000 0.49900  0.08700  0.59500  Biso   1.000  H
  H2       1.0000 0.00100  0.58700  0.90500  Biso   1.000  H
  H3       1.0000 0.50100  0.91300  0.40500  Biso   1.000  H
  H4       1.0000 0.99900  0.41300  0.09500  Biso   1.000  H
  H5       1.0000 0.50500  0.27100  0.61100  Biso   1.000  H
  H6       1.0000 0.99500  0.77100  0.88900  Biso   1.000  H
  H7       1.0000 0.49500  0.72900  0.38900  Biso   1.000  H
  H8       1.0000 0.00500  0.22900  0.11100  Biso   1.000  H
  O5       1.0000 0.37720  0.26210  0.88869  Biso   1.000  O
  O6       1.0000 0.12280  0.76210  0.61131  Biso   1.000  O
  O7       1.0000 0.62280  0.73790  0.11131  Biso   1.000  O
  O8       1.0000 0.87720  0.23790  0.38869  Biso   1.000  O
  O9       1.0000 0.36900  0.87140  0.98698  Biso   1.000  O
  O10      1.0000 0.13100  0.37140  0.51302  Biso   1.000  O
  O11      1.0000 0.63100  0.12860  0.01302  Biso   1.000  O
  O12      1.0000 0.86900  0.62860  0.48698  Biso   1.000  O
  O13      1.0000 0.20030  0.44070  0.96742  Biso   1.000  O
  O14      1.0000 0.29970  0.94070  0.53258  Biso   1.000  O
  O15      1.0000 0.79970  0.55930  0.03258  Biso   1.000  O
  O16      1.0000 0.70030  0.05930  0.46742  Biso   1.000  O
  O17      1.0000 0.41160  0.84070  0.67533  Biso   1.000  O
  O18      1.0000 0.08840  0.34070  0.82467  Biso   1.000  O
  O19      1.0000 0.58840  0.15930  0.32467  Biso   1.000  O
  O20      1.0000 0.91160  0.65930  0.17533  Biso   1.000  O
  O21      1.0000 0.54600  0.75490  0.64612  Biso   1.000  O
  O22      1.0000 0.95400  0.25490  0.85388  Biso   1.000  O
  O23      1.0000 0.45400  0.24510  0.35388  Biso   1.000  O
  O24      1.0000 0.04600  0.74510  0.14612  Biso   1.000  O
  O25      1.0000 0.46410  0.54640  0.68488  Biso   1.000  O
  O26      1.0000 0.03590  0.04640  0.81512  Biso   1.000  O
  O27      1.0000 0.53590  0.45360  0.31512  Biso   1.000  O
  O28      1.0000 0.96410  0.95360  0.18488  Biso   1.000  O
  C1       1.0000 0.67520  0.10910  0.68748  Biso   1.000  C
  C2       1.0000 0.82480  0.60910  0.81252  Biso   1.000  C
  C3       1.0000 0.32480  0.89090  0.31252  Biso   1.000  C
  C4       1.0000 0.17520  0.39090  0.18748  Biso   1.000  C
  H9       1.0000 0.66730  0.10100  0.65260  Biso   1.000  H
  H10      1.0000 0.83270  0.60100  0.84740  Biso   1.000  H
  H11      1.0000 0.33270  0.89900  0.34740  Biso   1.000  H
  H12      1.0000 0.16730  0.39900  0.15260  Biso   1.000  H
  C5       1.0000 0.77030  0.09070  0.71326  Biso   1.000  C
  C6       1.0000 0.72970  0.59070  0.78674  Biso   1.000  C
  C7       1.0000 0.22970  0.90930  0.28674  Biso   1.000  C
  C8       1.0000 0.27030  0.40930  0.21326  Biso   1.000  C
  H13      1.0000 0.82730  0.07630  0.69630  Biso   1.000  H
  H14      1.0000 0.67270  0.57630  0.80370  Biso   1.000  H
  H15      1.0000 0.17270  0.92370  0.30370  Biso   1.000  H
  H16      1.0000 0.32730  0.42370  0.19630  Biso   1.000  H
  C9       1.0000 0.78140  0.09350  0.76460  Biso   1.000  C
  C10      1.0000 0.71860  0.59350  0.73540  Biso   1.000  C
  C11      1.0000 0.21860  0.90650  0.23540  Biso   1.000  C
  C12      1.0000 0.28140  0.40650  0.26460  Biso   1.000  C
  H17      1.0000 0.84580  0.07590  0.78290  Biso   1.000  H
  H18      1.0000 0.65420  0.57590  0.71710  Biso   1.000  H
  H19      1.0000 0.15420  0.92410  0.21710  Biso   1.000  H
  H20      1.0000 0.34580  0.42410  0.28290  Biso   1.000  H
  C13      1.0000 0.69760  0.12230  0.78850  Biso   1.000  C
  C14      1.0000 0.80240  0.62230  0.71150  Biso   1.000  C
  C15      1.0000 0.30240  0.87770  0.21150  Biso   1.000  C
  C16      1.0000 0.19760  0.37770  0.28850  Biso   1.000  C
  H21      1.0000 0.70380  0.12610  0.82340  Biso   1.000  H
  H22      1.0000 0.79620  0.62610  0.67660  Biso   1.000  H
  H23      1.0000 0.29620  0.87390  0.17660  Biso   1.000  H
  H24      1.0000 0.20380  0.37390  0.32340  Biso   1.000  H
  C17      1.0000 0.60410  0.14550  0.76035  Biso   1.000  C
  C18      1.0000 0.89590  0.64550  0.73965  Biso   1.000  C
  C19      1.0000 0.39590  0.85450  0.23965  Biso   1.000  C
  C20      1.0000 0.10410  0.35450  0.26035  Biso   1.000  C
  C21      1.0000 0.50820  0.18040  0.78156  Biso   1.000  C
  C22      1.0000 0.99180  0.68040  0.71844  Biso   1.000  C
  C23      1.0000 0.49180  0.81960  0.21844  Biso   1.000  C
  C24      1.0000 0.00820  0.31960  0.28156  Biso   1.000  C
  C25      1.0000 0.49710  0.20400  0.83050  Biso   1.000  C
  C26      1.0000 0.00290  0.70400  0.66950  Biso   1.000  C
  C27      1.0000 0.50290  0.79600  0.16950  Biso   1.000  C
  C28      1.0000 0.99710  0.29600  0.33050  Biso   1.000  C
  H25      1.0000 0.55360  0.19880  0.85520  Biso   1.000  H
  H26      1.0000 0.94640  0.69880  0.64480  Biso   1.000  H
  H27      1.0000 0.44640  0.80120  0.14480  Biso   1.000  H
  H28      1.0000 0.05360  0.30120  0.35520  Biso   1.000  H
  C29      1.0000 0.40050  0.23580  0.84261  Biso   1.000  C
  C30      1.0000 0.09950  0.73580  0.65739  Biso   1.000  C
  C31      1.0000 0.59950  0.76420  0.15739  Biso   1.000  C
  C32      1.0000 0.90050  0.26420  0.34261  Biso   1.000  C
  C33      1.0000 0.31770  0.24230  0.80548  Biso   1.000  C
  C34      1.0000 0.18230  0.74230  0.69452  Biso   1.000  C
  C35      1.0000 0.68230  0.75770  0.19452  Biso   1.000  C
  C36      1.0000 0.81770  0.25770  0.30548  Biso   1.000  C
  H29      1.0000 0.25150  0.26320  0.81320  Biso   1.000  H
  H30      1.0000 0.24850  0.76320  0.68680  Biso   1.000  H
  H31      1.0000 0.74850  0.73680  0.18680  Biso   1.000  H
  H32      1.0000 0.75150  0.23680  0.31320  Biso   1.000  H
  C37      1.0000 0.33590  0.21740  0.75736  Biso   1.000  C
  C38      1.0000 0.16410  0.71740  0.74264  Biso   1.000  C
  C39      1.0000 0.66410  0.78260  0.24264  Biso   1.000  C
  C40      1.0000 0.83590  0.28260  0.25736  Biso   1.000  C
  C41      1.0000 0.25880  0.22320  0.71325  Biso   1.000  C
  C42      1.0000 0.24120  0.72320  0.78675  Biso   1.000  C
  C43      1.0000 0.74120  0.77680  0.28675  Biso   1.000  C
  C44      1.0000 0.75880  0.27680  0.21325  Biso   1.000  C
  C45      1.0000 0.15700  0.23700  0.71500  Biso   1.000  C
  C46      1.0000 0.34300  0.73700  0.78500  Biso   1.000  C
  C47      1.0000 0.84300  0.76300  0.28500  Biso   1.000  C
  C48      1.0000 0.65700  0.26300  0.21500  Biso   1.000  C
  H33      1.0000 0.13140  0.24630  0.74560  Biso   1.000  H
  H34      1.0000 0.36860  0.74630  0.75440  Biso   1.000  H
  H35      1.0000 0.86860  0.75370  0.25440  Biso   1.000  H
  H36      1.0000 0.63140  0.25370  0.24560  Biso   1.000  H
  C49      1.0000 0.09180  0.23700  0.67084  Biso   1.000  C
  C50      1.0000 0.40820  0.73700  0.82916  Biso   1.000  C
  C51      1.0000 0.90820  0.76300  0.32916  Biso   1.000  C
  C52      1.0000 0.59180  0.26300  0.17084  Biso   1.000  C
  H37      1.0000 0.02120  0.24720  0.67100  Biso   1.000  H
  H38      1.0000 0.47880  0.74720  0.82900  Biso   1.000  H
  H39      1.0000 0.97880  0.75280  0.32900  Biso   1.000  H
  H40      1.0000 0.52120  0.25280  0.17100  Biso   1.000  H
  C53      1.0000 0.13190  0.22190  0.62708  Biso   1.000  C
  C54      1.0000 0.36810  0.72190  0.87292  Biso   1.000  C
  C55      1.0000 0.86810  0.77810  0.37292  Biso   1.000  C
  C56      1.0000 0.63190  0.27810  0.12708  Biso   1.000  C
  H41      1.0000 0.08890  0.22420  0.59670  Biso   1.000  H
  H42      1.0000 0.41110  0.72420  0.90330  Biso   1.000  H
  H43      1.0000 0.91110  0.77580  0.40330  Biso   1.000  H
  H44      1.0000 0.58890  0.27580  0.09670  Biso   1.000  H
  C57      1.0000 0.23490  0.20350  0.62743  Biso   1.000  C
  C58      1.0000 0.26510  0.70350  0.87257  Biso   1.000  C
  C59      1.0000 0.76510  0.79650  0.37257  Biso   1.000  C
  C60      1.0000 0.73490  0.29650  0.12743  Biso   1.000  C
  H45      1.0000 0.26130  0.18930  0.59710  Biso   1.000  H
  H46      1.0000 0.23870  0.68930  0.90290  Biso   1.000  H
  H47      1.0000 0.73870  0.81070  0.40290  Biso   1.000  H
  H48      1.0000 0.76130  0.31070  0.09710  Biso   1.000  H
  C61      1.0000 0.45440  0.23900  0.93072  Biso   1.000  C
  C62      1.0000 0.04560  0.73900  0.56928  Biso   1.000  C
  C63      1.0000 0.54560  0.76100  0.06928  Biso   1.000  C
  C64      1.0000 0.95440  0.26100  0.43072  Biso   1.000  C
  H49      1.0000 0.51110  0.32840  0.92820  Biso   1.000  H
  H50      1.0000 0.98890  0.82840  0.57180  Biso   1.000  H
  H51      1.0000 0.48890  0.67160  0.07180  Biso   1.000  H
  H52      1.0000 0.01110  0.17160  0.42820  Biso   1.000  H
  H53      1.0000 0.48040  0.10500  0.93240  Biso   1.000  H
  H54      1.0000 0.01960  0.60500  0.56760  Biso   1.000  H
  H55      1.0000 0.51960  0.89500  0.06760  Biso   1.000  H
  H56      1.0000 0.98040  0.39500  0.43240  Biso   1.000  H
  C65      1.0000 0.40360  0.28560  0.97586  Biso   1.000  C
  C66      1.0000 0.09640  0.78560  0.52414  Biso   1.000  C
  C67      1.0000 0.59640  0.71440  0.02414  Biso   1.000  C
  C68      1.0000 0.90360  0.21440  0.47586  Biso   1.000  C
  H57      1.0000 0.45000  0.25280  0.00580  Biso   1.000  H
  H58      1.0000 0.05000  0.75280  0.49420  Biso   1.000  H
  H59      1.0000 0.55000  0.74720  0.99420  Biso   1.000  H
  H60      1.0000 0.95000  0.24720  0.50580  Biso   1.000  H
  H61      1.0000 0.39020  0.42600  0.97660  Biso   1.000  H
  H62      1.0000 0.10980  0.92600  0.52340  Biso   1.000  H
  H63      1.0000 0.60980  0.57400  0.02340  Biso   1.000  H
  H64      1.0000 0.89020  0.07400  0.47660  Biso   1.000  H
  C69      1.0000 0.30020  0.98410  0.98109  Biso   1.000  C
  C70      1.0000 0.19980  0.48410  0.51891  Biso   1.000  C
  C71      1.0000 0.69980  0.01590  0.01891  Biso   1.000  C
  C72      1.0000 0.80020  0.51590  0.48109  Biso   1.000  C
  C73      1.0000 0.19030  0.94490  0.97822  Biso   1.000  C
  C74      1.0000 0.30970  0.44490  0.52178  Biso   1.000  C
  C75      1.0000 0.80970  0.05510  0.02178  Biso   1.000  C
  C76      1.0000 0.69030  0.55510  0.47822  Biso   1.000  C
  H65      1.0000 0.16050  0.82120  0.98040  Biso   1.000  H
  H66      1.0000 0.33950  0.32120  0.51960  Biso   1.000  H
  H67      1.0000 0.83950  0.17880  0.01960  Biso   1.000  H
  H68      1.0000 0.66050  0.67880  0.48040  Biso   1.000  H
  C77      1.0000 0.14140  0.10830  0.97230  Biso   1.000  C
  C78      1.0000 0.35860  0.60830  0.52770  Biso   1.000  C
  C79      1.0000 0.85860  0.89170  0.02770  Biso   1.000  C
  C80      1.0000 0.64140  0.39170  0.47230  Biso   1.000  C
  H69      1.0000 0.07030  0.12230  0.96910  Biso   1.000  H
  H70      1.0000 0.42970  0.62230  0.53090  Biso   1.000  H
  H71      1.0000 0.92970  0.87770  0.03090  Biso   1.000  H
  H72      1.0000 0.57030  0.37770  0.46910  Biso   1.000  H
  C81      1.0000 0.21490  0.26900  0.97118  Biso   1.000  C
  C82      1.0000 0.28510  0.76900  0.52882  Biso   1.000  C
  C83      1.0000 0.78510  0.73100  0.02882  Biso   1.000  C
  C84      1.0000 0.71490  0.23100  0.47118  Biso   1.000  C
  N21      1.0000 0.66380  0.74560  0.90758  Biso   1.000  N
  N22      1.0000 0.83620  0.24560  0.59242  Biso   1.000  N
  N23      1.0000 0.33620  0.25440  0.09242  Biso   1.000  N
  N24      1.0000 0.16380  0.75440  0.40758  Biso   1.000  N
  O29      1.0000 0.62480  0.90840  0.90442  Biso   1.000  O
  O30      1.0000 0.87520  0.40840  0.59558  Biso   1.000  O
  O31      1.0000 0.37520  0.09160  0.09558  Biso   1.000  O
  O32      1.0000 0.12480  0.59160  0.40442  Biso   1.000  O
  O33      1.0000 0.60970  0.59820  0.89966  Biso   1.000  O
  O34      1.0000 0.89030  0.09820  0.60034  Biso   1.000  O
  O35      1.0000 0.39030  0.40180  0.10034  Biso   1.000  O
  O36      1.0000 0.10970  0.90180  0.39966  Biso   1.000  O
  O37      1.0000 0.75680  0.72330  0.91825  Biso   1.000  O
  O38      1.0000 0.74320  0.22330  0.58175  Biso   1.000  O
  O39      1.0000 0.24320  0.27670  0.08175  Biso   1.000  O
  O40      1.0000 0.25680  0.77670  0.41825  Biso   1.000  O
  O41      1.0000 0.74850  0.27340  0.90840  Biso   1.000  O
  O42      1.0000 0.75150  0.77340  0.59160  Biso   1.000  O
  O43      1.0000 0.25150  0.72660  0.09160  Biso   1.000  O
  O44      1.0000 0.24850  0.22660  0.40840  Biso   1.000  O
  H73      1.0000 0.71700  0.37700  0.91300  Biso   1.000  H
  H74      1.0000 0.78300  0.87700  0.58700  Biso   1.000  H
  H75      1.0000 0.28300  0.62300  0.08700  Biso   1.000  H
  H76      1.0000 0.21700  0.12300  0.41300  Biso   1.000  H
  H77      1.0000 0.71100  0.18500  0.91800  Biso   1.000  H
  H78      1.0000 0.78900  0.68500  0.58200  Biso   1.000  H
  H79      1.0000 0.28900  0.81500  0.08200  Biso   1.000  H
  H80      1.0000 0.21100  0.31500  0.41800  Biso   1.000  H
  O45      1.0000 0.55970  0.92730  0.54659  Biso   1.000  O
  O46      1.0000 0.94030  0.42730  0.95341  Biso   1.000  O
  O47      1.0000 0.44030  0.07270  0.45341  Biso   1.000  O
  O48      1.0000 0.05970  0.57270  0.04659  Biso   1.000  O
  H81      1.0000 0.60700  0.90400  0.56920  Biso   1.000  H
  H82      1.0000 0.89300  0.40400  0.93080  Biso   1.000  H
  H83      1.0000 0.39300  0.09600  0.43080  Biso   1.000  H
  H84      1.0000 0.10700  0.59600  0.06920  Biso   1.000  H
  H85      1.0000 0.58600  0.97700  0.52330  Biso   1.000  H
  H86      1.0000 0.91400  0.47700  0.97670  Biso   1.000  H
  H87      1.0000 0.41400  0.02300  0.47670  Biso   1.000  H
  H88      1.0000 0.08600  0.52300  0.02330  Biso   1.000  H
  O49      1.0000 0.57790  0.45260  0.58370  Biso   1.000  O
  O50      1.0000 0.92210  0.95260  0.91630  Biso   1.000  O
  O51      1.0000 0.42210  0.54740  0.41630  Biso   1.000  O
  O52      1.0000 0.07790  0.04740  0.08370  Biso   1.000  O
  H89      1.0000 0.59700  0.54200  0.60400  Biso   1.000  H
  H90      1.0000 0.90300  0.04200  0.89600  Biso   1.000  H
  H91      1.0000 0.40300  0.45800  0.39600  Biso   1.000  H
  H92      1.0000 0.09700  0.95800  0.10400  Biso   1.000  H
  H93      1.0000 0.63400  0.39800  0.58100  Biso   1.000  H
  H94      1.0000 0.86600  0.89800  0.91900  Biso   1.000  H
  H95      1.0000 0.36600  0.60200  0.41900  Biso   1.000  H
  H96      1.0000 0.13400  0.10200  0.08100  Biso   1.000  H
