data_image0
_cell_length_a       8.992
_cell_length_b       13.718
_cell_length_c       14.13
_cell_angle_alpha    90
_cell_angle_beta     103.87
_cell_angle_gamma    90

_symmetry_space_group_name_H-M    "P 1"
_symmetry_int_tables_number       1

loop_
  _symmetry_equiv_pos_as_xyz
  'x, y, z'

loop_
  _atom_site_label
  _atom_site_occupancy
  _atom_site_fract_x
  _atom_site_fract_y
  _atom_site_fract_z
  _atom_site_thermal_displace_type
  _atom_site_B_iso_or_equiv
  _atom_site_type_symbol
  Cu1      1.0000 0.08254  0.22498  0.74322  Biso   1.000  Cu
  Cu2      1.0000 0.91746  0.72498  0.75678  Biso   1.000  Cu
  Cu3      1.0000 0.91746  0.77502  0.25678  Biso   1.000  Cu
  Cu4      1.0000 0.08254  0.27502  0.24322  Biso   1.000  Cu
  O1       1.0000 0.18940  0.17909  0.89412  Biso   1.000  O
  O2       1.0000 0.81060  0.67909  0.60588  Biso   1.000  O
  O3       1.0000 0.81060  0.82091  0.10588  Biso   1.000  O
  O4       1.0000 0.18940  0.32091  0.39412  Biso   1.000  O
  O5       1.0000 0.43670  0.23581  0.49736  Biso   1.000  O
  O6       1.0000 0.56330  0.73581  0.00264  Biso   1.000  O
  O7       1.0000 0.56330  0.76419  0.50264  Biso   1.000  O
  O8       1.0000 0.43670  0.26419  0.99736  Biso   1.000  O
  O9       1.0000 0.68950  0.23639  0.96627  Biso   1.000  O
  O10      1.0000 0.31050  0.73639  0.53373  Biso   1.000  O
  O11      1.0000 0.31050  0.76361  0.03373  Biso   1.000  O
  O12      1.0000 0.68950  0.26361  0.46627  Biso   1.000  O
  O13      1.0000 0.87490  0.86373  0.77808  Biso   1.000  O
  O14      1.0000 0.12510  0.36373  0.72192  Biso   1.000  O
  O15      1.0000 0.12510  0.13627  0.22192  Biso   1.000  O
  O16      1.0000 0.87490  0.63627  0.27808  Biso   1.000  O
  N1       1.0000 0.98220  0.09580  0.69304  Biso   1.000  N
  N2       1.0000 0.01780  0.59580  0.80696  Biso   1.000  N
  N3       1.0000 0.01780  0.90420  0.30696  Biso   1.000  N
  N4       1.0000 0.98220  0.40420  0.19304  Biso   1.000  N
  N5       1.0000 0.27170  0.18386  0.70004  Biso   1.000  N
  N6       1.0000 0.72830  0.68386  0.79996  Biso   1.000  N
  N7       1.0000 0.72830  0.81614  0.29996  Biso   1.000  N
  N8       1.0000 0.27170  0.31614  0.20004  Biso   1.000  N
  N9       1.0000 0.88360  0.26660  0.77479  Biso   1.000  N
  N10      1.0000 0.11640  0.76660  0.72521  Biso   1.000  N
  N11      1.0000 0.11640  0.73340  0.22521  Biso   1.000  N
  N12      1.0000 0.88360  0.23340  0.27479  Biso   1.000  N
  C1       1.0000 0.84720  0.24033  0.85745  Biso   1.000  C
  C2       1.0000 0.15280  0.74033  0.64255  Biso   1.000  C
  C3       1.0000 0.15280  0.75967  0.14255  Biso   1.000  C
  C4       1.0000 0.84720  0.25967  0.35745  Biso   1.000  C
  C5       1.0000 0.71240  0.26803  0.88154  Biso   1.000  C
  C6       1.0000 0.28760  0.76803  0.61846  Biso   1.000  C
  C7       1.0000 0.28760  0.73197  0.11846  Biso   1.000  C
  C8       1.0000 0.71240  0.23197  0.38154  Biso   1.000  C
  C9       1.0000 0.60980  0.32635  0.81505  Biso   1.000  C
  C10      1.0000 0.39020  0.82635  0.68495  Biso   1.000  C
  C11      1.0000 0.39020  0.67365  0.18495  Biso   1.000  C
  C12      1.0000 0.60980  0.17365  0.31505  Biso   1.000  C
  C13      1.0000 0.64780  0.35220  0.73020  Biso   1.000  C
  C14      1.0000 0.35220  0.85220  0.76980  Biso   1.000  C
  C15      1.0000 0.35220  0.64780  0.26980  Biso   1.000  C
  C16      1.0000 0.64780  0.14780  0.23020  Biso   1.000  C
  C17      1.0000 0.78440  0.32188  0.71128  Biso   1.000  C
  C18      1.0000 0.21560  0.82188  0.78872  Biso   1.000  C
  C19      1.0000 0.21560  0.67812  0.28872  Biso   1.000  C
  C20      1.0000 0.78440  0.17812  0.21128  Biso   1.000  C
  C21      1.0000 0.29750  0.22195  0.61849  Biso   1.000  C
  C22      1.0000 0.70250  0.72195  0.88151  Biso   1.000  C
  C23      1.0000 0.70250  0.77805  0.38151  Biso   1.000  C
  C24      1.0000 0.29750  0.27805  0.11849  Biso   1.000  C
  C25      1.0000 0.42030  0.19540  0.57861  Biso   1.000  C
  C26      1.0000 0.57970  0.69540  0.92139  Biso   1.000  C
  C27      1.0000 0.57970  0.80460  0.42139  Biso   1.000  C
  C28      1.0000 0.42030  0.30460  0.07861  Biso   1.000  C
  C29      1.0000 0.52010  0.12520  0.63010  Biso   1.000  C
  C30      1.0000 0.47990  0.62520  0.86990  Biso   1.000  C
  C31      1.0000 0.47990  0.87480  0.36990  Biso   1.000  C
  C32      1.0000 0.52010  0.37480  0.13010  Biso   1.000  C
  C33      1.0000 0.49400  0.08670  0.71440  Biso   1.000  C
  C34      1.0000 0.50600  0.58670  0.78560  Biso   1.000  C
  C35      1.0000 0.50600  0.91330  0.28560  Biso   1.000  C
  C36      1.0000 0.49400  0.41330  0.21440  Biso   1.000  C
  C37      1.0000 0.36900  0.11634  0.74773  Biso   1.000  C
  C38      1.0000 0.63100  0.61634  0.75227  Biso   1.000  C
  C39      1.0000 0.63100  0.88366  0.25227  Biso   1.000  C
  C40      1.0000 0.36900  0.38366  0.24773  Biso   1.000  C
  C41      1.0000 0.96630  0.02106  0.75083  Biso   1.000  C
  C42      1.0000 0.03370  0.52106  0.74917  Biso   1.000  C
  C43      1.0000 0.03370  0.97894  0.24917  Biso   1.000  C
  C44      1.0000 0.96630  0.47894  0.25083  Biso   1.000  C
  C45      1.0000 0.88910  0.93448  0.71679  Biso   1.000  C
  C46      1.0000 0.11090  0.43448  0.78321  Biso   1.000  C
  C47      1.0000 0.11090  0.06552  0.28321  Biso   1.000  C
  C48      1.0000 0.88910  0.56552  0.21679  Biso   1.000  C
  C49      1.0000 0.82920  0.92846  0.61632  Biso   1.000  C
  C50      1.0000 0.17080  0.42846  0.88368  Biso   1.000  C
  C51      1.0000 0.17080  0.07154  0.38368  Biso   1.000  C
  C52      1.0000 0.82920  0.57154  0.11632  Biso   1.000  C
  C53      1.0000 0.84720  0.00504  0.55681  Biso   1.000  C
  C54      1.0000 0.15280  0.50504  0.94319  Biso   1.000  C
  C55      1.0000 0.15280  0.99496  0.44319  Biso   1.000  C
  C56      1.0000 0.84720  0.49496  0.05681  Biso   1.000  C
  C57      1.0000 0.92440  0.08794  0.59687  Biso   1.000  C
  C58      1.0000 0.07560  0.58794  0.90313  Biso   1.000  C
  C59      1.0000 0.07560  0.91206  0.40313  Biso   1.000  C
  C60      1.0000 0.92440  0.41206  0.09687  Biso   1.000  C
  H1       1.0000 0.01200  0.02800  0.82100  Biso   1.000  H
  H2       1.0000 0.98800  0.52800  0.67900  Biso   1.000  H
  H3       1.0000 0.98800  0.97200  0.17900  Biso   1.000  H
  H4       1.0000 0.01200  0.47200  0.32100  Biso   1.000  H
  H5       1.0000 0.93500  0.14400  0.56230  Biso   1.000  H
  H6       1.0000 0.06500  0.64400  0.93770  Biso   1.000  H
  H7       1.0000 0.06500  0.85600  0.43770  Biso   1.000  H
  H8       1.0000 0.93500  0.35600  0.06230  Biso   1.000  H
  H9       1.0000 0.77900  0.87460  0.59260  Biso   1.000  H
  H10      1.0000 0.22100  0.37460  0.90740  Biso   1.000  H
  H11      1.0000 0.22100  0.12540  0.40740  Biso   1.000  H
  H12      1.0000 0.77900  0.62540  0.09260  Biso   1.000  H
  H13      1.0000 0.80800  0.99700  0.49300  Biso   1.000  H
  H14      1.0000 0.19200  0.49700  0.00700  Biso   1.000  H
  H15      1.0000 0.19200  0.00300  0.50700  Biso   1.000  H
  H16      1.0000 0.80800  0.50300  0.99300  Biso   1.000  H
  H17      1.0000 0.25900  0.20200  0.92200  Biso   1.000  H
  H18      1.0000 0.74100  0.70200  0.57800  Biso   1.000  H
  H19      1.0000 0.74100  0.79800  0.07800  Biso   1.000  H
  H20      1.0000 0.25900  0.29800  0.42200  Biso   1.000  H
  H21      1.0000 0.16600  0.14500  0.93400  Biso   1.000  H
  H22      1.0000 0.83400  0.64500  0.56600  Biso   1.000  H
  H23      1.0000 0.83400  0.85500  0.06600  Biso   1.000  H
  H24      1.0000 0.16600  0.35500  0.43400  Biso   1.000  H
  H25      1.0000 0.34600  0.08800  0.80700  Biso   1.000  H
  H26      1.0000 0.65400  0.58800  0.69300  Biso   1.000  H
  H27      1.0000 0.65400  0.91200  0.19300  Biso   1.000  H
  H28      1.0000 0.34600  0.41200  0.30700  Biso   1.000  H
  H29      1.0000 0.23200  0.26900  0.59300  Biso   1.000  H
  H30      1.0000 0.76800  0.76900  0.90700  Biso   1.000  H
  H31      1.0000 0.76800  0.73100  0.40700  Biso   1.000  H
  H32      1.0000 0.23200  0.23100  0.09300  Biso   1.000  H
  H33      1.0000 0.92000  0.19800  0.90300  Biso   1.000  H
  H34      1.0000 0.08000  0.69800  0.59700  Biso   1.000  H
  H35      1.0000 0.08000  0.80200  0.09700  Biso   1.000  H
  H36      1.0000 0.92000  0.30200  0.40300  Biso   1.000  H
  H37      1.0000 0.57900  0.38700  0.68300  Biso   1.000  H
  H38      1.0000 0.42100  0.88700  0.81700  Biso   1.000  H
  H39      1.0000 0.42100  0.61300  0.31700  Biso   1.000  H
  H40      1.0000 0.57900  0.11300  0.18300  Biso   1.000  H
  H41      1.0000 0.55100  0.04200  0.74700  Biso   1.000  H
  H42      1.0000 0.44900  0.54200  0.75300  Biso   1.000  H
  H43      1.0000 0.44900  0.95800  0.25300  Biso   1.000  H
  H44      1.0000 0.55100  0.45800  0.24700  Biso   1.000  H
  H45      1.0000 0.80800  0.33990  0.65320  Biso   1.000  H
  H46      1.0000 0.19200  0.83990  0.84680  Biso   1.000  H
  H47      1.0000 0.19200  0.66010  0.34680  Biso   1.000  H
  H48      1.0000 0.80800  0.16010  0.15320  Biso   1.000  H
  H49      1.0000 0.51800  0.34200  0.83100  Biso   1.000  H
  H50      1.0000 0.48200  0.84200  0.66900  Biso   1.000  H
  H51      1.0000 0.48200  0.65800  0.16900  Biso   1.000  H
  H52      1.0000 0.51800  0.15800  0.33100  Biso   1.000  H
  H53      1.0000 0.60300  0.11400  0.60700  Biso   1.000  H
  H54      1.0000 0.39700  0.61400  0.89300  Biso   1.000  H
  H55      1.0000 0.39700  0.88600  0.39300  Biso   1.000  H
  H56      1.0000 0.60300  0.38600  0.10700  Biso   1.000  H
  H57      1.0000 0.58300  0.25100  0.97900  Biso   1.000  H
  H58      1.0000 0.41700  0.75100  0.52100  Biso   1.000  H
  H59      1.0000 0.41700  0.74900  0.02100  Biso   1.000  H
  H60      1.0000 0.58300  0.24900  0.47900  Biso   1.000  H
  O17      1.0000 0.11700  0.43677  0.53848  Biso   1.000  O
  O18      1.0000 0.88300  0.93677  0.96152  Biso   1.000  O
  O19      1.0000 0.88300  0.56323  0.46152  Biso   1.000  O
  O20      1.0000 0.11700  0.06323  0.03848  Biso   1.000  O
  H61      1.0000 0.12260  0.40000  0.59890  Biso   1.000  H
  H62      1.0000 0.87740  0.90000  0.90110  Biso   1.000  H
  H63      1.0000 0.87740  0.60000  0.40110  Biso   1.000  H
  H64      1.0000 0.12260  0.10000  0.09890  Biso   1.000  H
  H65      1.0000 0.02490  0.46000  0.52500  Biso   1.000  H
  H66      1.0000 0.97510  0.96000  0.97500  Biso   1.000  H
  H67      1.0000 0.97510  0.54000  0.47500  Biso   1.000  H
  H68      1.0000 0.02490  0.04000  0.02500  Biso   1.000  H
  O21      1.0000 0.38240  0.53200  0.53100  Biso   1.000  O
  O22      1.0000 0.61760  0.03200  0.96900  Biso   1.000  O
  O23      1.0000 0.61760  0.46800  0.46900  Biso   1.000  O
  O24      1.0000 0.38240  0.96800  0.03100  Biso   1.000  O
  H69      1.0000 0.29760  0.50330  0.51700  Biso   1.000  H
  H70      1.0000 0.70240  0.00330  0.98300  Biso   1.000  H
  H71      1.0000 0.70240  0.49670  0.48300  Biso   1.000  H
  H72      1.0000 0.29760  0.99670  0.01700  Biso   1.000  H
  H73      1.0000 0.34670  0.60000  0.52490  Biso   1.000  H
  H74      1.0000 0.65330  0.10000  0.97510  Biso   1.000  H
  H75      1.0000 0.65330  0.40000  0.47510  Biso   1.000  H
  H76      1.0000 0.34670  0.90000  0.02490  Biso   1.000  H
