data_image0
_cell_length_a       11.0792
_cell_length_b       6.8477
_cell_length_c       19.5346
_cell_angle_alpha    90
_cell_angle_beta     101.826
_cell_angle_gamma    90

_symmetry_space_group_name_H-M    "P 1"
_symmetry_int_tables_number       1

loop_
  _symmetry_equiv_pos_as_xyz
  'x, y, z'

loop_
  _atom_site_label
  _atom_site_occupancy
  _atom_site_fract_x
  _atom_site_fract_y
  _atom_site_fract_z
  _atom_site_thermal_displace_type
  _atom_site_B_iso_or_equiv
  _atom_site_type_symbol
  Cu1      1.0000 0.52224  0.45082  0.68912  Biso   1.000  Cu
  Cu2      1.0000 0.47776  0.95082  0.81088  Biso   1.000  Cu
  Cu3      1.0000 0.47776  0.54918  0.31088  Biso   1.000  Cu
  Cu4      1.0000 0.52224  0.04918  0.18912  Biso   1.000  Cu
  Cl1      1.0000 0.08081  0.45570  0.63203  Biso   1.000  Cl
  Cl2      1.0000 0.91919  0.95570  0.86797  Biso   1.000  Cl
  Cl3      1.0000 0.91919  0.54430  0.36797  Biso   1.000  Cl
  Cl4      1.0000 0.08081  0.04430  0.13203  Biso   1.000  Cl
  Cl5      1.0000 0.08296  0.05550  0.39610  Biso   1.000  Cl
  Cl6      1.0000 0.91704  0.55550  0.10390  Biso   1.000  Cl
  Cl7      1.0000 0.91704  0.94450  0.60390  Biso   1.000  Cl
  Cl8      1.0000 0.08296  0.44450  0.89610  Biso   1.000  Cl
  O1       1.0000 0.34820  0.44820  0.64972  Biso   1.000  O
  O2       1.0000 0.65180  0.94820  0.85028  Biso   1.000  O
  O3       1.0000 0.65180  0.55180  0.35028  Biso   1.000  O
  O4       1.0000 0.34820  0.05180  0.14972  Biso   1.000  O
  N1       1.0000 0.56330  0.35690  0.60240  Biso   1.000  N
  N2       1.0000 0.43670  0.85690  0.89760  Biso   1.000  N
  N3       1.0000 0.43670  0.64310  0.39760  Biso   1.000  N
  N4       1.0000 0.56330  0.14310  0.10240  Biso   1.000  N
  N5       1.0000 0.71130  0.45160  0.72610  Biso   1.000  N
  N6       1.0000 0.28870  0.95160  0.77390  Biso   1.000  N
  N7       1.0000 0.28870  0.54840  0.27390  Biso   1.000  N
  N8       1.0000 0.71130  0.04840  0.22610  Biso   1.000  N
  N9       1.0000 0.48980  0.57240  0.77520  Biso   1.000  N
  N10      1.0000 0.51020  0.07240  0.72480  Biso   1.000  N
  N11      1.0000 0.51020  0.42760  0.22480  Biso   1.000  N
  N12      1.0000 0.48980  0.92760  0.27520  Biso   1.000  N
  N13      1.0000 0.48670  0.46590  0.82360  Biso   1.000  N
  N14      1.0000 0.51330  0.96590  0.67640  Biso   1.000  N
  N15      1.0000 0.51330  0.53410  0.17640  Biso   1.000  N
  N16      1.0000 0.48670  0.03410  0.32360  Biso   1.000  N
  N17      1.0000 0.48560  0.36980  0.87230  Biso   1.000  N
  N18      1.0000 0.51440  0.86980  0.62770  Biso   1.000  N
  N19      1.0000 0.51440  0.63020  0.12770  Biso   1.000  N
  N20      1.0000 0.48560  0.13020  0.37230  Biso   1.000  N
  C1       1.0000 0.29450  0.36380  0.59210  Biso   1.000  C
  C2       1.0000 0.70550  0.86380  0.90790  Biso   1.000  C
  C3       1.0000 0.70550  0.63620  0.40790  Biso   1.000  C
  C4       1.0000 0.29450  0.13620  0.09210  Biso   1.000  C
  C5       1.0000 0.16340  0.35040  0.57500  Biso   1.000  C
  C6       1.0000 0.83660  0.85040  0.92500  Biso   1.000  C
  C7       1.0000 0.83660  0.64960  0.42500  Biso   1.000  C
  C8       1.0000 0.16340  0.14960  0.07500  Biso   1.000  C
  C9       1.0000 0.09950  0.25900  0.51640  Biso   1.000  C
  C10      1.0000 0.90050  0.75900  0.98360  Biso   1.000  C
  C11      1.0000 0.90050  0.74100  0.48360  Biso   1.000  C
  C12      1.0000 0.09950  0.24100  0.01640  Biso   1.000  C
  H1       1.0000 0.01390  0.25270  0.50780  Biso   1.000  H
  H2       1.0000 0.98610  0.75270  0.99220  Biso   1.000  H
  H3       1.0000 0.98610  0.74730  0.49220  Biso   1.000  H
  H4       1.0000 0.01390  0.24730  0.00780  Biso   1.000  H
  C13      1.0000 0.16360  0.17620  0.47020  Biso   1.000  C
  C14      1.0000 0.83640  0.67620  0.02980  Biso   1.000  C
  C15      1.0000 0.83640  0.82380  0.52980  Biso   1.000  C
  C16      1.0000 0.16360  0.32380  0.97020  Biso   1.000  C
  C17      1.0000 0.28990  0.18350  0.48230  Biso   1.000  C
  C18      1.0000 0.71010  0.68350  0.01770  Biso   1.000  C
  C19      1.0000 0.71010  0.81650  0.51770  Biso   1.000  C
  C20      1.0000 0.28990  0.31650  0.98230  Biso   1.000  C
  H5       1.0000 0.33190  0.12550  0.45100  Biso   1.000  H
  H6       1.0000 0.66810  0.62550  0.04900  Biso   1.000  H
  H7       1.0000 0.66810  0.87450  0.54900  Biso   1.000  H
  H8       1.0000 0.33190  0.37450  0.95100  Biso   1.000  H
  C21      1.0000 0.35610  0.27920  0.54230  Biso   1.000  C
  C22      1.0000 0.64390  0.77920  0.95770  Biso   1.000  C
  C23      1.0000 0.64390  0.72080  0.45770  Biso   1.000  C
  C24      1.0000 0.35610  0.22080  0.04230  Biso   1.000  C
  C25      1.0000 0.48810  0.28470  0.55060  Biso   1.000  C
  C26      1.0000 0.51190  0.78470  0.94940  Biso   1.000  C
  C27      1.0000 0.51190  0.71530  0.44940  Biso   1.000  C
  C28      1.0000 0.48810  0.21530  0.05060  Biso   1.000  C
  H9       1.0000 0.52140  0.23070  0.51490  Biso   1.000  H
  H10      1.0000 0.47860  0.73070  0.98510  Biso   1.000  H
  H11      1.0000 0.47860  0.76930  0.48510  Biso   1.000  H
  H12      1.0000 0.52140  0.26930  0.01490  Biso   1.000  H
  C29      1.0000 0.69650  0.34800  0.60440  Biso   1.000  C
  C30      1.0000 0.30350  0.84800  0.89560  Biso   1.000  C
  C31      1.0000 0.30350  0.65200  0.39560  Biso   1.000  C
  C32      1.0000 0.69650  0.15200  0.10440  Biso   1.000  C
  H13      1.0000 0.72480  0.46950  0.58760  Biso   1.000  H
  H14      1.0000 0.27520  0.96950  0.91240  Biso   1.000  H
  H15      1.0000 0.27520  0.53050  0.41240  Biso   1.000  H
  H16      1.0000 0.72480  0.03050  0.08760  Biso   1.000  H
  H17      1.0000 0.71500  0.24220  0.57520  Biso   1.000  H
  H18      1.0000 0.28500  0.74220  0.92480  Biso   1.000  H
  H19      1.0000 0.28500  0.75780  0.42480  Biso   1.000  H
  H20      1.0000 0.71500  0.25780  0.07520  Biso   1.000  H
  C33      1.0000 0.75820  0.31400  0.67910  Biso   1.000  C
  C34      1.0000 0.24180  0.81400  0.82090  Biso   1.000  C
  C35      1.0000 0.24180  0.68600  0.32090  Biso   1.000  C
  C36      1.0000 0.75820  0.18600  0.17910  Biso   1.000  C
  H21      1.0000 0.74310  0.18090  0.69220  Biso   1.000  H
  H22      1.0000 0.25690  0.68090  0.80780  Biso   1.000  H
  H23      1.0000 0.25690  0.81910  0.30780  Biso   1.000  H
  H24      1.0000 0.74310  0.31910  0.19220  Biso   1.000  H
  H25      1.0000 0.84650  0.33100  0.68430  Biso   1.000  H
  H26      1.0000 0.15350  0.83100  0.81570  Biso   1.000  H
  H27      1.0000 0.15350  0.66900  0.31570  Biso   1.000  H
  H28      1.0000 0.84650  0.16900  0.18430  Biso   1.000  H
  C37      1.0000 0.76080  0.65000  0.72070  Biso   1.000  C
  C38      1.0000 0.23920  0.15000  0.77930  Biso   1.000  C
  C39      1.0000 0.23920  0.35000  0.27930  Biso   1.000  C
  C40      1.0000 0.76080  0.85000  0.22070  Biso   1.000  C
  H29      1.0000 0.84840  0.64910  0.73790  Biso   1.000  H
  H30      1.0000 0.15160  0.14910  0.76210  Biso   1.000  H
  H31      1.0000 0.15160  0.35090  0.26210  Biso   1.000  H
  H32      1.0000 0.84840  0.85090  0.23790  Biso   1.000  H
  H33      1.0000 0.72310  0.73890  0.74800  Biso   1.000  H
  H34      1.0000 0.27690  0.23890  0.75200  Biso   1.000  H
  H35      1.0000 0.27690  0.26110  0.25200  Biso   1.000  H
  H36      1.0000 0.72310  0.76110  0.24800  Biso   1.000  H
  H37      1.0000 0.74310  0.69090  0.67260  Biso   1.000  H
  H38      1.0000 0.25690  0.19090  0.82740  Biso   1.000  H
  H39      1.0000 0.25690  0.30910  0.32740  Biso   1.000  H
  H40      1.0000 0.74310  0.80910  0.17260  Biso   1.000  H
  C41      1.0000 0.74970  0.38580  0.79920  Biso   1.000  C
  C42      1.0000 0.25030  0.88580  0.70080  Biso   1.000  C
  C43      1.0000 0.25030  0.61420  0.20080  Biso   1.000  C
  C44      1.0000 0.74970  0.11420  0.29920  Biso   1.000  C
  H41      1.0000 0.83800  0.39050  0.81280  Biso   1.000  H
  H42      1.0000 0.16200  0.89050  0.68720  Biso   1.000  H
  H43      1.0000 0.16200  0.60950  0.18720  Biso   1.000  H
  H44      1.0000 0.83800  0.10950  0.31280  Biso   1.000  H
  H45      1.0000 0.72210  0.25420  0.80330  Biso   1.000  H
  H46      1.0000 0.27790  0.75420  0.69670  Biso   1.000  H
  H47      1.0000 0.27790  0.74580  0.19670  Biso   1.000  H
  H48      1.0000 0.72210  0.24580  0.30330  Biso   1.000  H
  H49      1.0000 0.71410  0.46970  0.82910  Biso   1.000  H
  H50      1.0000 0.28590  0.96970  0.67090  Biso   1.000  H
  H51      1.0000 0.28590  0.53030  0.17090  Biso   1.000  H
  H52      1.0000 0.71410  0.03030  0.32910  Biso   1.000  H
