data_image0
_cell_length_a       6.9187
_cell_length_b       19.2758
_cell_length_c       21.347
_cell_angle_alpha    90
_cell_angle_beta     97.682
_cell_angle_gamma    90

_symmetry_space_group_name_H-M    "P 1"
_symmetry_int_tables_number       1

loop_
  _symmetry_equiv_pos_as_xyz
  'x, y, z'

loop_
  _atom_site_label
  _atom_site_occupancy
  _atom_site_fract_x
  _atom_site_fract_y
  _atom_site_fract_z
  _atom_site_thermal_displace_type
  _atom_site_B_iso_or_equiv
  _atom_site_type_symbol
  C1       1.0000 0.12260  0.65536  0.62634  Biso   1.000  C
  C2       1.0000 0.37740  0.15536  0.87366  Biso   1.000  C
  C3       1.0000 0.87740  0.34464  0.37366  Biso   1.000  C
  C4       1.0000 0.62260  0.84464  0.12634  Biso   1.000  C
  C5       1.0000 0.09480  0.65756  0.55964  Biso   1.000  C
  C6       1.0000 0.40520  0.15756  0.94036  Biso   1.000  C
  C7       1.0000 0.90520  0.34244  0.44036  Biso   1.000  C
  C8       1.0000 0.59480  0.84244  0.05964  Biso   1.000  C
  C9       1.0000 0.11640  0.71646  0.52583  Biso   1.000  C
  C10      1.0000 0.38360  0.21646  0.97417  Biso   1.000  C
  C11      1.0000 0.88360  0.28354  0.47417  Biso   1.000  C
  C12      1.0000 0.61640  0.78354  0.02583  Biso   1.000  C
  H1       1.0000 0.09300  0.71570  0.48190  Biso   1.000  H
  H2       1.0000 0.40700  0.21570  0.01810  Biso   1.000  H
  H3       1.0000 0.90700  0.28430  0.51810  Biso   1.000  H
  H4       1.0000 0.59300  0.78430  0.98190  Biso   1.000  H
  C13      1.0000 0.17330  0.77720  0.55741  Biso   1.000  C
  C14      1.0000 0.32670  0.27720  0.94259  Biso   1.000  C
  C15      1.0000 0.82670  0.22280  0.44259  Biso   1.000  C
  C16      1.0000 0.67330  0.72280  0.05741  Biso   1.000  C
  C17      1.0000 0.20930  0.77874  0.62124  Biso   1.000  C
  C18      1.0000 0.29070  0.27874  0.87876  Biso   1.000  C
  C19      1.0000 0.79070  0.22126  0.37876  Biso   1.000  C
  C20      1.0000 0.70930  0.72126  0.12124  Biso   1.000  C
  H5       1.0000 0.24980  0.81980  0.64190  Biso   1.000  H
  H6       1.0000 0.25020  0.31980  0.85810  Biso   1.000  H
  H7       1.0000 0.75020  0.18020  0.35810  Biso   1.000  H
  H8       1.0000 0.74980  0.68020  0.14190  Biso   1.000  H
  C21      1.0000 0.18560  0.71850  0.65647  Biso   1.000  C
  C22      1.0000 0.31440  0.21850  0.84353  Biso   1.000  C
  C23      1.0000 0.81440  0.28150  0.34353  Biso   1.000  C
  C24      1.0000 0.68560  0.78150  0.15647  Biso   1.000  C
  C25      1.0000 0.22990  0.72325  0.72353  Biso   1.000  C
  C26      1.0000 0.27010  0.22325  0.77647  Biso   1.000  C
  C27      1.0000 0.77010  0.27675  0.27647  Biso   1.000  C
  C28      1.0000 0.72990  0.77675  0.22353  Biso   1.000  C
  H9       1.0000 0.27670  0.76560  0.74000  Biso   1.000  H
  H10      1.0000 0.22330  0.26560  0.76000  Biso   1.000  H
  H11      1.0000 0.72330  0.23440  0.26000  Biso   1.000  H
  H12      1.0000 0.77670  0.73440  0.24000  Biso   1.000  H
  C29      1.0000 0.26890  0.68730  0.83068  Biso   1.000  C
  C30      1.0000 0.23110  0.18730  0.66932  Biso   1.000  C
  C31      1.0000 0.73110  0.31270  0.16932  Biso   1.000  C
  C32      1.0000 0.76890  0.81270  0.33068  Biso   1.000  C
  H13      1.0000 0.16380  0.71010  0.84860  Biso   1.000  H
  H14      1.0000 0.33620  0.21010  0.65140  Biso   1.000  H
  H15      1.0000 0.83620  0.28990  0.15140  Biso   1.000  H
  H16      1.0000 0.66380  0.78990  0.34860  Biso   1.000  H
  H17      1.0000 0.38300  0.71700  0.83710  Biso   1.000  H
  H18      1.0000 0.11700  0.21700  0.66290  Biso   1.000  H
  H19      1.0000 0.61700  0.28300  0.16290  Biso   1.000  H
  H20      1.0000 0.88300  0.78300  0.33710  Biso   1.000  H
  C33      1.0000 0.31380  0.61810  0.86243  Biso   1.000  C
  C34      1.0000 0.18620  0.11810  0.63757  Biso   1.000  C
  C35      1.0000 0.68620  0.38190  0.13757  Biso   1.000  C
  C36      1.0000 0.81380  0.88190  0.36243  Biso   1.000  C
  H21      1.0000 0.43830  0.60100  0.85270  Biso   1.000  H
  H22      1.0000 0.06170  0.10100  0.64730  Biso   1.000  H
  H23      1.0000 0.56170  0.39900  0.14730  Biso   1.000  H
  H24      1.0000 0.93830  0.89900  0.35270  Biso   1.000  H
  H25      1.0000 0.32250  0.62330  0.90790  Biso   1.000  H
  H26      1.0000 0.17750  0.12330  0.59210  Biso   1.000  H
  H27      1.0000 0.67750  0.37670  0.09210  Biso   1.000  H
  H28      1.0000 0.82250  0.87670  0.40790  Biso   1.000  H
  C37      1.0000 0.97730  0.58480  0.86560  Biso   1.000  C
  C38      1.0000 0.52270  0.08480  0.63440  Biso   1.000  C
  C39      1.0000 0.02270  0.41520  0.13440  Biso   1.000  C
  C40      1.0000 0.47730  0.91520  0.36560  Biso   1.000  C
  H29      1.0000 0.00140  0.58560  0.91090  Biso   1.000  H
  H30      1.0000 0.49860  0.08560  0.58910  Biso   1.000  H
  H31      1.0000 0.99860  0.41440  0.08910  Biso   1.000  H
  H32      1.0000 0.50140  0.91440  0.41090  Biso   1.000  H
  H33      1.0000 0.88130  0.55010  0.85210  Biso   1.000  H
  H34      1.0000 0.61870  0.05010  0.64790  Biso   1.000  H
  H35      1.0000 0.11870  0.44990  0.14790  Biso   1.000  H
  H36      1.0000 0.38130  0.94990  0.35210  Biso   1.000  H
  H37      1.0000 0.93040  0.62940  0.85040  Biso   1.000  H
  H38      1.0000 0.56960  0.12940  0.64960  Biso   1.000  H
  H39      1.0000 0.06960  0.37060  0.14960  Biso   1.000  H
  H40      1.0000 0.43040  0.87060  0.35040  Biso   1.000  H
  C41      1.0000 0.21950  0.49830  0.86221  Biso   1.000  C
  C42      1.0000 0.28050  0.99830  0.63779  Biso   1.000  C
  C43      1.0000 0.78050  0.50170  0.13779  Biso   1.000  C
  C44      1.0000 0.71950  0.00170  0.36221  Biso   1.000  C
  H41      1.0000 0.33490  0.48490  0.84470  Biso   1.000  H
  H42      1.0000 0.16510  0.98490  0.65530  Biso   1.000  H
  H43      1.0000 0.66510  0.51510  0.15530  Biso   1.000  H
  H44      1.0000 0.83490  0.01510  0.34470  Biso   1.000  H
  H45      1.0000 0.11650  0.46610  0.84870  Biso   1.000  H
  H46      1.0000 0.38350  0.96610  0.65130  Biso   1.000  H
  H47      1.0000 0.88350  0.53390  0.15130  Biso   1.000  H
  H48      1.0000 0.61650  0.03390  0.34870  Biso   1.000  H
  H49      1.0000 0.24600  0.49800  0.90750  Biso   1.000  H
  H50      1.0000 0.25400  0.99800  0.59250  Biso   1.000  H
  H51      1.0000 0.75400  0.50200  0.09250  Biso   1.000  H
  H52      1.0000 0.74600  0.00200  0.40750  Biso   1.000  H
  N1       1.0000 0.21160  0.67488  0.76314  Biso   1.000  N
  N2       1.0000 0.28840  0.17488  0.73686  Biso   1.000  N
  N3       1.0000 0.78840  0.32512  0.23686  Biso   1.000  N
  N4       1.0000 0.71160  0.82512  0.26314  Biso   1.000  N
  N5       1.0000 0.15980  0.56860  0.84013  Biso   1.000  N
  N6       1.0000 0.34020  0.06860  0.65987  Biso   1.000  N
  N7       1.0000 0.84020  0.43140  0.15987  Biso   1.000  N
  N8       1.0000 0.65980  0.93140  0.34013  Biso   1.000  N
  N9       1.0000 0.98500  0.49077  0.72905  Biso   1.000  N
  N10      1.0000 0.51500  0.99077  0.77095  Biso   1.000  N
  N11      1.0000 0.01500  0.50923  0.27095  Biso   1.000  N
  N12      1.0000 0.48500  0.00923  0.22905  Biso   1.000  N
  N13      1.0000 0.07650  0.43866  0.72822  Biso   1.000  N
  N14      1.0000 0.42350  0.93866  0.77178  Biso   1.000  N
  N15      1.0000 0.92350  0.56134  0.27178  Biso   1.000  N
  N16      1.0000 0.57650  0.06134  0.22822  Biso   1.000  N
  N17      1.0000 0.15760  0.38716  0.72810  Biso   1.000  N
  N18      1.0000 0.34240  0.88716  0.77190  Biso   1.000  N
  N19      1.0000 0.84240  0.61284  0.27190  Biso   1.000  N
  N20      1.0000 0.65760  0.11284  0.22810  Biso   1.000  N
  O1       1.0000 0.08970  0.59842  0.65495  Biso   1.000  O
  O2       1.0000 0.41030  0.09842  0.84505  Biso   1.000  O
  O3       1.0000 0.91030  0.40158  0.34505  Biso   1.000  O
  O4       1.0000 0.58970  0.90158  0.15495  Biso   1.000  O
  Cl1      1.0000 0.02667  0.58175  0.51921  Biso   1.000  Cl
  Cl2      1.0000 0.47333  0.08175  0.98079  Biso   1.000  Cl
  Cl3      1.0000 0.97333  0.41825  0.48079  Biso   1.000  Cl
  Cl4      1.0000 0.52667  0.91825  0.01921  Biso   1.000  Cl
  Cl5      1.0000 0.19960  0.85133  0.51298  Biso   1.000  Cl
  Cl6      1.0000 0.30040  0.35133  0.98702  Biso   1.000  Cl
  Cl7      1.0000 0.80040  0.14867  0.48702  Biso   1.000  Cl
  Cl8      1.0000 0.69960  0.64867  0.01298  Biso   1.000  Cl
  Cu1      1.0000 0.12119  0.58088  0.74363  Biso   1.000  Cu
  Cu2      1.0000 0.37881  0.08088  0.75637  Biso   1.000  Cu
  Cu3      1.0000 0.87881  0.41912  0.25637  Biso   1.000  Cu
  Cu4      1.0000 0.62119  0.91912  0.24363  Biso   1.000  Cu
  C45      1.0000 0.71180  0.39059  0.85096  Biso   1.000  C
  C46      1.0000 0.78820  0.89059  0.64904  Biso   1.000  C
  C47      1.0000 0.28820  0.60941  0.14904  Biso   1.000  C
  C48      1.0000 0.21180  0.10941  0.35096  Biso   1.000  C
  C49      1.0000 0.74280  0.39441  0.91780  Biso   1.000  C
  C50      1.0000 0.75720  0.89441  0.58220  Biso   1.000  C
  C51      1.0000 0.25720  0.60559  0.08220  Biso   1.000  C
  C52      1.0000 0.24280  0.10559  0.41780  Biso   1.000  C
  C53      1.0000 0.79750  0.33827  0.95534  Biso   1.000  C
  C54      1.0000 0.70250  0.83827  0.54466  Biso   1.000  C
  C55      1.0000 0.20250  0.66173  0.04466  Biso   1.000  C
  C56      1.0000 0.29750  0.16173  0.45534  Biso   1.000  C
  H53      1.0000 0.81750  0.34290  0.99910  Biso   1.000  H
  H54      1.0000 0.68250  0.84290  0.50090  Biso   1.000  H
  H55      1.0000 0.18250  0.65710  0.00090  Biso   1.000  H
  H56      1.0000 0.31750  0.15710  0.49910  Biso   1.000  H
  C57      1.0000 0.82280  0.27476  0.92783  Biso   1.000  C
  C58      1.0000 0.67720  0.77476  0.57217  Biso   1.000  C
  C59      1.0000 0.17720  0.72524  0.07217  Biso   1.000  C
  C60      1.0000 0.32280  0.22524  0.42783  Biso   1.000  C
  C61      1.0000 0.79940  0.26707  0.86443  Biso   1.000  C
  C62      1.0000 0.70060  0.76707  0.63557  Biso   1.000  C
  C63      1.0000 0.20060  0.73293  0.13557  Biso   1.000  C
  C64      1.0000 0.29940  0.23293  0.36443  Biso   1.000  C
  H57      1.0000 0.82030  0.22410  0.84680  Biso   1.000  H
  H58      1.0000 0.67970  0.72410  0.65320  Biso   1.000  H
  H59      1.0000 0.17970  0.77590  0.15320  Biso   1.000  H
  H60      1.0000 0.32030  0.27590  0.34680  Biso   1.000  H
  C65      1.0000 0.74320  0.32433  0.82495  Biso   1.000  C
  C66      1.0000 0.75680  0.82433  0.67505  Biso   1.000  C
  C67      1.0000 0.25680  0.67567  0.17505  Biso   1.000  C
  C68      1.0000 0.24320  0.17567  0.32495  Biso   1.000  C
  C69      1.0000 0.72160  0.31274  0.75866  Biso   1.000  C
  C70      1.0000 0.77840  0.81274  0.74134  Biso   1.000  C
  C71      1.0000 0.27840  0.68726  0.24134  Biso   1.000  C
  C72      1.0000 0.22160  0.18726  0.25866  Biso   1.000  C
  H61      1.0000 0.74860  0.26830  0.74530  Biso   1.000  H
  H62      1.0000 0.75140  0.76830  0.75470  Biso   1.000  H
  H63      1.0000 0.25140  0.73170  0.25470  Biso   1.000  H
  H64      1.0000 0.24860  0.23170  0.24530  Biso   1.000  H
  C73      1.0000 0.65230  0.33796  0.64914  Biso   1.000  C
  C74      1.0000 0.84770  0.83796  0.85086  Biso   1.000  C
  C75      1.0000 0.34770  0.66204  0.35086  Biso   1.000  C
  C76      1.0000 0.15230  0.16204  0.14914  Biso   1.000  C
  H65      1.0000 0.52410  0.31870  0.63530  Biso   1.000  H
  H66      1.0000 0.97590  0.81870  0.86470  Biso   1.000  H
  H67      1.0000 0.47590  0.68130  0.36470  Biso   1.000  H
  H68      1.0000 0.02410  0.18130  0.13530  Biso   1.000  H
  H69      1.0000 0.74930  0.30310  0.64310  Biso   1.000  H
  H70      1.0000 0.75070  0.80310  0.85690  Biso   1.000  H
  H71      1.0000 0.25070  0.69690  0.35690  Biso   1.000  H
  H72      1.0000 0.24930  0.19690  0.14310  Biso   1.000  H
  C77      1.0000 0.68350  0.40125  0.61185  Biso   1.000  C
  C78      1.0000 0.81650  0.90125  0.88815  Biso   1.000  C
  C79      1.0000 0.31650  0.59875  0.38815  Biso   1.000  C
  C80      1.0000 0.18350  0.09875  0.11185  Biso   1.000  C
  H73      1.0000 0.82060  0.41370  0.61820  Biso   1.000  H
  H74      1.0000 0.67940  0.91370  0.88180  Biso   1.000  H
  H75      1.0000 0.17940  0.58630  0.38180  Biso   1.000  H
  H76      1.0000 0.32060  0.08630  0.11820  Biso   1.000  H
  H77      1.0000 0.64600  0.39210  0.56720  Biso   1.000  H
  H78      1.0000 0.85400  0.89210  0.93280  Biso   1.000  H
  H79      1.0000 0.35400  0.60790  0.43280  Biso   1.000  H
  H80      1.0000 0.14600  0.10790  0.06720  Biso   1.000  H
  C81      1.0000 0.63360  0.52448  0.60689  Biso   1.000  C
  C82      1.0000 0.86640  0.02448  0.89311  Biso   1.000  C
  C83      1.0000 0.36640  0.47552  0.39311  Biso   1.000  C
  C84      1.0000 0.13360  0.97552  0.10689  Biso   1.000  C
  H81      1.0000 0.76560  0.53330  0.62530  Biso   1.000  H
  H82      1.0000 0.73440  0.03330  0.87470  Biso   1.000  H
  H83      1.0000 0.23440  0.46670  0.37470  Biso   1.000  H
  H84      1.0000 0.26560  0.96670  0.12530  Biso   1.000  H
  H85      1.0000 0.55150  0.56180  0.61720  Biso   1.000  H
  H86      1.0000 0.94850  0.06180  0.88280  Biso   1.000  H
  H87      1.0000 0.44850  0.43820  0.38280  Biso   1.000  H
  H88      1.0000 0.05150  0.93820  0.11720  Biso   1.000  H
  H89      1.0000 0.62770  0.52110  0.56180  Biso   1.000  H
  H90      1.0000 0.87230  0.02110  0.93820  Biso   1.000  H
  H91      1.0000 0.37230  0.47890  0.43820  Biso   1.000  H
  H92      1.0000 0.12770  0.97890  0.06180  Biso   1.000  H
  C85      1.0000 0.35910  0.45060  0.60746  Biso   1.000  C
  C86      1.0000 0.14090  0.95060  0.89254  Biso   1.000  C
  C87      1.0000 0.64090  0.54940  0.39254  Biso   1.000  C
  C88      1.0000 0.85910  0.04940  0.10746  Biso   1.000  C
  H93      1.0000 0.34320  0.45040  0.56210  Biso   1.000  H
  H94      1.0000 0.15680  0.95040  0.93790  Biso   1.000  H
  H95      1.0000 0.65680  0.54960  0.43790  Biso   1.000  H
  H96      1.0000 0.84320  0.04960  0.06210  Biso   1.000  H
  H97      1.0000 0.28580  0.48820  0.62190  Biso   1.000  H
  H98      1.0000 0.21420  0.98820  0.87810  Biso   1.000  H
  H99      1.0000 0.71420  0.51180  0.37810  Biso   1.000  H
  H100     1.0000 0.78580  0.01180  0.12190  Biso   1.000  H
  H101     1.0000 0.31280  0.40750  0.62240  Biso   1.000  H
  H102     1.0000 0.18720  0.90750  0.87760  Biso   1.000  H
  H103     1.0000 0.68720  0.59250  0.37760  Biso   1.000  H
  H104     1.0000 0.81280  0.09250  0.12240  Biso   1.000  H
  N21      1.0000 0.66870  0.35755  0.71577  Biso   1.000  N
  N22      1.0000 0.83130  0.85755  0.78423  Biso   1.000  N
  N23      1.0000 0.33130  0.64245  0.28423  Biso   1.000  N
  N24      1.0000 0.16870  0.14245  0.21577  Biso   1.000  N
  N25      1.0000 0.56630  0.45913  0.63187  Biso   1.000  N
  N26      1.0000 0.93370  0.95913  0.86813  Biso   1.000  N
  N27      1.0000 0.43370  0.54087  0.36813  Biso   1.000  N
  N28      1.0000 0.06630  0.04087  0.13187  Biso   1.000  N
  N29      1.0000 0.48450  0.54475  0.73749  Biso   1.000  N
  N30      1.0000 0.01550  0.04475  0.76251  Biso   1.000  N
  N31      1.0000 0.51550  0.45525  0.26251  Biso   1.000  N
  N32      1.0000 0.98450  0.95525  0.23749  Biso   1.000  N
  N33      1.0000 0.58700  0.59409  0.74299  Biso   1.000  N
  N34      1.0000 0.91300  0.09409  0.75701  Biso   1.000  N
  N35      1.0000 0.41300  0.40591  0.25701  Biso   1.000  N
  N36      1.0000 0.08700  0.90591  0.24299  Biso   1.000  N
  N37      1.0000 0.67930  0.64334  0.74771  Biso   1.000  N
  N38      1.0000 0.82070  0.14334  0.75229  Biso   1.000  N
  N39      1.0000 0.32070  0.35666  0.25229  Biso   1.000  N
  N40      1.0000 0.17930  0.85666  0.24771  Biso   1.000  N
  O5       1.0000 0.65670  0.44525  0.81833  Biso   1.000  O
  O6       1.0000 0.84330  0.94525  0.68167  Biso   1.000  O
  O7       1.0000 0.34330  0.55475  0.18167  Biso   1.000  O
  O8       1.0000 0.15670  0.05475  0.31833  Biso   1.000  O
  Cl9      1.0000 0.70784  0.47293  0.95343  Biso   1.000  Cl
  Cl10     1.0000 0.79216  0.97293  0.54657  Biso   1.000  Cl
  Cl11     1.0000 0.29216  0.52707  0.04657  Biso   1.000  Cl
  Cl12     1.0000 0.20784  0.02707  0.45343  Biso   1.000  Cl
  Cl13     1.0000 0.88936  0.20422  0.97702  Biso   1.000  Cl
  Cl14     1.0000 0.61064  0.70422  0.52298  Biso   1.000  Cl
  Cl15     1.0000 0.11064  0.79578  0.02298  Biso   1.000  Cl
  Cl16     1.0000 0.38936  0.29578  0.47702  Biso   1.000  Cl
  Cu5      1.0000 0.60700  0.45375  0.72869  Biso   1.000  Cu
  Cu6      1.0000 0.89300  0.95375  0.77131  Biso   1.000  Cu
  Cu7      1.0000 0.39300  0.54625  0.27131  Biso   1.000  Cu
  Cu8      1.0000 0.10700  0.04625  0.22869  Biso   1.000  Cu
