data_image0
_cell_length_a       9.1445
_cell_length_b       10.1443
_cell_length_c       13.3294
_cell_angle_alpha    90
_cell_angle_beta     90
_cell_angle_gamma    90

_symmetry_space_group_name_H-M    "P 1"
_symmetry_int_tables_number       1

loop_
  _symmetry_equiv_pos_as_xyz
  'x, y, z'

loop_
  _atom_site_label
  _atom_site_occupancy
  _atom_site_fract_x
  _atom_site_fract_y
  _atom_site_fract_z
  _atom_site_thermal_displace_type
  _atom_site_B_iso_or_equiv
  _atom_site_type_symbol
  C1       1.0000 0.69380  0.97640  0.95012  Biso   1.000  C
  C2       1.0000 0.30620  0.02360  0.45012  Biso   1.000  C
  C3       1.0000 0.19380  0.52360  0.95012  Biso   1.000  C
  C4       1.0000 0.80620  0.47640  0.45012  Biso   1.000  C
  H1       1.0000 0.66520  0.06170  0.93380  Biso   1.000  H
  H2       1.0000 0.33480  0.93830  0.43380  Biso   1.000  H
  H3       1.0000 0.16520  0.43830  0.93380  Biso   1.000  H
  H4       1.0000 0.83480  0.56170  0.43380  Biso   1.000  H
  Cu1      1.0000 0.87241  0.09675  0.11815  Biso   1.000  Cu
  Cu2      1.0000 0.12759  0.90325  0.61815  Biso   1.000  Cu
  Cu3      1.0000 0.37241  0.40325  0.11815  Biso   1.000  Cu
  Cu4      1.0000 0.62759  0.59675  0.61815  Biso   1.000  Cu
  N1       1.0000 0.94740  0.93100  0.18929  Biso   1.000  N
  N2       1.0000 0.05260  0.06900  0.68929  Biso   1.000  N
  N3       1.0000 0.44740  0.56900  0.18929  Biso   1.000  N
  N4       1.0000 0.55260  0.43100  0.68929  Biso   1.000  N
  O1       1.0000 0.08140  0.12990  0.02682  Biso   1.000  O
  O2       1.0000 0.91860  0.87010  0.52682  Biso   1.000  O
  O3       1.0000 0.58140  0.37010  0.02682  Biso   1.000  O
  O4       1.0000 0.41860  0.62990  0.52682  Biso   1.000  O
  C5       1.0000 0.64220  0.87240  0.89050  Biso   1.000  C
  C6       1.0000 0.35780  0.12760  0.39050  Biso   1.000  C
  C7       1.0000 0.14220  0.62760  0.89050  Biso   1.000  C
  C8       1.0000 0.85780  0.37240  0.39050  Biso   1.000  C
  H5       1.0000 0.58180  0.88830  0.83570  Biso   1.000  H
  H6       1.0000 0.41820  0.11170  0.33570  Biso   1.000  H
  H7       1.0000 0.08180  0.61170  0.83570  Biso   1.000  H
  H8       1.0000 0.91820  0.38830  0.33570  Biso   1.000  H
  N5       1.0000 0.78020  0.95980  0.02762  Biso   1.000  N
  N6       1.0000 0.21980  0.04020  0.52762  Biso   1.000  N
  N7       1.0000 0.28020  0.54020  0.02762  Biso   1.000  N
  N8       1.0000 0.71980  0.45980  0.52762  Biso   1.000  N
  O5       1.0000 0.98329  0.21773  0.20589  Biso   1.000  O
  O6       1.0000 0.01671  0.78227  0.70589  Biso   1.000  O
  O7       1.0000 0.48329  0.28227  0.20589  Biso   1.000  O
  O8       1.0000 0.51671  0.71773  0.70589  Biso   1.000  O
  C9       1.0000 0.68290  0.74750  0.91510  Biso   1.000  C
  C10      1.0000 0.31710  0.25250  0.41510  Biso   1.000  C
  C11      1.0000 0.18290  0.75250  0.91510  Biso   1.000  C
  C12      1.0000 0.81710  0.24750  0.41510  Biso   1.000  C
  H9       1.0000 0.65060  0.67700  0.87630  Biso   1.000  H
  H10      1.0000 0.34940  0.32300  0.37630  Biso   1.000  H
  H11      1.0000 0.15060  0.82300  0.87630  Biso   1.000  H
  H12      1.0000 0.84940  0.17700  0.37630  Biso   1.000  H
  O9       1.0000 0.16350  0.36277  0.21108  Biso   1.000  O
  O10      1.0000 0.83650  0.63723  0.71108  Biso   1.000  O
  O11      1.0000 0.66350  0.13723  0.21108  Biso   1.000  O
  O12      1.0000 0.33650  0.86277  0.71108  Biso   1.000  O
  C13      1.0000 0.77270  0.72420  0.99780  Biso   1.000  C
  C14      1.0000 0.22730  0.27580  0.49780  Biso   1.000  C
  C15      1.0000 0.27270  0.77580  0.99780  Biso   1.000  C
  C16      1.0000 0.72730  0.22420  0.49780  Biso   1.000  C
  O13      1.0000 0.27950  0.25638  0.04136  Biso   1.000  O
  O14      1.0000 0.72050  0.74362  0.54136  Biso   1.000  O
  O15      1.0000 0.77950  0.24362  0.04136  Biso   1.000  O
  O16      1.0000 0.22050  0.75638  0.54136  Biso   1.000  O
  C17      1.0000 0.81900  0.83510  0.05270  Biso   1.000  C
  C18      1.0000 0.18100  0.16490  0.55270  Biso   1.000  C
  C19      1.0000 0.31900  0.66490  0.05270  Biso   1.000  C
  C20      1.0000 0.68100  0.33510  0.55270  Biso   1.000  C
  C21      1.0000 0.90860  0.81940  0.13957  Biso   1.000  C
  C22      1.0000 0.09140  0.18060  0.63957  Biso   1.000  C
  C23      1.0000 0.40860  0.68060  0.13957  Biso   1.000  C
  C24      1.0000 0.59140  0.31940  0.63957  Biso   1.000  C
  C25      1.0000 0.95180  0.69180  0.17030  Biso   1.000  C
  C26      1.0000 0.04820  0.30820  0.67030  Biso   1.000  C
  C27      1.0000 0.45180  0.80820  0.17030  Biso   1.000  C
  C28      1.0000 0.54820  0.19180  0.67030  Biso   1.000  C
  C29      1.0000 0.90270  0.58160  0.11300  Biso   1.000  C
  C30      1.0000 0.09730  0.41840  0.61300  Biso   1.000  C
  C31      1.0000 0.40270  0.91840  0.11300  Biso   1.000  C
  C32      1.0000 0.59730  0.08160  0.61300  Biso   1.000  C
  H13      1.0000 0.92930  0.49710  0.13300  Biso   1.000  H
  H14      1.0000 0.07070  0.50290  0.63300  Biso   1.000  H
  H15      1.0000 0.42930  0.00290  0.13300  Biso   1.000  H
  H16      1.0000 0.57070  0.99710  0.63300  Biso   1.000  H
  C33      1.0000 0.81860  0.59670  0.03060  Biso   1.000  C
  C34      1.0000 0.18140  0.40330  0.53060  Biso   1.000  C
  C35      1.0000 0.31860  0.90330  0.03060  Biso   1.000  C
  C36      1.0000 0.68140  0.09670  0.53060  Biso   1.000  C
  H17      1.0000 0.78990  0.52260  0.99450  Biso   1.000  H
  H18      1.0000 0.21010  0.47740  0.49450  Biso   1.000  H
  H19      1.0000 0.28990  0.97740  0.99450  Biso   1.000  H
  H20      1.0000 0.71010  0.02260  0.49450  Biso   1.000  H
  C37      1.0000 0.03860  0.68500  0.25670  Biso   1.000  C
  C38      1.0000 0.96140  0.31500  0.75670  Biso   1.000  C
  C39      1.0000 0.53860  0.81500  0.25670  Biso   1.000  C
  C40      1.0000 0.46140  0.18500  0.75670  Biso   1.000  C
  H21      1.0000 0.07230  0.60380  0.27940  Biso   1.000  H
  H22      1.0000 0.92770  0.39620  0.77940  Biso   1.000  H
  H23      1.0000 0.57230  0.89620  0.27940  Biso   1.000  H
  H24      1.0000 0.42770  0.10380  0.77940  Biso   1.000  H
  C41      1.0000 0.07400  0.79700  0.30770  Biso   1.000  C
  C42      1.0000 0.92600  0.20300  0.80770  Biso   1.000  C
  C43      1.0000 0.57400  0.70300  0.30770  Biso   1.000  C
  C44      1.0000 0.42600  0.29700  0.80770  Biso   1.000  C
  H25      1.0000 0.12950  0.79220  0.36600  Biso   1.000  H
  H26      1.0000 0.87050  0.20780  0.86600  Biso   1.000  H
  H27      1.0000 0.62950  0.70780  0.36600  Biso   1.000  H
  H28      1.0000 0.37050  0.29220  0.86600  Biso   1.000  H
  C45      1.0000 0.02660  0.91840  0.27200  Biso   1.000  C
  C46      1.0000 0.97340  0.08160  0.77200  Biso   1.000  C
  C47      1.0000 0.52660  0.58160  0.27200  Biso   1.000  C
  C48      1.0000 0.47340  0.41840  0.77200  Biso   1.000  C
  H29      1.0000 0.05150  0.99400  0.30760  Biso   1.000  H
  H30      1.0000 0.94850  0.00600  0.80760  Biso   1.000  H
  H31      1.0000 0.55150  0.50600  0.30760  Biso   1.000  H
  H32      1.0000 0.44850  0.49400  0.80760  Biso   1.000  H
  C49      1.0000 0.15780  0.21300  0.07154  Biso   1.000  C
  C50      1.0000 0.84220  0.78700  0.57154  Biso   1.000  C
  C51      1.0000 0.65780  0.28700  0.07154  Biso   1.000  C
  C52      1.0000 0.34220  0.71300  0.57154  Biso   1.000  C
  C53      1.0000 0.09790  0.27000  0.17167  Biso   1.000  C
  C54      1.0000 0.90210  0.73000  0.67167  Biso   1.000  C
  C55      1.0000 0.59790  0.23000  0.17167  Biso   1.000  C
  C56      1.0000 0.40210  0.77000  0.67167  Biso   1.000  C
