data_image0
_cell_length_a       9.1352
_cell_length_b       10.149
_cell_length_c       13.331
_cell_angle_alpha    90
_cell_angle_beta     90
_cell_angle_gamma    90

_symmetry_space_group_name_H-M    "P 1"
_symmetry_int_tables_number       1

loop_
  _symmetry_equiv_pos_as_xyz
  'x, y, z'

loop_
  _atom_site_label
  _atom_site_occupancy
  _atom_site_fract_x
  _atom_site_fract_y
  _atom_site_fract_z
  _atom_site_thermal_displace_type
  _atom_site_B_iso_or_equiv
  _atom_site_type_symbol
  Cu1      1.0000 0.87236  0.40327  0.08327  Biso   1.000  Cu
  Cu2      1.0000 0.12764  0.59673  0.58327  Biso   1.000  Cu
  Cu3      1.0000 0.37236  0.09673  0.08327  Biso   1.000  Cu
  Cu4      1.0000 0.62764  0.90327  0.58327  Biso   1.000  Cu
  C1       1.0000 0.65750  0.21270  0.13004  Biso   1.000  C
  C2       1.0000 0.34250  0.78730  0.63004  Biso   1.000  C
  C3       1.0000 0.15750  0.28730  0.13004  Biso   1.000  C
  C4       1.0000 0.84250  0.71270  0.63004  Biso   1.000  C
  C5       1.0000 0.59760  0.27010  0.02984  Biso   1.000  C
  C6       1.0000 0.40240  0.72990  0.52984  Biso   1.000  C
  C7       1.0000 0.09760  0.22990  0.02984  Biso   1.000  C
  C8       1.0000 0.90240  0.77010  0.52984  Biso   1.000  C
  C9       1.0000 0.69380  0.52290  0.25190  Biso   1.000  C
  C10      1.0000 0.30620  0.47710  0.75190  Biso   1.000  C
  C11      1.0000 0.19380  0.97710  0.25190  Biso   1.000  C
  C12      1.0000 0.80620  0.02290  0.75190  Biso   1.000  C
  H1       1.0000 0.66520  0.43770  0.26860  Biso   1.000  H
  H2       1.0000 0.33480  0.56230  0.76860  Biso   1.000  H
  H3       1.0000 0.16520  0.06230  0.26860  Biso   1.000  H
  H4       1.0000 0.83480  0.93770  0.76860  Biso   1.000  H
  C13      1.0000 0.64330  0.62760  0.31080  Biso   1.000  C
  C14      1.0000 0.35670  0.37240  0.81080  Biso   1.000  C
  C15      1.0000 0.14330  0.87240  0.31080  Biso   1.000  C
  C16      1.0000 0.85670  0.12760  0.81080  Biso   1.000  C
  H5       1.0000 0.58300  0.61190  0.36570  Biso   1.000  H
  H6       1.0000 0.41700  0.38810  0.86570  Biso   1.000  H
  H7       1.0000 0.08300  0.88810  0.36570  Biso   1.000  H
  H8       1.0000 0.91700  0.11190  0.86570  Biso   1.000  H
  C17      1.0000 0.68340  0.75210  0.28690  Biso   1.000  C
  C18      1.0000 0.31660  0.24790  0.78690  Biso   1.000  C
  C19      1.0000 0.18340  0.74790  0.28690  Biso   1.000  C
  C20      1.0000 0.81660  0.25210  0.78690  Biso   1.000  C
  H9       1.0000 0.65130  0.82240  0.32590  Biso   1.000  H
  H10      1.0000 0.34870  0.17760  0.82590  Biso   1.000  H
  H11      1.0000 0.15130  0.67760  0.32590  Biso   1.000  H
  H12      1.0000 0.84870  0.32240  0.82590  Biso   1.000  H
  C21      1.0000 0.77270  0.77550  0.20368  Biso   1.000  C
  C22      1.0000 0.22730  0.22450  0.70368  Biso   1.000  C
  C23      1.0000 0.27270  0.72450  0.20368  Biso   1.000  C
  C24      1.0000 0.72730  0.27550  0.70368  Biso   1.000  C
  C25      1.0000 0.81920  0.66510  0.14891  Biso   1.000  C
  C26      1.0000 0.18080  0.33490  0.64891  Biso   1.000  C
  C27      1.0000 0.31920  0.83490  0.14891  Biso   1.000  C
  C28      1.0000 0.68080  0.16510  0.64891  Biso   1.000  C
  C29      1.0000 0.81860  0.90310  0.17070  Biso   1.000  C
  C30      1.0000 0.18140  0.09690  0.67070  Biso   1.000  C
  C31      1.0000 0.31860  0.59690  0.17070  Biso   1.000  C
  C32      1.0000 0.68140  0.40310  0.67070  Biso   1.000  C
  H13      1.0000 0.78970  0.97720  0.20660  Biso   1.000  H
  H14      1.0000 0.21030  0.02280  0.70660  Biso   1.000  H
  H15      1.0000 0.28970  0.52280  0.20660  Biso   1.000  H
  H16      1.0000 0.71030  0.47720  0.70660  Biso   1.000  H
  C33      1.0000 0.90270  0.91820  0.08870  Biso   1.000  C
  C34      1.0000 0.09730  0.08180  0.58870  Biso   1.000  C
  C35      1.0000 0.40270  0.58180  0.08870  Biso   1.000  C
  C36      1.0000 0.59730  0.41820  0.58870  Biso   1.000  C
  H17      1.0000 0.92930  0.00260  0.06860  Biso   1.000  H
  H18      1.0000 0.07070  0.99740  0.56860  Biso   1.000  H
  H19      1.0000 0.42930  0.49740  0.06860  Biso   1.000  H
  H20      1.0000 0.57070  0.50260  0.56860  Biso   1.000  H
  C37      1.0000 0.90840  0.68040  0.06251  Biso   1.000  C
  C38      1.0000 0.09160  0.31960  0.56251  Biso   1.000  C
  C39      1.0000 0.40840  0.81960  0.06251  Biso   1.000  C
  C40      1.0000 0.59160  0.18040  0.56251  Biso   1.000  C
  C41      1.0000 0.95210  0.80770  0.03150  Biso   1.000  C
  C42      1.0000 0.04790  0.19230  0.53150  Biso   1.000  C
  C43      1.0000 0.45210  0.69230  0.03150  Biso   1.000  C
  C44      1.0000 0.54790  0.30770  0.53150  Biso   1.000  C
  C45      1.0000 0.03860  0.81460  0.94460  Biso   1.000  C
  C46      1.0000 0.96140  0.18540  0.44460  Biso   1.000  C
  C47      1.0000 0.53860  0.68540  0.94460  Biso   1.000  C
  C48      1.0000 0.46140  0.31460  0.44460  Biso   1.000  C
  H21      1.0000 0.07200  0.89580  0.92180  Biso   1.000  H
  H22      1.0000 0.92800  0.10420  0.42180  Biso   1.000  H
  H23      1.0000 0.57200  0.60420  0.92180  Biso   1.000  H
  H24      1.0000 0.42800  0.39580  0.42180  Biso   1.000  H
  C49      1.0000 0.07360  0.70310  0.89380  Biso   1.000  C
  C50      1.0000 0.92640  0.29690  0.39380  Biso   1.000  C
  C51      1.0000 0.57360  0.79690  0.89380  Biso   1.000  C
  C52      1.0000 0.42640  0.20310  0.39380  Biso   1.000  C
  H25      1.0000 0.12870  0.70790  0.83530  Biso   1.000  H
  H26      1.0000 0.87130  0.29210  0.33530  Biso   1.000  H
  H27      1.0000 0.62870  0.79210  0.83530  Biso   1.000  H
  H28      1.0000 0.37130  0.20790  0.33530  Biso   1.000  H
  C53      1.0000 0.02650  0.58170  0.92980  Biso   1.000  C
  C54      1.0000 0.97350  0.41830  0.42980  Biso   1.000  C
  C55      1.0000 0.52650  0.91830  0.92980  Biso   1.000  C
  C56      1.0000 0.47350  0.08170  0.42980  Biso   1.000  C
  H29      1.0000 0.05220  0.50620  0.89450  Biso   1.000  H
  H30      1.0000 0.94780  0.49380  0.39450  Biso   1.000  H
  H31      1.0000 0.55220  0.99380  0.89450  Biso   1.000  H
  H32      1.0000 0.44780  0.00620  0.39450  Biso   1.000  H
  N1       1.0000 0.78020  0.54010  0.17378  Biso   1.000  N
  N2       1.0000 0.21980  0.45990  0.67378  Biso   1.000  N
  N3       1.0000 0.28020  0.95990  0.17378  Biso   1.000  N
  N4       1.0000 0.71980  0.04010  0.67378  Biso   1.000  N
  N5       1.0000 0.94670  0.56900  0.01215  Biso   1.000  N
  N6       1.0000 0.05330  0.43100  0.51215  Biso   1.000  N
  N7       1.0000 0.44670  0.93100  0.01215  Biso   1.000  N
  N8       1.0000 0.55330  0.06900  0.51215  Biso   1.000  N
  O1       1.0000 0.58170  0.12999  0.17462  Biso   1.000  O
  O2       1.0000 0.41830  0.87001  0.67462  Biso   1.000  O
  O3       1.0000 0.08170  0.37001  0.17462  Biso   1.000  O
  O4       1.0000 0.91830  0.62999  0.67462  Biso   1.000  O
  O5       1.0000 0.48290  0.21771  0.99540  Biso   1.000  O
  O6       1.0000 0.51710  0.78229  0.49540  Biso   1.000  O
  O7       1.0000 0.98290  0.28229  0.99540  Biso   1.000  O
  O8       1.0000 0.01710  0.71771  0.49540  Biso   1.000  O
  O9       1.0000 0.77950  0.25630  0.15964  Biso   1.000  O
  O10      1.0000 0.22050  0.74370  0.65964  Biso   1.000  O
  O11      1.0000 0.27950  0.24370  0.15964  Biso   1.000  O
  O12      1.0000 0.72050  0.75630  0.65964  Biso   1.000  O
  O13      1.0000 0.66340  0.36291  0.99082  Biso   1.000  O
  O14      1.0000 0.33660  0.63709  0.49082  Biso   1.000  O
  O15      1.0000 0.16340  0.13709  0.99082  Biso   1.000  O
  O16      1.0000 0.83660  0.86291  0.49082  Biso   1.000  O
