data_image0
_cell_length_a       14.571
_cell_length_b       6.768
_cell_length_c       22.653
_cell_angle_alpha    90
_cell_angle_beta     103.426
_cell_angle_gamma    90

_symmetry_space_group_name_H-M    "P 1"
_symmetry_int_tables_number       1

loop_
  _symmetry_equiv_pos_as_xyz
  'x, y, z'

loop_
  _atom_site_label
  _atom_site_occupancy
  _atom_site_fract_x
  _atom_site_fract_y
  _atom_site_fract_z
  _atom_site_thermal_displace_type
  _atom_site_B_iso_or_equiv
  _atom_site_type_symbol
  C1       1.0000 0.26112  0.30500  0.41200  Biso   1.000  C
  C2       1.0000 0.73888  0.30500  0.08800  Biso   1.000  C
  C3       1.0000 0.76112  0.80500  0.41200  Biso   1.000  C
  C4       1.0000 0.23888  0.80500  0.08800  Biso   1.000  C
  C5       1.0000 0.73888  0.69500  0.58800  Biso   1.000  C
  C6       1.0000 0.26112  0.69500  0.91200  Biso   1.000  C
  C7       1.0000 0.23888  0.19500  0.58800  Biso   1.000  C
  C8       1.0000 0.76112  0.19500  0.91200  Biso   1.000  C
  H1       1.0000 0.25670  0.28140  0.36960  Biso   1.000  H
  H2       1.0000 0.74330  0.28140  0.13040  Biso   1.000  H
  H3       1.0000 0.75670  0.78140  0.36960  Biso   1.000  H
  H4       1.0000 0.24330  0.78140  0.13040  Biso   1.000  H
  H5       1.0000 0.74330  0.71860  0.63040  Biso   1.000  H
  H6       1.0000 0.25670  0.71860  0.86960  Biso   1.000  H
  H7       1.0000 0.24330  0.21860  0.63040  Biso   1.000  H
  H8       1.0000 0.75670  0.21860  0.86960  Biso   1.000  H
  H9       1.0000 0.28340  0.43700  0.42210  Biso   1.000  H
  H10      1.0000 0.71660  0.43700  0.07790  Biso   1.000  H
  H11      1.0000 0.78340  0.93700  0.42210  Biso   1.000  H
  H12      1.0000 0.21660  0.93700  0.07790  Biso   1.000  H
  H13      1.0000 0.71660  0.56300  0.57790  Biso   1.000  H
  H14      1.0000 0.28340  0.56300  0.92210  Biso   1.000  H
  H15      1.0000 0.21660  0.06300  0.57790  Biso   1.000  H
  H16      1.0000 0.78340  0.06300  0.92210  Biso   1.000  H
  H17      1.0000 0.20000  0.28930  0.42060  Biso   1.000  H
  H18      1.0000 0.80000  0.28930  0.07940  Biso   1.000  H
  H19      1.0000 0.70000  0.78930  0.42060  Biso   1.000  H
  H20      1.0000 0.30000  0.78930  0.07940  Biso   1.000  H
  H21      1.0000 0.80000  0.71070  0.57940  Biso   1.000  H
  H22      1.0000 0.20000  0.71070  0.92060  Biso   1.000  H
  H23      1.0000 0.30000  0.21070  0.57940  Biso   1.000  H
  H24      1.0000 0.70000  0.21070  0.92060  Biso   1.000  H
  C9       1.0000 0.32852  0.16060  0.44894  Biso   1.000  C
  C10      1.0000 0.67148  0.16060  0.05106  Biso   1.000  C
  C11      1.0000 0.82852  0.66060  0.44894  Biso   1.000  C
  C12      1.0000 0.17148  0.66060  0.05106  Biso   1.000  C
  C13      1.0000 0.67148  0.83940  0.55106  Biso   1.000  C
  C14      1.0000 0.32852  0.83940  0.94894  Biso   1.000  C
  C15      1.0000 0.17148  0.33940  0.55106  Biso   1.000  C
  C16      1.0000 0.82852  0.33940  0.94894  Biso   1.000  C
  C17      1.0000 0.49416  0.19300  0.67768  Biso   1.000  C
  C18      1.0000 0.50584  0.19300  0.82232  Biso   1.000  C
  C19      1.0000 0.99416  0.69300  0.67768  Biso   1.000  C
  C20      1.0000 0.00584  0.69300  0.82232  Biso   1.000  C
  C21      1.0000 0.50584  0.80700  0.32232  Biso   1.000  C
  C22      1.0000 0.49416  0.80700  0.17768  Biso   1.000  C
  C23      1.0000 0.00584  0.30700  0.32232  Biso   1.000  C
  C24      1.0000 0.99416  0.30700  0.17768  Biso   1.000  C
  H25      1.0000 0.49430  0.32320  0.69450  Biso   1.000  H
  H26      1.0000 0.50570  0.32320  0.80550  Biso   1.000  H
  H27      1.0000 0.99430  0.82320  0.69450  Biso   1.000  H
  H28      1.0000 0.00570  0.82320  0.80550  Biso   1.000  H
  H29      1.0000 0.50570  0.67680  0.30550  Biso   1.000  H
  H30      1.0000 0.49430  0.67680  0.19450  Biso   1.000  H
  H31      1.0000 0.00570  0.17680  0.30550  Biso   1.000  H
  H32      1.0000 0.99430  0.17680  0.19450  Biso   1.000  H
  H33      1.0000 0.54620  0.11880  0.70100  Biso   1.000  H
  H34      1.0000 0.45380  0.11880  0.79900  Biso   1.000  H
  H35      1.0000 0.04620  0.61880  0.70100  Biso   1.000  H
  H36      1.0000 0.95380  0.61880  0.79900  Biso   1.000  H
  H37      1.0000 0.45380  0.88120  0.29900  Biso   1.000  H
  H38      1.0000 0.54620  0.88120  0.20100  Biso   1.000  H
  H39      1.0000 0.95380  0.38120  0.29900  Biso   1.000  H
  H40      1.0000 0.04620  0.38120  0.20100  Biso   1.000  H
  H41      1.0000 0.43610  0.12770  0.67880  Biso   1.000  H
  H42      1.0000 0.56390  0.12770  0.82120  Biso   1.000  H
  H43      1.0000 0.93610  0.62770  0.67880  Biso   1.000  H
  H44      1.0000 0.06390  0.62770  0.82120  Biso   1.000  H
  H45      1.0000 0.56390  0.87230  0.32120  Biso   1.000  H
  H46      1.0000 0.43610  0.87230  0.17880  Biso   1.000  H
  H47      1.0000 0.06390  0.37230  0.32120  Biso   1.000  H
  H48      1.0000 0.93610  0.37230  0.17880  Biso   1.000  H
  C25      1.0000 0.50335  0.20770  0.61301  Biso   1.000  C
  C26      1.0000 0.49665  0.20770  0.88699  Biso   1.000  C
  C27      1.0000 0.00335  0.70770  0.61301  Biso   1.000  C
  C28      1.0000 0.99665  0.70770  0.88699  Biso   1.000  C
  C29      1.0000 0.49665  0.79230  0.38699  Biso   1.000  C
  C30      1.0000 0.50335  0.79230  0.11301  Biso   1.000  C
  C31      1.0000 0.99665  0.29230  0.38699  Biso   1.000  C
  C32      1.0000 0.00335  0.29230  0.11301  Biso   1.000  C
  C33      1.0000 0.74026  0.28700  0.30576  Biso   1.000  C
  C34      1.0000 0.25974  0.28700  0.19424  Biso   1.000  C
  C35      1.0000 0.24026  0.78700  0.30576  Biso   1.000  C
  C36      1.0000 0.75974  0.78700  0.19424  Biso   1.000  C
  C37      1.0000 0.25974  0.71300  0.69424  Biso   1.000  C
  C38      1.0000 0.74026  0.71300  0.80576  Biso   1.000  C
  C39      1.0000 0.75974  0.21300  0.69424  Biso   1.000  C
  C40      1.0000 0.24026  0.21300  0.80576  Biso   1.000  C
  H49      1.0000 0.77410  0.40340  0.29900  Biso   1.000  H
  H50      1.0000 0.22590  0.40340  0.20100  Biso   1.000  H
  H51      1.0000 0.27410  0.90340  0.29900  Biso   1.000  H
  H52      1.0000 0.72590  0.90340  0.20100  Biso   1.000  H
  H53      1.0000 0.22590  0.59660  0.70100  Biso   1.000  H
  H54      1.0000 0.77410  0.59660  0.79900  Biso   1.000  H
  H55      1.0000 0.72590  0.09660  0.70100  Biso   1.000  H
  H56      1.0000 0.27410  0.09660  0.79900  Biso   1.000  H
  H57      1.0000 0.73420  0.28490  0.34710  Biso   1.000  H
  H58      1.0000 0.26580  0.28490  0.15290  Biso   1.000  H
  H59      1.0000 0.23420  0.78490  0.34710  Biso   1.000  H
  H60      1.0000 0.76580  0.78490  0.15290  Biso   1.000  H
  H61      1.0000 0.26580  0.71510  0.65290  Biso   1.000  H
  H62      1.0000 0.73420  0.71510  0.84710  Biso   1.000  H
  H63      1.0000 0.76580  0.21510  0.65290  Biso   1.000  H
  H64      1.0000 0.23420  0.21510  0.84710  Biso   1.000  H
  H65      1.0000 0.77410  0.17180  0.29800  Biso   1.000  H
  H66      1.0000 0.22590  0.17180  0.20200  Biso   1.000  H
  H67      1.0000 0.27410  0.67180  0.29800  Biso   1.000  H
  H68      1.0000 0.72590  0.67180  0.20200  Biso   1.000  H
  H69      1.0000 0.22590  0.82820  0.70200  Biso   1.000  H
  H70      1.0000 0.77410  0.82820  0.79800  Biso   1.000  H
  H71      1.0000 0.72590  0.32820  0.70200  Biso   1.000  H
  H72      1.0000 0.27410  0.32820  0.79800  Biso   1.000  H
  C41      1.0000 0.64395  0.28840  0.26380  Biso   1.000  C
  C42      1.0000 0.35605  0.28840  0.23620  Biso   1.000  C
  C43      1.0000 0.14395  0.78840  0.26380  Biso   1.000  C
  C44      1.0000 0.85605  0.78840  0.23620  Biso   1.000  C
  C45      1.0000 0.35605  0.71160  0.73620  Biso   1.000  C
  C46      1.0000 0.64395  0.71160  0.76380  Biso   1.000  C
  C47      1.0000 0.85605  0.21160  0.73620  Biso   1.000  C
  C48      1.0000 0.14395  0.21160  0.76380  Biso   1.000  C
  Cu1      1.0000 0.50000  0.00000  0.50000  Biso   1.000  Cu
  Cu2      1.0000 0.50000  0.00000  0.00000  Biso   1.000  Cu
  Cu3      1.0000 0.00000  0.50000  0.50000  Biso   1.000  Cu
  Cu4      1.0000 0.00000  0.50000  0.00000  Biso   1.000  Cu
  Na1      1.0000 0.50000  0.50000  0.50000  Biso   1.000  Na
  Na2      1.0000 0.50000  0.50000  0.00000  Biso   1.000  Na
  Na3      1.0000 0.00000  0.00000  0.50000  Biso   1.000  Na
  Na4      1.0000 0.00000  0.00000  0.00000  Biso   1.000  Na
  Na5      1.0000 0.49820  0.29212  0.37402  Biso   1.000  Na
  Na6      1.0000 0.50180  0.29212  0.12598  Biso   1.000  Na
  Na7      1.0000 0.99820  0.79212  0.37402  Biso   1.000  Na
  Na8      1.0000 0.00180  0.79212  0.12598  Biso   1.000  Na
  Na9      1.0000 0.50180  0.70788  0.62598  Biso   1.000  Na
  Na10     1.0000 0.49820  0.70788  0.87402  Biso   1.000  Na
  Na11     1.0000 0.00180  0.20788  0.62598  Biso   1.000  Na
  Na12     1.0000 0.99820  0.20788  0.87402  Biso   1.000  Na
  O1       1.0000 0.30176  0.99791  0.46272  Biso   1.000  O
  O2       1.0000 0.69824  0.99791  0.03728  Biso   1.000  O
  O3       1.0000 0.80176  0.49791  0.46272  Biso   1.000  O
  O4       1.0000 0.19824  0.49791  0.03728  Biso   1.000  O
  O5       1.0000 0.69824  0.00209  0.53728  Biso   1.000  O
  O6       1.0000 0.30176  0.00209  0.96272  Biso   1.000  O
  O7       1.0000 0.19824  0.50209  0.53728  Biso   1.000  O
  O8       1.0000 0.80176  0.50209  0.96272  Biso   1.000  O
  O9       1.0000 0.41529  0.21412  0.46414  Biso   1.000  O
  O10      1.0000 0.58471  0.21412  0.03586  Biso   1.000  O
  O11      1.0000 0.91529  0.71412  0.46414  Biso   1.000  O
  O12      1.0000 0.08471  0.71412  0.03586  Biso   1.000  O
  O13      1.0000 0.58471  0.78588  0.53586  Biso   1.000  O
  O14      1.0000 0.41529  0.78588  0.96414  Biso   1.000  O
  O15      1.0000 0.08471  0.28588  0.53586  Biso   1.000  O
  O16      1.0000 0.91529  0.28588  0.96414  Biso   1.000  O
  O17      1.0000 0.49001  0.04618  0.58292  Biso   1.000  O
  O18      1.0000 0.50999  0.04618  0.91708  Biso   1.000  O
  O19      1.0000 0.99001  0.54618  0.58292  Biso   1.000  O
  O20      1.0000 0.00999  0.54618  0.91708  Biso   1.000  O
  O21      1.0000 0.50999  0.95382  0.41708  Biso   1.000  O
  O22      1.0000 0.49001  0.95382  0.08292  Biso   1.000  O
  O23      1.0000 0.00999  0.45382  0.41708  Biso   1.000  O
  O24      1.0000 0.99001  0.45382  0.08292  Biso   1.000  O
  O25      1.0000 0.52322  0.36734  0.59343  Biso   1.000  O
  O26      1.0000 0.47678  0.36734  0.90657  Biso   1.000  O
  O27      1.0000 0.02322  0.86734  0.59343  Biso   1.000  O
  O28      1.0000 0.97678  0.86734  0.90657  Biso   1.000  O
  O29      1.0000 0.47678  0.63266  0.40657  Biso   1.000  O
  O30      1.0000 0.52322  0.63266  0.09343  Biso   1.000  O
  O31      1.0000 0.97678  0.13266  0.40657  Biso   1.000  O
  O32      1.0000 0.02322  0.13266  0.09343  Biso   1.000  O
  O33      1.0000 0.57426  0.30910  0.28906  Biso   1.000  O
  O34      1.0000 0.42574  0.30910  0.21094  Biso   1.000  O
  O35      1.0000 0.07426  0.80910  0.28906  Biso   1.000  O
  O36      1.0000 0.92574  0.80910  0.21094  Biso   1.000  O
  O37      1.0000 0.42574  0.69090  0.71094  Biso   1.000  O
  O38      1.0000 0.57426  0.69090  0.78906  Biso   1.000  O
  O39      1.0000 0.92574  0.19090  0.71094  Biso   1.000  O
  O40      1.0000 0.07426  0.19090  0.78906  Biso   1.000  O
  H73      1.0000 0.50000  0.69360  0.75000  Biso   1.000  H
  H74      1.0000 0.00000  0.19360  0.75000  Biso   1.000  H
  H75      1.0000 0.50000  0.30640  0.25000  Biso   1.000  H
  H76      1.0000 0.00000  0.80640  0.25000  Biso   1.000  H
  O41      1.0000 0.63395  0.27280  0.20904  Biso   1.000  O
  O42      1.0000 0.36605  0.27280  0.29096  Biso   1.000  O
  O43      1.0000 0.13395  0.77280  0.20904  Biso   1.000  O
  O44      1.0000 0.86605  0.77280  0.29096  Biso   1.000  O
  O45      1.0000 0.36605  0.72720  0.79096  Biso   1.000  O
  O46      1.0000 0.63395  0.72720  0.70904  Biso   1.000  O
  O47      1.0000 0.86605  0.22720  0.79096  Biso   1.000  O
  O48      1.0000 0.13395  0.22720  0.70904  Biso   1.000  O
  O49      1.0000 0.37443  0.67127  0.53741  Biso   1.000  O
  O50      1.0000 0.62557  0.67127  0.96259  Biso   1.000  O
  O51      1.0000 0.87443  0.17127  0.53741  Biso   1.000  O
  O52      1.0000 0.12557  0.17127  0.96259  Biso   1.000  O
  O53      1.0000 0.62557  0.32873  0.46259  Biso   1.000  O
  O54      1.0000 0.37443  0.32873  0.03741  Biso   1.000  O
  O55      1.0000 0.12557  0.82873  0.46259  Biso   1.000  O
  O56      1.0000 0.87443  0.82873  0.03741  Biso   1.000  O
  H77      1.0000 0.32910  0.61110  0.54100  Biso   1.000  H
  H78      1.0000 0.67090  0.61110  0.95900  Biso   1.000  H
  H79      1.0000 0.82910  0.11110  0.54100  Biso   1.000  H
  H80      1.0000 0.17090  0.11110  0.95900  Biso   1.000  H
  H81      1.0000 0.67090  0.38890  0.45900  Biso   1.000  H
  H82      1.0000 0.32910  0.38890  0.04100  Biso   1.000  H
  H83      1.0000 0.17090  0.88890  0.45900  Biso   1.000  H
  H84      1.0000 0.82910  0.88890  0.04100  Biso   1.000  H
  H85      1.0000 0.35180  0.76570  0.51910  Biso   1.000  H
  H86      1.0000 0.64820  0.76570  0.98090  Biso   1.000  H
  H87      1.0000 0.85180  0.26570  0.51910  Biso   1.000  H
  H88      1.0000 0.14820  0.26570  0.98090  Biso   1.000  H
  H89      1.0000 0.64820  0.23430  0.48090  Biso   1.000  H
  H90      1.0000 0.35180  0.23430  0.01910  Biso   1.000  H
  H91      1.0000 0.14820  0.73430  0.48090  Biso   1.000  H
  H92      1.0000 0.85180  0.73430  0.01910  Biso   1.000  H
