data_image0
_cell_length_a       9.221
_cell_length_b       12.798
_cell_length_c       22.305
_cell_angle_alpha    90
_cell_angle_beta     91.71
_cell_angle_gamma    90

_symmetry_space_group_name_H-M    "P 1"
_symmetry_int_tables_number       1

loop_
  _symmetry_equiv_pos_as_xyz
  'x, y, z'

loop_
  _atom_site_label
  _atom_site_occupancy
  _atom_site_fract_x
  _atom_site_fract_y
  _atom_site_fract_z
  _atom_site_thermal_displace_type
  _atom_site_B_iso_or_equiv
  _atom_site_type_symbol
  Cu1      1.0000 0.21740  0.08691  0.33509  Biso   1.000  Cu
  Cu2      1.0000 0.78260  0.58691  0.16491  Biso   1.000  Cu
  Cu3      1.0000 0.78260  0.91309  0.66491  Biso   1.000  Cu
  Cu4      1.0000 0.21740  0.41309  0.83509  Biso   1.000  Cu
  N1       1.0000 0.14420  0.39810  0.37580  Biso   1.000  N
  N2       1.0000 0.85580  0.89810  0.12420  Biso   1.000  N
  N3       1.0000 0.85580  0.60190  0.62420  Biso   1.000  N
  N4       1.0000 0.14420  0.10190  0.87580  Biso   1.000  N
  N5       1.0000 0.20150  0.24140  0.34420  Biso   1.000  N
  N6       1.0000 0.79850  0.74140  0.15580  Biso   1.000  N
  N7       1.0000 0.79850  0.75860  0.65580  Biso   1.000  N
  N8       1.0000 0.20150  0.25860  0.84420  Biso   1.000  N
  N9       1.0000 0.32800  0.39160  0.64300  Biso   1.000  N
  N10      1.0000 0.67200  0.89160  0.85700  Biso   1.000  N
  N11      1.0000 0.67200  0.60840  0.35700  Biso   1.000  N
  N12      1.0000 0.32800  0.10840  0.14300  Biso   1.000  N
  N13      1.0000 0.24600  0.40400  0.73430  Biso   1.000  N
  N14      1.0000 0.75400  0.90400  0.76570  Biso   1.000  N
  N15      1.0000 0.75400  0.59600  0.26570  Biso   1.000  N
  N16      1.0000 0.24600  0.09600  0.23430  Biso   1.000  N
  N17      1.0000 0.00060  0.05800  0.33550  Biso   1.000  N
  N18      1.0000 0.99940  0.55800  0.16450  Biso   1.000  N
  N19      1.0000 0.99940  0.94200  0.66450  Biso   1.000  N
  N20      1.0000 0.00060  0.44200  0.83550  Biso   1.000  N
  N21      1.0000 0.23110  0.92910  0.34070  Biso   1.000  N
  N22      1.0000 0.76890  0.42910  0.15930  Biso   1.000  N
  N23      1.0000 0.76890  0.07090  0.65930  Biso   1.000  N
  N24      1.0000 0.23110  0.57090  0.84070  Biso   1.000  N
  N25      1.0000 0.42400  0.08300  0.36750  Biso   1.000  N
  N26      1.0000 0.57600  0.58300  0.13250  Biso   1.000  N
  N27      1.0000 0.57600  0.91700  0.63250  Biso   1.000  N
  N28      1.0000 0.42400  0.41700  0.86750  Biso   1.000  N
  C1       1.0000 0.17680  0.52050  0.46110  Biso   1.000  C
  C2       1.0000 0.82320  0.02050  0.03890  Biso   1.000  C
  C3       1.0000 0.82320  0.47950  0.53890  Biso   1.000  C
  C4       1.0000 0.17680  0.97950  0.96110  Biso   1.000  C
  C5       1.0000 0.25180  0.45240  0.49790  Biso   1.000  C
  C6       1.0000 0.74820  0.95240  0.00210  Biso   1.000  C
  C7       1.0000 0.74820  0.54760  0.50210  Biso   1.000  C
  C8       1.0000 0.25180  0.04760  0.99790  Biso   1.000  C
  C9       1.0000 0.33370  0.48970  0.54740  Biso   1.000  C
  C10      1.0000 0.66630  0.98970  0.95260  Biso   1.000  C
  C11      1.0000 0.66630  0.51030  0.45260  Biso   1.000  C
  C12      1.0000 0.33370  0.01030  0.04740  Biso   1.000  C
  C13      1.0000 0.33740  0.59590  0.55910  Biso   1.000  C
  C14      1.0000 0.66260  0.09590  0.94090  Biso   1.000  C
  C15      1.0000 0.66260  0.40410  0.44090  Biso   1.000  C
  C16      1.0000 0.33740  0.90410  0.05910  Biso   1.000  C
  C17      1.0000 0.26260  0.66580  0.52270  Biso   1.000  C
  C18      1.0000 0.73740  0.16580  0.97730  Biso   1.000  C
  C19      1.0000 0.73740  0.33420  0.47730  Biso   1.000  C
  C20      1.0000 0.26260  0.83420  0.02270  Biso   1.000  C
  C21      1.0000 0.18070  0.62590  0.47400  Biso   1.000  C
  C22      1.0000 0.81930  0.12590  0.02600  Biso   1.000  C
  C23      1.0000 0.81930  0.37410  0.52600  Biso   1.000  C
  C24      1.0000 0.18070  0.87410  0.97400  Biso   1.000  C
  C25      1.0000 0.07880  0.48180  0.41100  Biso   1.000  C
  C26      1.0000 0.92120  0.98180  0.08900  Biso   1.000  C
  C27      1.0000 0.92120  0.51820  0.58900  Biso   1.000  C
  C28      1.0000 0.07880  0.01820  0.91100  Biso   1.000  C
  C29      1.0000 0.12080  0.29610  0.38080  Biso   1.000  C
  C30      1.0000 0.87920  0.79610  0.11920  Biso   1.000  C
  C31      1.0000 0.87920  0.70390  0.61920  Biso   1.000  C
  C32      1.0000 0.12080  0.20390  0.88080  Biso   1.000  C
  C33      1.0000 0.28190  0.31540  0.31440  Biso   1.000  C
  C34      1.0000 0.71810  0.81540  0.18560  Biso   1.000  C
  C35      1.0000 0.71810  0.68460  0.68560  Biso   1.000  C
  C36      1.0000 0.28190  0.18460  0.81440  Biso   1.000  C
  C37      1.0000 0.24880  0.41020  0.33310  Biso   1.000  C
  C38      1.0000 0.75120  0.91020  0.16690  Biso   1.000  C
  C39      1.0000 0.75120  0.58980  0.66690  Biso   1.000  C
  C40      1.0000 0.24880  0.08980  0.83310  Biso   1.000  C
  C41      1.0000 0.41460  0.41530  0.58920  Biso   1.000  C
  C42      1.0000 0.58540  0.91530  0.91080  Biso   1.000  C
  C43      1.0000 0.58540  0.58470  0.41080  Biso   1.000  C
  C44      1.0000 0.41460  0.08470  0.08920  Biso   1.000  C
  C45      1.0000 0.34440  0.43650  0.69720  Biso   1.000  C
  C46      1.0000 0.65560  0.93650  0.80280  Biso   1.000  C
  C47      1.0000 0.65560  0.56350  0.30280  Biso   1.000  C
  C48      1.0000 0.34440  0.06350  0.19720  Biso   1.000  C
  C49      1.0000 0.16120  0.33560  0.70130  Biso   1.000  C
  C50      1.0000 0.83880  0.83560  0.79870  Biso   1.000  C
  C51      1.0000 0.83880  0.66440  0.29870  Biso   1.000  C
  C52      1.0000 0.16120  0.16440  0.20130  Biso   1.000  C
  C53      1.0000 0.20980  0.32780  0.64550  Biso   1.000  C
  C54      1.0000 0.79020  0.82780  0.85450  Biso   1.000  C
  C55      1.0000 0.79020  0.67220  0.35450  Biso   1.000  C
  C56      1.0000 0.20980  0.17220  0.14550  Biso   1.000  C
  C57      1.0000 0.26800  0.78300  0.53660  Biso   1.000  C
  C58      1.0000 0.73200  0.28300  0.96340  Biso   1.000  C
  C59      1.0000 0.73200  0.21700  0.46340  Biso   1.000  C
  C60      1.0000 0.26800  0.71700  0.03660  Biso   1.000  C
  C61      1.0000 0.97780  0.94770  0.32100  Biso   1.000  C
  C62      1.0000 0.02220  0.44770  0.17900  Biso   1.000  C
  C63      1.0000 0.02220  0.05230  0.67900  Biso   1.000  C
  C64      1.0000 0.97780  0.55230  0.82100  Biso   1.000  C
  C65      1.0000 0.09060  0.88600  0.35620  Biso   1.000  C
  C66      1.0000 0.90940  0.38600  0.14380  Biso   1.000  C
  C67      1.0000 0.90940  0.11400  0.64380  Biso   1.000  C
  C68      1.0000 0.09060  0.61400  0.85620  Biso   1.000  C
  C69      1.0000 0.35550  0.90280  0.37990  Biso   1.000  C
  C70      1.0000 0.64450  0.40280  0.12010  Biso   1.000  C
  C71      1.0000 0.64450  0.09720  0.62010  Biso   1.000  C
  C72      1.0000 0.35550  0.59720  0.87990  Biso   1.000  C
  C73      1.0000 0.47700  0.97440  0.36560  Biso   1.000  C
  C74      1.0000 0.52300  0.47440  0.13440  Biso   1.000  C
  C75      1.0000 0.52300  0.02560  0.63440  Biso   1.000  C
  C76      1.0000 0.47700  0.52560  0.86560  Biso   1.000  C
  H1       1.0000 0.25000  0.37780  0.48930  Biso   1.000  H
  H2       1.0000 0.75000  0.87780  0.01070  Biso   1.000  H
  H3       1.0000 0.75000  0.62220  0.51070  Biso   1.000  H
  H4       1.0000 0.25000  0.12220  0.98930  Biso   1.000  H
  H5       1.0000 0.39610  0.62140  0.59430  Biso   1.000  H
  H6       1.0000 0.60390  0.12140  0.90570  Biso   1.000  H
  H7       1.0000 0.60390  0.37860  0.40570  Biso   1.000  H
  H8       1.0000 0.39610  0.87860  0.09430  Biso   1.000  H
  H9       1.0000 0.12890  0.67460  0.44780  Biso   1.000  H
  H10      1.0000 0.87110  0.17460  0.05220  Biso   1.000  H
  H11      1.0000 0.87110  0.32540  0.55220  Biso   1.000  H
  H12      1.0000 0.12890  0.82540  0.94780  Biso   1.000  H
  H13      1.0000 0.05180  0.53840  0.38440  Biso   1.000  H
  H14      1.0000 0.94820  0.03840  0.11560  Biso   1.000  H
  H15      1.0000 0.94820  0.46160  0.61560  Biso   1.000  H
  H16      1.0000 0.05180  0.96160  0.88440  Biso   1.000  H
  H17      1.0000 0.98830  0.45510  0.42680  Biso   1.000  H
  H18      1.0000 0.01170  0.95510  0.07320  Biso   1.000  H
  H19      1.0000 0.01170  0.54490  0.57320  Biso   1.000  H
  H20      1.0000 0.98830  0.04490  0.92680  Biso   1.000  H
  H21      1.0000 0.05230  0.26460  0.40870  Biso   1.000  H
  H22      1.0000 0.94770  0.76460  0.09130  Biso   1.000  H
  H23      1.0000 0.94770  0.73540  0.59130  Biso   1.000  H
  H24      1.0000 0.05230  0.23540  0.90870  Biso   1.000  H
  H25      1.0000 0.35200  0.30040  0.28410  Biso   1.000  H
  H26      1.0000 0.64800  0.80040  0.21590  Biso   1.000  H
  H27      1.0000 0.64800  0.69960  0.71590  Biso   1.000  H
  H28      1.0000 0.35200  0.19960  0.78410  Biso   1.000  H
  H29      1.0000 0.28870  0.47810  0.32080  Biso   1.000  H
  H30      1.0000 0.71130  0.97810  0.17920  Biso   1.000  H
  H31      1.0000 0.71130  0.52190  0.67920  Biso   1.000  H
  H32      1.0000 0.28870  0.02190  0.82080  Biso   1.000  H
  H33      1.0000 0.50810  0.44500  0.60190  Biso   1.000  H
  H34      1.0000 0.49190  0.94500  0.89810  Biso   1.000  H
  H35      1.0000 0.49190  0.55500  0.39810  Biso   1.000  H
  H36      1.0000 0.50810  0.05500  0.10190  Biso   1.000  H
  H37      1.0000 0.43670  0.35120  0.56830  Biso   1.000  H
  H38      1.0000 0.56330  0.85120  0.93170  Biso   1.000  H
  H39      1.0000 0.56330  0.64880  0.43170  Biso   1.000  H
  H40      1.0000 0.43670  0.14880  0.06830  Biso   1.000  H
  H41      1.0000 0.42190  0.48880  0.70690  Biso   1.000  H
  H42      1.0000 0.57810  0.98880  0.79310  Biso   1.000  H
  H43      1.0000 0.57810  0.51120  0.29310  Biso   1.000  H
  H44      1.0000 0.42190  0.01120  0.20690  Biso   1.000  H
  H45      1.0000 0.07980  0.29660  0.71730  Biso   1.000  H
  H46      1.0000 0.92020  0.79660  0.78270  Biso   1.000  H
  H47      1.0000 0.92020  0.70340  0.28270  Biso   1.000  H
  H48      1.0000 0.07980  0.20340  0.21730  Biso   1.000  H
  H49      1.0000 0.17000  0.28440  0.61220  Biso   1.000  H
  H50      1.0000 0.83000  0.78440  0.88780  Biso   1.000  H
  H51      1.0000 0.83000  0.71560  0.38780  Biso   1.000  H
  H52      1.0000 0.17000  0.21560  0.11220  Biso   1.000  H
  H53      1.0000 0.36460  0.81120  0.53580  Biso   1.000  H
  H54      1.0000 0.63540  0.31120  0.96420  Biso   1.000  H
  H55      1.0000 0.63540  0.18880  0.46420  Biso   1.000  H
  H56      1.0000 0.36460  0.68880  0.03580  Biso   1.000  H
  H57      1.0000 0.21020  0.82380  0.50720  Biso   1.000  H
  H58      1.0000 0.78980  0.32380  0.99280  Biso   1.000  H
  H59      1.0000 0.78980  0.17620  0.49280  Biso   1.000  H
  H60      1.0000 0.21020  0.67620  0.00720  Biso   1.000  H
  H61      1.0000 0.22970  0.80010  0.57520  Biso   1.000  H
  H62      1.0000 0.77030  0.30010  0.92480  Biso   1.000  H
  H63      1.0000 0.77030  0.19990  0.42480  Biso   1.000  H
  H64      1.0000 0.22970  0.69990  0.07520  Biso   1.000  H
  H65      1.0000 0.88090  0.92430  0.33080  Biso   1.000  H
  H66      1.0000 0.11910  0.42430  0.16920  Biso   1.000  H
  H67      1.0000 0.11910  0.07570  0.66920  Biso   1.000  H
  H68      1.0000 0.88090  0.57570  0.83080  Biso   1.000  H
  H69      1.0000 0.98850  0.93480  0.27900  Biso   1.000  H
  H70      1.0000 0.01150  0.43480  0.22100  Biso   1.000  H
  H71      1.0000 0.01150  0.06520  0.72100  Biso   1.000  H
  H72      1.0000 0.98850  0.56520  0.77900  Biso   1.000  H
  H73      1.0000 0.08440  0.81110  0.34720  Biso   1.000  H
  H74      1.0000 0.91560  0.31110  0.15280  Biso   1.000  H
  H75      1.0000 0.91560  0.18890  0.65280  Biso   1.000  H
  H76      1.0000 0.08440  0.68890  0.84720  Biso   1.000  H
  H77      1.0000 0.07530  0.89150  0.39900  Biso   1.000  H
  H78      1.0000 0.92470  0.39150  0.10100  Biso   1.000  H
  H79      1.0000 0.92470  0.10850  0.60100  Biso   1.000  H
  H80      1.0000 0.07530  0.60850  0.89900  Biso   1.000  H
  H81      1.0000 0.33070  0.91020  0.42130  Biso   1.000  H
  H82      1.0000 0.66930  0.41020  0.07870  Biso   1.000  H
  H83      1.0000 0.66930  0.08980  0.57870  Biso   1.000  H
  H84      1.0000 0.33070  0.58980  0.92130  Biso   1.000  H
  H85      1.0000 0.38440  0.83070  0.37440  Biso   1.000  H
  H86      1.0000 0.61560  0.33070  0.12560  Biso   1.000  H
  H87      1.0000 0.61560  0.16930  0.62560  Biso   1.000  H
  H88      1.0000 0.38440  0.66930  0.87440  Biso   1.000  H
  H89      1.0000 0.50860  0.95950  0.32610  Biso   1.000  H
  H90      1.0000 0.49140  0.45950  0.17390  Biso   1.000  H
  H91      1.0000 0.49140  0.04050  0.67390  Biso   1.000  H
  H92      1.0000 0.50860  0.54050  0.82610  Biso   1.000  H
  H93      1.0000 0.55620  0.96510  0.39330  Biso   1.000  H
  H94      1.0000 0.44380  0.46510  0.10670  Biso   1.000  H
  H95      1.0000 0.44380  0.03490  0.60670  Biso   1.000  H
  H96      1.0000 0.55620  0.53490  0.89330  Biso   1.000  H
  H97      1.0000 0.96310  0.07350  0.37490  Biso   1.000  H
  H98      1.0000 0.03690  0.57350  0.12510  Biso   1.000  H
  H99      1.0000 0.03690  0.92650  0.62510  Biso   1.000  H
  H100     1.0000 0.96310  0.42650  0.87490  Biso   1.000  H
  H101     1.0000 0.94940  0.10230  0.30740  Biso   1.000  H
  H102     1.0000 0.05060  0.60230  0.19260  Biso   1.000  H
  H103     1.0000 0.05060  0.89770  0.69260  Biso   1.000  H
  H104     1.0000 0.94940  0.39770  0.80740  Biso   1.000  H
  H105     1.0000 0.25250  0.90280  0.30150  Biso   1.000  H
  H106     1.0000 0.74750  0.40280  0.19850  Biso   1.000  H
  H107     1.0000 0.74750  0.09720  0.69850  Biso   1.000  H
  H108     1.0000 0.25250  0.59720  0.80150  Biso   1.000  H
  H109     1.0000 0.48410  0.12880  0.34440  Biso   1.000  H
  H110     1.0000 0.51590  0.62880  0.15560  Biso   1.000  H
  H111     1.0000 0.51590  0.87120  0.65560  Biso   1.000  H
  H112     1.0000 0.48410  0.37120  0.84440  Biso   1.000  H
  H113     1.0000 0.42840  0.10930  0.40840  Biso   1.000  H
  H114     1.0000 0.57160  0.60930  0.09160  Biso   1.000  H
  H115     1.0000 0.57160  0.89070  0.59160  Biso   1.000  H
  H116     1.0000 0.42840  0.39070  0.90840  Biso   1.000  H
  Cl1      1.0000 0.20050  0.11430  0.51008  Biso   1.000  Cl
  Cl2      1.0000 0.79950  0.61430  0.98992  Biso   1.000  Cl
  Cl3      1.0000 0.79950  0.88570  0.48992  Biso   1.000  Cl
  Cl4      1.0000 0.20050  0.38570  0.01008  Biso   1.000  Cl
  O1       1.0000 0.14900  0.06570  0.45660  Biso   1.000  O
  O2       1.0000 0.85100  0.56570  0.04340  Biso   1.000  O
  O3       1.0000 0.85100  0.93430  0.54340  Biso   1.000  O
  O4       1.0000 0.14900  0.43430  0.95660  Biso   1.000  O
  O5       1.0000 0.34100  0.15520  0.50160  Biso   1.000  O
  O6       1.0000 0.65900  0.65520  0.99840  Biso   1.000  O
  O7       1.0000 0.65900  0.84480  0.49840  Biso   1.000  O
  O8       1.0000 0.34100  0.34480  0.00160  Biso   1.000  O
  O9       1.0000 0.10320  0.19930  0.52290  Biso   1.000  O
  O10      1.0000 0.89680  0.69930  0.97710  Biso   1.000  O
  O11      1.0000 0.89680  0.80070  0.47710  Biso   1.000  O
  O12      1.0000 0.10320  0.30070  0.02290  Biso   1.000  O
  O13      1.0000 0.19840  0.04260  0.55830  Biso   1.000  O
  O14      1.0000 0.80160  0.54260  0.94170  Biso   1.000  O
  O15      1.0000 0.80160  0.95740  0.44170  Biso   1.000  O
  O16      1.0000 0.19840  0.45740  0.05830  Biso   1.000  O
  Cl5      1.0000 0.29480  0.70680  0.24670  Biso   1.000  Cl
  Cl6      1.0000 0.70520  0.20680  0.25330  Biso   1.000  Cl
  Cl7      1.0000 0.70520  0.29320  0.75330  Biso   1.000  Cl
  Cl8      1.0000 0.29480  0.79320  0.74670  Biso   1.000  Cl
  O17      1.0000 0.32350  0.62100  0.21120  Biso   1.000  O
  O18      1.0000 0.67650  0.12100  0.28880  Biso   1.000  O
  O19      1.0000 0.67650  0.37900  0.78880  Biso   1.000  O
  O20      1.0000 0.32350  0.87900  0.71120  Biso   1.000  O
  O21      1.0000 0.16190  0.75070  0.23240  Biso   1.000  O
  O22      1.0000 0.83810  0.25070  0.26760  Biso   1.000  O
  O23      1.0000 0.83810  0.24930  0.76760  Biso   1.000  O
  O24      1.0000 0.16190  0.74930  0.73240  Biso   1.000  O
  O25      1.0000 0.40200  0.78090  0.24710  Biso   1.000  O
  O26      1.0000 0.59800  0.28090  0.25290  Biso   1.000  O
  O27      1.0000 0.59800  0.21910  0.75290  Biso   1.000  O
  O28      1.0000 0.40200  0.71910  0.74710  Biso   1.000  O
  O29      1.0000 0.28500  0.67100  0.30830  Biso   1.000  O
  O30      1.0000 0.71500  0.17100  0.19170  Biso   1.000  O
  O31      1.0000 0.71500  0.32900  0.69170  Biso   1.000  O
  O32      1.0000 0.28500  0.82900  0.80830  Biso   1.000  O
