data_image0
_cell_length_a       9.4764
_cell_length_b       8.2618
_cell_length_c       15.099
_cell_angle_alpha    90
_cell_angle_beta     106.259
_cell_angle_gamma    90

_symmetry_space_group_name_H-M    "P 1"
_symmetry_int_tables_number       1

loop_
  _symmetry_equiv_pos_as_xyz
  'x, y, z'

loop_
  _atom_site_label
  _atom_site_occupancy
  _atom_site_fract_x
  _atom_site_fract_y
  _atom_site_fract_z
  _atom_site_thermal_displace_type
  _atom_site_B_iso_or_equiv
  _atom_site_type_symbol
  Cu1      1.0000 0.43225  0.99516  0.56412  Biso   1.000  Cu
  Cu2      1.0000 0.06775  0.49516  0.93588  Biso   1.000  Cu
  Cu3      1.0000 0.56775  0.00484  0.43588  Biso   1.000  Cu
  Cu4      1.0000 0.93225  0.50484  0.06412  Biso   1.000  Cu
  O1       1.0000 0.52755  0.20568  0.60153  Biso   1.000  O
  O2       1.0000 0.97245  0.70568  0.89847  Biso   1.000  O
  O3       1.0000 0.47245  0.79432  0.39847  Biso   1.000  O
  O4       1.0000 0.02755  0.29432  0.10153  Biso   1.000  O
  O5       1.0000 0.64565  0.21315  0.49265  Biso   1.000  O
  O6       1.0000 0.85435  0.71315  0.00735  Biso   1.000  O
  O7       1.0000 0.35435  0.78685  0.50735  Biso   1.000  O
  O8       1.0000 0.14565  0.28685  0.99265  Biso   1.000  O
  O9       1.0000 0.72585  0.89246  0.52815  Biso   1.000  O
  O10      1.0000 0.77415  0.39246  0.97185  Biso   1.000  O
  O11      1.0000 0.27415  0.10754  0.47185  Biso   1.000  O
  O12      1.0000 0.22585  0.60754  0.02815  Biso   1.000  O
  O13      1.0000 0.60808  0.88250  0.63743  Biso   1.000  O
  O14      1.0000 0.89192  0.38250  0.86257  Biso   1.000  O
  O15      1.0000 0.39192  0.11750  0.36257  Biso   1.000  O
  O16      1.0000 0.10808  0.61750  0.13743  Biso   1.000  O
  O17      1.0000 0.31493  0.98783  0.66816  Biso   1.000  O
  O18      1.0000 0.18507  0.48783  0.83184  Biso   1.000  O
  O19      1.0000 0.68507  0.01217  0.33184  Biso   1.000  O
  O20      1.0000 0.81493  0.51217  0.16816  Biso   1.000  O
  N1       1.0000 0.12143  0.07990  0.71426  Biso   1.000  N
  N2       1.0000 0.37857  0.57990  0.78574  Biso   1.000  N
  N3       1.0000 0.87857  0.92010  0.28574  Biso   1.000  N
  N4       1.0000 0.62143  0.42010  0.21426  Biso   1.000  N
  C1       1.0000 0.61470  0.26920  0.56190  Biso   1.000  C
  C2       1.0000 0.88530  0.76920  0.93810  Biso   1.000  C
  C3       1.0000 0.38530  0.73080  0.43810  Biso   1.000  C
  C4       1.0000 0.11470  0.23080  0.06190  Biso   1.000  C
  C5       1.0000 0.68930  0.42470  0.60485  Biso   1.000  C
  C6       1.0000 0.81070  0.92470  0.89515  Biso   1.000  C
  C7       1.0000 0.31070  0.57530  0.39515  Biso   1.000  C
  C8       1.0000 0.18930  0.07530  0.10485  Biso   1.000  C
  H1       1.0000 0.75160  0.39980  0.66780  Biso   1.000  H
  H2       1.0000 0.74840  0.89980  0.83220  Biso   1.000  H
  H3       1.0000 0.24840  0.60020  0.33220  Biso   1.000  H
  H4       1.0000 0.25160  0.10020  0.16780  Biso   1.000  H
  H5       1.0000 0.61240  0.50150  0.61100  Biso   1.000  H
  H6       1.0000 0.88760  0.00150  0.88900  Biso   1.000  H
  H7       1.0000 0.38760  0.49850  0.38900  Biso   1.000  H
  H8       1.0000 0.11240  0.99850  0.11100  Biso   1.000  H
  C9       1.0000 0.78440  0.50860  0.55190  Biso   1.000  C
  C10      1.0000 0.71560  0.00860  0.94810  Biso   1.000  C
  C11      1.0000 0.21560  0.49140  0.44810  Biso   1.000  C
  C12      1.0000 0.28440  0.99140  0.05190  Biso   1.000  C
  H9       1.0000 0.72010  0.57150  0.50040  Biso   1.000  H
  H10      1.0000 0.77990  0.07150  0.99960  Biso   1.000  H
  H11      1.0000 0.27990  0.42850  0.49960  Biso   1.000  H
  H12      1.0000 0.22010  0.92850  0.00040  Biso   1.000  H
  H13      1.0000 0.83510  0.42530  0.52490  Biso   1.000  H
  H14      1.0000 0.66490  0.92530  0.97510  Biso   1.000  H
  H15      1.0000 0.16490  0.57470  0.47510  Biso   1.000  H
  H16      1.0000 0.33510  0.07470  0.02490  Biso   1.000  H
  C13      1.0000 0.89970  0.62240  0.61229  Biso   1.000  C
  C14      1.0000 0.60030  0.12240  0.88771  Biso   1.000  C
  C15      1.0000 0.10030  0.37760  0.38771  Biso   1.000  C
  C16      1.0000 0.39970  0.87760  0.11229  Biso   1.000  C
  H17      1.0000 0.97400  0.55660  0.65690  Biso   1.000  H
  H18      1.0000 0.52600  0.05660  0.84310  Biso   1.000  H
  H19      1.0000 0.02600  0.44340  0.34310  Biso   1.000  H
  H20      1.0000 0.47400  0.94340  0.15690  Biso   1.000  H
  H21      1.0000 0.95040  0.68020  0.57260  Biso   1.000  H
  H22      1.0000 0.54960  0.18020  0.92740  Biso   1.000  H
  H23      1.0000 0.04960  0.31980  0.42740  Biso   1.000  H
  H24      1.0000 0.45040  0.81980  0.07260  Biso   1.000  H
  C17      1.0000 0.83660  0.74680  0.66538  Biso   1.000  C
  C18      1.0000 0.66340  0.24680  0.83462  Biso   1.000  C
  C19      1.0000 0.16340  0.25320  0.33462  Biso   1.000  C
  C20      1.0000 0.33660  0.75320  0.16538  Biso   1.000  C
  H25      1.0000 0.79910  0.68960  0.71180  Biso   1.000  H
  H26      1.0000 0.70090  0.18960  0.78820  Biso   1.000  H
  H27      1.0000 0.20090  0.31040  0.28820  Biso   1.000  H
  H28      1.0000 0.29910  0.81040  0.21180  Biso   1.000  H
  H29      1.0000 0.91670  0.81960  0.69900  Biso   1.000  H
  H30      1.0000 0.58330  0.31960  0.80100  Biso   1.000  H
  H31      1.0000 0.08330  0.18040  0.30100  Biso   1.000  H
  H32      1.0000 0.41670  0.68040  0.19900  Biso   1.000  H
  C21      1.0000 0.71390  0.84840  0.60538  Biso   1.000  C
  C22      1.0000 0.78610  0.34840  0.89462  Biso   1.000  C
  C23      1.0000 0.28610  0.15160  0.39462  Biso   1.000  C
  C24      1.0000 0.21390  0.65160  0.10538  Biso   1.000  C
  C25      1.0000 0.19520  0.05760  0.65288  Biso   1.000  C
  C26      1.0000 0.30480  0.55760  0.84712  Biso   1.000  C
  C27      1.0000 0.80480  0.94240  0.34712  Biso   1.000  C
  C28      1.0000 0.69520  0.44240  0.15288  Biso   1.000  C
  H33      1.0000 0.15300  0.09840  0.59240  Biso   1.000  H
  H34      1.0000 0.34700  0.59840  0.90760  Biso   1.000  H
  H35      1.0000 0.84700  0.90160  0.40760  Biso   1.000  H
  H36      1.0000 0.65300  0.40160  0.09240  Biso   1.000  H
  C29      1.0000 0.17950  0.02570  0.80898  Biso   1.000  C
  C30      1.0000 0.32050  0.52570  0.69102  Biso   1.000  C
  C31      1.0000 0.82050  0.97430  0.19102  Biso   1.000  C
  C32      1.0000 0.67950  0.47430  0.30898  Biso   1.000  C
  H37      1.0000 0.27520  0.97390  0.81660  Biso   1.000  H
  H38      1.0000 0.22480  0.47390  0.68340  Biso   1.000  H
  H39      1.0000 0.72480  0.02610  0.18340  Biso   1.000  H
  H40      1.0000 0.77520  0.52610  0.31660  Biso   1.000  H
  H41      1.0000 0.11140  0.94770  0.82360  Biso   1.000  H
  H42      1.0000 0.38860  0.44770  0.67640  Biso   1.000  H
  H43      1.0000 0.88860  0.05230  0.17640  Biso   1.000  H
  H44      1.0000 0.61140  0.55230  0.32360  Biso   1.000  H
  H45      1.0000 0.19110  0.11870  0.85060  Biso   1.000  H
  H46      1.0000 0.30890  0.61870  0.64940  Biso   1.000  H
  H47      1.0000 0.80890  0.88130  0.14940  Biso   1.000  H
  H48      1.0000 0.69110  0.38130  0.35060  Biso   1.000  H
  C33      1.0000 0.98510  0.17240  0.69183  Biso   1.000  C
  C34      1.0000 0.51490  0.67240  0.80817  Biso   1.000  C
  C35      1.0000 0.01490  0.82760  0.30817  Biso   1.000  C
  C36      1.0000 0.48510  0.32760  0.19183  Biso   1.000  C
  H49      1.0000 0.95640  0.19980  0.62610  Biso   1.000  H
  H50      1.0000 0.54360  0.69980  0.87390  Biso   1.000  H
  H51      1.0000 0.04360  0.80020  0.37390  Biso   1.000  H
  H52      1.0000 0.45640  0.30020  0.12610  Biso   1.000  H
  H53      1.0000 0.99970  0.27200  0.72850  Biso   1.000  H
  H54      1.0000 0.50030  0.77200  0.77150  Biso   1.000  H
  H55      1.0000 0.00030  0.72800  0.27150  Biso   1.000  H
  H56      1.0000 0.49970  0.22800  0.22850  Biso   1.000  H
  H57      1.0000 0.90750  0.10740  0.70580  Biso   1.000  H
  H58      1.0000 0.59250  0.60740  0.79420  Biso   1.000  H
  H59      1.0000 0.09250  0.89260  0.29420  Biso   1.000  H
  H60      1.0000 0.40750  0.39260  0.20580  Biso   1.000  H
