data_image0
_cell_length_a       12.8829
_cell_length_b       14.1565
_cell_length_c       18.6819
_cell_angle_alpha    104.822
_cell_angle_beta     98.409
_cell_angle_gamma    113.367

_symmetry_space_group_name_H-M    "P 1"
_symmetry_int_tables_number       1

loop_
  _symmetry_equiv_pos_as_xyz
  'x, y, z'

loop_
  _atom_site_label
  _atom_site_occupancy
  _atom_site_fract_x
  _atom_site_fract_y
  _atom_site_fract_z
  _atom_site_thermal_displace_type
  _atom_site_B_iso_or_equiv
  _atom_site_type_symbol
  Cu1      1.0000 0.05740  0.11010  0.03205  Biso   1.000  Cu
  Cu2      1.0000 0.94260  0.88990  0.96795  Biso   1.000  Cu
  O1       1.0000 0.54290  0.35780  0.45245  Biso   1.000  O
  O2       1.0000 0.45710  0.64220  0.54755  Biso   1.000  O
  N1       1.0000 0.14820  0.28690  0.07330  Biso   1.000  N
  N2       1.0000 0.85180  0.71310  0.92670  Biso   1.000  N
  C1       1.0000 0.14220  0.36320  0.12960  Biso   1.000  C
  C2       1.0000 0.85780  0.63680  0.87040  Biso   1.000  C
  O3       1.0000 0.97540  0.62580  0.12550  Biso   1.000  O
  O4       1.0000 0.02460  0.37420  0.87450  Biso   1.000  O
  N3       1.0000 0.10680  0.69610  0.06120  Biso   1.000  N
  N4       1.0000 0.89320  0.30390  0.93880  Biso   1.000  N
  C3       1.0000 0.13150  0.69050  0.98680  Biso   1.000  C
  C4       1.0000 0.86850  0.30950  0.01320  Biso   1.000  C
  H1       1.0000 0.06680  0.62600  0.94620  Biso   1.000  H
  H2       1.0000 0.93320  0.37400  0.05380  Biso   1.000  H
  H3       1.0000 0.20500  0.68480  0.98810  Biso   1.000  H
  H4       1.0000 0.79500  0.31520  0.01190  Biso   1.000  H
  H5       1.0000 0.13910  0.75680  0.97620  Biso   1.000  H
  H6       1.0000 0.86090  0.24320  0.02380  Biso   1.000  H
  O5       1.0000 0.31540  0.28640  0.91200  Biso   1.000  O
  O6       1.0000 0.68460  0.71360  0.08800  Biso   1.000  O
  N5       1.0000 0.29560  0.14870  0.80760  Biso   1.000  N
  N6       1.0000 0.70440  0.85130  0.19240  Biso   1.000  N
  C5       1.0000 0.40020  0.21300  0.78920  Biso   1.000  C
  C6       1.0000 0.59980  0.78700  0.21080  Biso   1.000  C
  H7       1.0000 0.42850  0.29090  0.81810  Biso   1.000  H
  H8       1.0000 0.57150  0.70910  0.18190  Biso   1.000  H
  H9       1.0000 0.38170  0.20050  0.73380  Biso   1.000  H
  H10      1.0000 0.61830  0.79950  0.26620  Biso   1.000  H
  H11      1.0000 0.46140  0.19110  0.80320  Biso   1.000  H
  H12      1.0000 0.53860  0.80890  0.19680  Biso   1.000  H
  O7       1.0000 0.80380  0.35730  0.18530  Biso   1.000  O
  O8       1.0000 0.19620  0.64270  0.81470  Biso   1.000  O
  N7       1.0000 0.73230  0.48030  0.21510  Biso   1.000  N
  N8       1.0000 0.26770  0.51970  0.78490  Biso   1.000  N
  C7       1.0000 0.72810  0.57770  0.20880  Biso   1.000  C
  C8       1.0000 0.27190  0.42230  0.79120  Biso   1.000  C
  H13      1.0000 0.78490  0.61050  0.18190  Biso   1.000  H
  H14      1.0000 0.21510  0.38950  0.81810  Biso   1.000  H
  H15      1.0000 0.74790  0.63030  0.26050  Biso   1.000  H
  H16      1.0000 0.25210  0.36970  0.73950  Biso   1.000  H
  H17      1.0000 0.64870  0.55900  0.17970  Biso   1.000  H
  H18      1.0000 0.35130  0.44100  0.82030  Biso   1.000  H
  O9       1.0000 0.78050  0.28720  0.48160  Biso   1.000  O
  O10      1.0000 0.21950  0.71280  0.51840  Biso   1.000  O
  N9       1.0000 0.84690  0.33250  0.38200  Biso   1.000  N
  N10      1.0000 0.15310  0.66750  0.61800  Biso   1.000  N
  C9       1.0000 0.90420  0.31050  0.32710  Biso   1.000  C
  C10      1.0000 0.09580  0.68950  0.67290  Biso   1.000  C
  H19      1.0000 0.89940  0.23750  0.31880  Biso   1.000  H
  H20      1.0000 0.10060  0.76250  0.68120  Biso   1.000  H
  H21      1.0000 0.98700  0.36560  0.34540  Biso   1.000  H
  H22      1.0000 0.01300  0.63440  0.65460  Biso   1.000  H
  H23      1.0000 0.86660  0.31300  0.27860  Biso   1.000  H
  H24      1.0000 0.13340  0.68700  0.72140  Biso   1.000  H
  O11      1.0000 0.33530  0.99630  0.61380  Biso   1.000  O
  O12      1.0000 0.66470  0.00370  0.38620  Biso   1.000  O
  N11      1.0000 0.44620  0.08550  0.56330  Biso   1.000  N
  N12      1.0000 0.55380  0.91450  0.43670  Biso   1.000  N
  C11      1.0000 0.54790  0.11800  0.62320  Biso   1.000  C
  C12      1.0000 0.45210  0.88200  0.37680  Biso   1.000  C
  H25      1.0000 0.52590  0.07900  0.65920  Biso   1.000  H
  H26      1.0000 0.47410  0.92100  0.34080  Biso   1.000  H
  H27      1.0000 0.58290  0.19720  0.65070  Biso   1.000  H
  H28      1.0000 0.41710  0.80280  0.34930  Biso   1.000  H
  H29      1.0000 0.60520  0.10030  0.60110  Biso   1.000  H
  H30      1.0000 0.39480  0.89970  0.39890  Biso   1.000  H
  O13      1.0000 0.41290  0.38540  0.55404  Biso   1.000  O
  O14      1.0000 0.58710  0.61460  0.44596  Biso   1.000  O
  Cu3      1.0000 0.57013  0.47693  0.54555  Biso   1.000  Cu
  Cu4      1.0000 0.42987  0.52307  0.45445  Biso   1.000  Cu
  N13      1.0000 0.21760  0.34260  0.03520  Biso   1.000  N
  N14      1.0000 0.78240  0.65740  0.96480  Biso   1.000  N
  H31      1.0000 0.23510  0.31120  0.99480  Biso   1.000  H
  H32      1.0000 0.76490  0.68880  0.00520  Biso   1.000  H
  C13      1.0000 0.20850  0.46760  0.12680  Biso   1.000  C
  C14      1.0000 0.79150  0.53240  0.87320  Biso   1.000  C
  C15      1.0000 0.19120  0.78790  0.12790  Biso   1.000  C
  C16      1.0000 0.80880  0.21210  0.87210  Biso   1.000  C
  H33      1.0000 0.16610  0.78090  0.17410  Biso   1.000  H
  H34      1.0000 0.83390  0.21910  0.82590  Biso   1.000  H
  H35      1.0000 0.19630  0.85620  0.12170  Biso   1.000  H
  H36      1.0000 0.80370  0.14380  0.87830  Biso   1.000  H
  H37      1.0000 0.26860  0.78910  0.13320  Biso   1.000  H
  H38      1.0000 0.73140  0.21090  0.86680  Biso   1.000  H
  C17      1.0000 0.23240  0.03160  0.76250  Biso   1.000  C
  C18      1.0000 0.76760  0.96840  0.23750  Biso   1.000  C
  H39      1.0000 0.15740  0.99920  0.77470  Biso   1.000  H
  H40      1.0000 0.84260  0.00080  0.22530  Biso   1.000  H
  H41      1.0000 0.28020  0.99570  0.77510  Biso   1.000  H
  H42      1.0000 0.71980  0.00430  0.22490  Biso   1.000  H
  H43      1.0000 0.21710  0.02140  0.70740  Biso   1.000  H
  H44      1.0000 0.78290  0.97860  0.29260  Biso   1.000  H
  C19      1.0000 0.65700  0.42520  0.25630  Biso   1.000  C
  C20      1.0000 0.34300  0.57480  0.74370  Biso   1.000  C
  H45      1.0000 0.66940  0.36230  0.25950  Biso   1.000  H
  H46      1.0000 0.33060  0.63770  0.74050  Biso   1.000  H
  H47      1.0000 0.57460  0.39970  0.22900  Biso   1.000  H
  H48      1.0000 0.42540  0.60030  0.77100  Biso   1.000  H
  H49      1.0000 0.67560  0.47610  0.30840  Biso   1.000  H
  H50      1.0000 0.32440  0.52390  0.69160  Biso   1.000  H
  C21      1.0000 0.83070  0.42880  0.40160  Biso   1.000  C
  C22      1.0000 0.16930  0.57120  0.59840  Biso   1.000  C
  H51      1.0000 0.74970  0.40920  0.40400  Biso   1.000  H
  H52      1.0000 0.25030  0.59080  0.59600  Biso   1.000  H
  H53      1.0000 0.84580  0.46310  0.36230  Biso   1.000  H
  H54      1.0000 0.15420  0.53690  0.63770  Biso   1.000  H
  H55      1.0000 0.88550  0.48040  0.45190  Biso   1.000  H
  H56      1.0000 0.11450  0.51960  0.54810  Biso   1.000  H
  C23      1.0000 0.45600  0.13880  0.50370  Biso   1.000  C
  C24      1.0000 0.54400  0.86120  0.49630  Biso   1.000  C
  H57      1.0000 0.38020  0.10320  0.46430  Biso   1.000  H
  H58      1.0000 0.61980  0.89680  0.53570  Biso   1.000  H
  H59      1.0000 0.51650  0.13160  0.47960  Biso   1.000  H
  H60      1.0000 0.48350  0.86840  0.52040  Biso   1.000  H
  H61      1.0000 0.47790  0.21660  0.52800  Biso   1.000  H
  H62      1.0000 0.52210  0.78340  0.47200  Biso   1.000  H
  O15      1.0000 0.29360  0.42490  0.47987  Biso   1.000  O
  O16      1.0000 0.70640  0.57510  0.52013  Biso   1.000  O
  O17      1.0000 0.41960  0.39240  0.37783  Biso   1.000  O
  O18      1.0000 0.58040  0.60760  0.62217  Biso   1.000  O
  O19      1.0000 0.90160  0.09050  0.04404  Biso   1.000  O
  O20      1.0000 0.09840  0.90950  0.95596  Biso   1.000  O
  O21      1.0000 0.00730  0.09640  0.92341  Biso   1.000  O
  O22      1.0000 0.99270  0.90360  0.07659  Biso   1.000  O
  C25      1.0000 0.25620  0.45130  0.06630  Biso   1.000  C
  C26      1.0000 0.74380  0.54870  0.93370  Biso   1.000  C
  C27      1.0000 0.00720  0.62670  0.06630  Biso   1.000  C
  C28      1.0000 0.99280  0.37330  0.93370  Biso   1.000  C
  H63      1.0000 0.95340  0.57110  0.01950  Biso   1.000  H
  H64      1.0000 0.04660  0.42890  0.98050  Biso   1.000  H
  C29      1.0000 0.26310  0.18950  0.86870  Biso   1.000  C
  C30      1.0000 0.73690  0.81050  0.13130  Biso   1.000  C
  H65      1.0000 0.19610  0.14120  0.87920  Biso   1.000  H
  H66      1.0000 0.80390  0.85880  0.12080  Biso   1.000  H
  C31      1.0000 0.79730  0.44110  0.18290  Biso   1.000  C
  C32      1.0000 0.20270  0.55890  0.81710  Biso   1.000  C
  H67      1.0000 0.84320  0.48060  0.15520  Biso   1.000  H
  H68      1.0000 0.15680  0.51940  0.84480  Biso   1.000  H
  C33      1.0000 0.82000  0.27140  0.42740  Biso   1.000  C
  C34      1.0000 0.18000  0.72860  0.57260  Biso   1.000  C
  H69      1.0000 0.83370  0.20870  0.41540  Biso   1.000  H
  H70      1.0000 0.16630  0.79130  0.58460  Biso   1.000  H
  C35      1.0000 0.34010  0.01670  0.56350  Biso   1.000  C
  C36      1.0000 0.65990  0.98330  0.43650  Biso   1.000  C
  H71      1.0000 0.27280  0.98770  0.52090  Biso   1.000  H
  H72      1.0000 0.72720  0.01230  0.47910  Biso   1.000  H
  N15      1.0000 0.34160  0.56920  0.37370  Biso   1.000  N
  N16      1.0000 0.65840  0.43080  0.62630  Biso   1.000  N
  O23      1.0000 0.80440  0.90670  0.98934  Biso   1.000  O
  O24      1.0000 0.19560  0.09330  0.01066  Biso   1.000  O
  O25      1.0000 0.91040  0.91210  0.86838  Biso   1.000  O
  O26      1.0000 0.08960  0.08790  0.13162  Biso   1.000  O
  C37      1.0000 0.34380  0.56140  0.30150  Biso   1.000  C
  C38      1.0000 0.65620  0.43860  0.69850  Biso   1.000  C
  N17      1.0000 0.25570  0.59950  0.38390  Biso   1.000  N
  N18      1.0000 0.74430  0.40050  0.61610  Biso   1.000  N
  H73      1.0000 0.23540  0.61060  0.42710  Biso   1.000  H
  H74      1.0000 0.76460  0.38940  0.57290  Biso   1.000  H
  O27      1.0000 0.42080  0.99490  0.12923  Biso   1.000  O
  O28      1.0000 0.57920  0.00510  0.87077  Biso   1.000  O
  O29      1.0000 0.92170  0.05710  0.57323  Biso   1.000  O
  O30      1.0000 0.07830  0.94290  0.42677  Biso   1.000  O
  C39      1.0000 0.25850  0.58560  0.26540  Biso   1.000  C
  C40      1.0000 0.74150  0.41440  0.73460  Biso   1.000  C
  C41      1.0000 0.20500  0.61090  0.32020  Biso   1.000  C
  C42      1.0000 0.79500  0.38910  0.67980  Biso   1.000  C
  C43      1.0000 0.22730  0.57590  0.18240  Biso   1.000  C
  C44      1.0000 0.77270  0.42410  0.81760  Biso   1.000  C
  H75      1.0000 0.29120  0.63650  0.17430  Biso   1.000  H
  H76      1.0000 0.70880  0.36350  0.82570  Biso   1.000  H
  H77      1.0000 0.15460  0.58410  0.17060  Biso   1.000  H
  H78      1.0000 0.84540  0.41590  0.82940  Biso   1.000  H
  C45      1.0000 0.07250  0.32990  0.18410  Biso   1.000  C
  C46      1.0000 0.92750  0.67010  0.81590  Biso   1.000  C
  H79      1.0000 0.02900  0.24980  0.16640  Biso   1.000  H
  H80      1.0000 0.97100  0.75020  0.83360  Biso   1.000  H
  H81      1.0000 0.01680  0.36110  0.18570  Biso   1.000  H
  H82      1.0000 0.98320  0.63890  0.81430  Biso   1.000  H
  H83      1.0000 0.12590  0.35710  0.23580  Biso   1.000  H
  H84      1.0000 0.87410  0.64290  0.76420  Biso   1.000  H
  C47      1.0000 0.33410  0.52950  0.03340  Biso   1.000  C
  C48      1.0000 0.66590  0.47050  0.96660  Biso   1.000  C
  H85      1.0000 0.40180  0.51540  0.02870  Biso   1.000  H
  H86      1.0000 0.59820  0.48460  0.97130  Biso   1.000  H
  H87      1.0000 0.36180  0.60500  0.06770  Biso   1.000  H
  H88      1.0000 0.63820  0.39500  0.93230  Biso   1.000  H
  H89      1.0000 0.28940  0.51910  0.98250  Biso   1.000  H
  H90      1.0000 0.71060  0.48090  0.01750  Biso   1.000  H
  C49      1.0000 0.42840  0.53030  0.26750  Biso   1.000  C
  C50      1.0000 0.57160  0.46970  0.73250  Biso   1.000  C
  H91      1.0000 0.49610  0.54710  0.30890  Biso   1.000  H
  H92      1.0000 0.50390  0.45290  0.69110  Biso   1.000  H
  H93      1.0000 0.45540  0.57170  0.23350  Biso   1.000  H
  H94      1.0000 0.54460  0.42830  0.76650  Biso   1.000  H
  H95      1.0000 0.38940  0.45160  0.23770  Biso   1.000  H
  H96      1.0000 0.61060  0.54840  0.76230  Biso   1.000  H
  C51      1.0000 0.11070  0.64700  0.31890  Biso   1.000  C
  C52      1.0000 0.88930  0.35300  0.68110  Biso   1.000  C
  H97      1.0000 0.06240  0.61840  0.35150  Biso   1.000  H
  H98      1.0000 0.93760  0.38160  0.64850  Biso   1.000  H
  H99      1.0000 0.06100  0.61910  0.26590  Biso   1.000  H
  H100     1.0000 0.93900  0.38090  0.73410  Biso   1.000  H
  H101     1.0000 0.14670  0.72730  0.33840  Biso   1.000  H
  H102     1.0000 0.85330  0.27270  0.66160  Biso   1.000  H
  C53      1.0000 0.45780  0.24500  0.32100  Biso   1.000  C
  C54      1.0000 0.54220  0.75500  0.67900  Biso   1.000  C
  C55      1.0000 0.21000  0.29250  0.53820  Biso   1.000  C
  C56      1.0000 0.79000  0.70750  0.46180  Biso   1.000  C
  C57      1.0000 0.51950  0.18530  0.32830  Biso   1.000  C
  C58      1.0000 0.48050  0.81470  0.67170  Biso   1.000  C
  H103     1.0000 0.56970  0.20170  0.37710  Biso   1.000  H
  H104     1.0000 0.43030  0.79830  0.62290  Biso   1.000  H
  C59      1.0000 0.22520  0.22570  0.57740  Biso   1.000  C
  C60      1.0000 0.77480  0.77430  0.42260  Biso   1.000  C
  H105     1.0000 0.30210  0.23390  0.59590  Biso   1.000  H
  H106     1.0000 0.69790  0.76610  0.40410  Biso   1.000  H
  C61      1.0000 0.50830  0.10180  0.26470  Biso   1.000  C
  C62      1.0000 0.49170  0.89820  0.73530  Biso   1.000  C
  H107     1.0000 0.55040  0.06080  0.26980  Biso   1.000  H
  H108     1.0000 0.44960  0.93920  0.73020  Biso   1.000  H
  C63      1.0000 0.13140  0.14790  0.58990  Biso   1.000  C
  C64      1.0000 0.86860  0.85210  0.41010  Biso   1.000  C
  H109     1.0000 0.14300  0.10240  0.61650  Biso   1.000  H
  H110     1.0000 0.85700  0.89760  0.38350  Biso   1.000  H
  C65      1.0000 0.43560  0.07890  0.19430  Biso   1.000  C
  C66      1.0000 0.56440  0.92110  0.80570  Biso   1.000  C
  C67      1.0000 0.02040  0.13690  0.56350  Biso   1.000  C
  C68      1.0000 0.97960  0.86310  0.43650  Biso   1.000  C
  C69      1.0000 0.37220  0.13760  0.18620  Biso   1.000  C
  C70      1.0000 0.62780  0.86240  0.81380  Biso   1.000  C
  H111     1.0000 0.32200  0.12130  0.13740  Biso   1.000  H
  H112     1.0000 0.67800  0.87870  0.86260  Biso   1.000  H
  C71      1.0000 0.00200  0.20070  0.52410  Biso   1.000  C
  C72      1.0000 0.99800  0.79930  0.47590  Biso   1.000  C
  H113     1.0000 0.92480  0.19210  0.50610  Biso   1.000  H
  H114     1.0000 0.07520  0.80790  0.49390  Biso   1.000  H
  C73      1.0000 0.38340  0.21990  0.25010  Biso   1.000  C
  C74      1.0000 0.61660  0.78010  0.74990  Biso   1.000  C
  H115     1.0000 0.33980  0.25960  0.24530  Biso   1.000  H
  H116     1.0000 0.66020  0.74040  0.75470  Biso   1.000  H
  C75      1.0000 0.09690  0.27790  0.51070  Biso   1.000  C
  C76      1.0000 0.90310  0.72210  0.48930  Biso   1.000  C
  H117     1.0000 0.08420  0.32130  0.48250  Biso   1.000  H
  H118     1.0000 0.91580  0.67870  0.51750  Biso   1.000  H
  C77      1.0000 0.70810  0.00060  0.05050  Biso   1.000  C
  C78      1.0000 0.29190  0.99940  0.94950  Biso   1.000  C
  C79      1.0000 0.94030  0.02000  0.78800  Biso   1.000  C
  C80      1.0000 0.05970  0.98000  0.21200  Biso   1.000  C
  C81      1.0000 0.71390  0.09760  0.09790  Biso   1.000  C
  C82      1.0000 0.28610  0.90240  0.90210  Biso   1.000  C
  H119     1.0000 0.78390  0.16430  0.11170  Biso   1.000  H
  H120     1.0000 0.21610  0.83570  0.88830  Biso   1.000  H
  C83      1.0000 0.88770  0.92870  0.72040  Biso   1.000  C
  C84      1.0000 0.11230  0.07130  0.27960  Biso   1.000  C
  H121     1.0000 0.85450  0.85710  0.72320  Biso   1.000  H
  H122     1.0000 0.14550  0.14290  0.27680  Biso   1.000  H
  C85      1.0000 0.62060  0.09850  0.12500  Biso   1.000  C
  C86      1.0000 0.37940  0.90150  0.87500  Biso   1.000  C
  H123     1.0000 0.62610  0.16520  0.15710  Biso   1.000  H
  H124     1.0000 0.37390  0.83480  0.84290  Biso   1.000  H
  C87      1.0000 0.88350  0.94200  0.64920  Biso   1.000  C
  C88      1.0000 0.11650  0.05800  0.35080  Biso   1.000  C
  H125     1.0000 0.84810  0.87980  0.60310  Biso   1.000  H
  H126     1.0000 0.15190  0.12020  0.39690  Biso   1.000  H
  C89      1.0000 0.51860  0.00150  0.10530  Biso   1.000  C
  C90      1.0000 0.48140  0.99850  0.89470  Biso   1.000  C
  C91      1.0000 0.93160  0.04660  0.64620  Biso   1.000  C
  C92      1.0000 0.06840  0.95340  0.35380  Biso   1.000  C
  C93      1.0000 0.50890  0.90380  0.05650  Biso   1.000  C
  C94      1.0000 0.49110  0.09620  0.94350  Biso   1.000  C
  H127     1.0000 0.43810  0.83770  0.04220  Biso   1.000  H
  H128     1.0000 0.56190  0.16230  0.95780  Biso   1.000  H
  C95      1.0000 0.98210  0.13830  0.71230  Biso   1.000  C
  C96      1.0000 0.01790  0.86170  0.28770  Biso   1.000  C
  H129     1.0000 0.01330  0.20980  0.70930  Biso   1.000  H
  H130     1.0000 0.98670  0.79020  0.29070  Biso   1.000  H
  C97      1.0000 0.60280  0.90360  0.02930  Biso   1.000  C
  C98      1.0000 0.39720  0.09640  0.97070  Biso   1.000  C
  H131     1.0000 0.59610  0.83720  0.99580  Biso   1.000  H
  H132     1.0000 0.40390  0.16280  0.00420  Biso   1.000  H
  C99      1.0000 0.98610  0.12390  0.78240  Biso   1.000  C
  C100     1.0000 0.01390  0.87610  0.21760  Biso   1.000  C
  H133     1.0000 0.02110  0.18640  0.82820  Biso   1.000  H
  H134     1.0000 0.97890  0.81360  0.17180  Biso   1.000  H
  C101     1.0000 0.47520  0.33830  0.38910  Biso   1.000  C
  C102     1.0000 0.52480  0.66170  0.61090  Biso   1.000  C
  C103     1.0000 0.31320  0.37480  0.52290  Biso   1.000  C
  C104     1.0000 0.68680  0.62520  0.47710  Biso   1.000  C
  C105     1.0000 0.95260  0.00800  0.86560  Biso   1.000  C
  C106     1.0000 0.04740  0.99200  0.13440  Biso   1.000  C
  C107     1.0000 0.81250  0.99940  0.02600  Biso   1.000  C
  C108     1.0000 0.18750  0.00060  0.97400  Biso   1.000  C
  C109     1.0000 0.98770  0.43580  0.38430  Biso   1.000  C
  C110     1.0000 0.01230  0.56420  0.61570  Biso   1.000  C
  C111     1.0000 0.48480  0.15980  0.53920  Biso   1.000  C
  C112     1.0000 0.51520  0.84020  0.46080  Biso   1.000  C
  C113     1.0000 0.85850  0.23530  0.33180  Biso   1.000  C
  C114     1.0000 0.14150  0.76470  0.66820  Biso   1.000  C
  C115     1.0000 0.36390  0.99690  0.42100  Biso   1.000  C
  C116     1.0000 0.63610  0.00310  0.57900  Biso   1.000  C
  C117     1.0000 0.84400  0.34990  0.45000  Biso   1.000  C
  C118     1.0000 0.15600  0.65010  0.55000  Biso   1.000  C
  C119     1.0000 0.33680  0.98260  0.54200  Biso   1.000  C
  C120     1.0000 0.66320  0.01740  0.45800  Biso   1.000  C
  H135     1.0000 0.06440  0.43630  0.39780  Biso   1.000  H
  H136     1.0000 0.93560  0.56370  0.60220  Biso   1.000  H
  H137     1.0000 0.96870  0.43310  0.33090  Biso   1.000  H
  H138     1.0000 0.03130  0.56690  0.66910  Biso   1.000  H
  H139     1.0000 0.99070  0.50240  0.41880  Biso   1.000  H
  H140     1.0000 0.00930  0.49760  0.58120  Biso   1.000  H
  H141     1.0000 0.52470  0.17790  0.59320  Biso   1.000  H
  H142     1.0000 0.47530  0.82210  0.40680  Biso   1.000  H
  H143     1.0000 0.44820  0.20800  0.53590  Biso   1.000  H
  H144     1.0000 0.55180  0.79200  0.46410  Biso   1.000  H
  H145     1.0000 0.54230  0.17010  0.50920  Biso   1.000  H
  H146     1.0000 0.45770  0.82990  0.49080  Biso   1.000  H
  H147     1.0000 0.82660  0.23910  0.28230  Biso   1.000  H
  H148     1.0000 0.17340  0.76090  0.71770  Biso   1.000  H
  H149     1.0000 0.92530  0.21900  0.32930  Biso   1.000  H
  H150     1.0000 0.07470  0.78100  0.67070  Biso   1.000  H
  H151     1.0000 0.79730  0.17730  0.34290  Biso   1.000  H
  H152     1.0000 0.20270  0.82270  0.65710  Biso   1.000  H
  H153     1.0000 0.30350  0.92040  0.40360  Biso   1.000  H
  H154     1.0000 0.69650  0.07960  0.59640  Biso   1.000  H
  H155     1.0000 0.43440  0.99960  0.40580  Biso   1.000  H
  H156     1.0000 0.56560  0.00040  0.59420  Biso   1.000  H
  H157     1.0000 0.33380  0.03850  0.39720  Biso   1.000  H
  H158     1.0000 0.66620  0.96150  0.60280  Biso   1.000  H
  H159     1.0000 0.77750  0.28570  0.44660  Biso   1.000  H
  H160     1.0000 0.22250  0.71430  0.55340  Biso   1.000  H
  H161     1.0000 0.26070  0.94390  0.50630  Biso   1.000  H
  H162     1.0000 0.73930  0.05610  0.49370  Biso   1.000  H
  N19      1.0000 0.89760  0.33990  0.39250  Biso   1.000  N
  N20      1.0000 0.10240  0.66010  0.60750  Biso   1.000  N
  N21      1.0000 0.39500  0.04670  0.50860  Biso   1.000  N
  N22      1.0000 0.60500  0.95330  0.49140  Biso   1.000  N
  O31      1.0000 0.86980  0.42600  0.50100  Biso   1.000  O
  O32      1.0000 0.13020  0.57400  0.49900  Biso   1.000  O
  O33      1.0000 0.32110  0.94100  0.59360  Biso   1.000  O
  O34      1.0000 0.67890  0.05900  0.40640  Biso   1.000  O
