data_image0
_cell_length_a       24.573
_cell_length_b       9.3013
_cell_length_c       21.788
_cell_angle_alpha    90
_cell_angle_beta     110.754
_cell_angle_gamma    90

_symmetry_space_group_name_H-M    "P 1"
_symmetry_int_tables_number       1

loop_
  _symmetry_equiv_pos_as_xyz
  'x, y, z'

loop_
  _atom_site_label
  _atom_site_occupancy
  _atom_site_fract_x
  _atom_site_fract_y
  _atom_site_fract_z
  _atom_site_thermal_displace_type
  _atom_site_B_iso_or_equiv
  _atom_site_type_symbol
  Cu1      1.0000 0.16295  0.30295  0.02881  Biso   1.000  Cu
  Cu2      1.0000 0.83705  0.30295  0.47119  Biso   1.000  Cu
  Cu3      1.0000 0.66295  0.80295  0.02881  Biso   1.000  Cu
  Cu4      1.0000 0.33705  0.80295  0.47119  Biso   1.000  Cu
  Cu5      1.0000 0.83705  0.69705  0.97119  Biso   1.000  Cu
  Cu6      1.0000 0.16295  0.69705  0.52881  Biso   1.000  Cu
  Cu7      1.0000 0.33705  0.19705  0.97119  Biso   1.000  Cu
  Cu8      1.0000 0.66295  0.19705  0.52881  Biso   1.000  Cu
  O1       1.0000 0.22173  0.33332  0.11702  Biso   1.000  O
  O2       1.0000 0.77827  0.33332  0.38298  Biso   1.000  O
  O3       1.0000 0.72173  0.83332  0.11702  Biso   1.000  O
  O4       1.0000 0.27827  0.83332  0.38298  Biso   1.000  O
  O5       1.0000 0.77827  0.66668  0.88298  Biso   1.000  O
  O6       1.0000 0.22173  0.66668  0.61702  Biso   1.000  O
  O7       1.0000 0.27827  0.16668  0.88298  Biso   1.000  O
  O8       1.0000 0.72173  0.16668  0.61702  Biso   1.000  O
  N1       1.0000 0.14457  0.51087  0.02120  Biso   1.000  N
  N2       1.0000 0.85543  0.51087  0.47880  Biso   1.000  N
  N3       1.0000 0.64457  0.01087  0.02120  Biso   1.000  N
  N4       1.0000 0.35543  0.01087  0.47880  Biso   1.000  N
  N5       1.0000 0.85543  0.48913  0.97880  Biso   1.000  N
  N6       1.0000 0.14457  0.48913  0.52120  Biso   1.000  N
  N7       1.0000 0.35543  0.98913  0.97880  Biso   1.000  N
  N8       1.0000 0.64457  0.98913  0.52120  Biso   1.000  N
  C1       1.0000 0.10779  0.59650  0.97597  Biso   1.000  C
  C2       1.0000 0.89221  0.59650  0.52403  Biso   1.000  C
  C3       1.0000 0.60779  0.09650  0.97597  Biso   1.000  C
  C4       1.0000 0.39221  0.09650  0.52403  Biso   1.000  C
  C5       1.0000 0.89221  0.40350  0.02403  Biso   1.000  C
  C6       1.0000 0.10779  0.40350  0.47597  Biso   1.000  C
  C7       1.0000 0.39221  0.90350  0.02403  Biso   1.000  C
  C8       1.0000 0.60779  0.90350  0.47597  Biso   1.000  C
  N9       1.0000 0.16405  0.59008  0.07705  Biso   1.000  N
  N10      1.0000 0.83595  0.59008  0.42295  Biso   1.000  N
  N11      1.0000 0.66405  0.09008  0.07705  Biso   1.000  N
  N12      1.0000 0.33595  0.09008  0.42295  Biso   1.000  N
  N13      1.0000 0.83595  0.40992  0.92295  Biso   1.000  N
  N14      1.0000 0.16405  0.40992  0.57705  Biso   1.000  N
  N15      1.0000 0.33595  0.90992  0.92295  Biso   1.000  N
  N16      1.0000 0.66405  0.90992  0.57705  Biso   1.000  N
  H1       1.0000 0.18800  0.55880  0.11380  Biso   1.000  H
  H2       1.0000 0.81200  0.55880  0.38620  Biso   1.000  H
  H3       1.0000 0.68800  0.05880  0.11380  Biso   1.000  H
  H4       1.0000 0.31200  0.05880  0.38620  Biso   1.000  H
  H5       1.0000 0.81200  0.44120  0.88620  Biso   1.000  H
  H6       1.0000 0.18800  0.44120  0.61380  Biso   1.000  H
  H7       1.0000 0.31200  0.94120  0.88620  Biso   1.000  H
  H8       1.0000 0.68800  0.94120  0.61380  Biso   1.000  H
  C9       1.0000 0.10430  0.73070  0.00379  Biso   1.000  C
  C10      1.0000 0.89570  0.73070  0.49621  Biso   1.000  C
  C11      1.0000 0.60430  0.23070  0.00379  Biso   1.000  C
  C12      1.0000 0.39570  0.23070  0.49621  Biso   1.000  C
  C13      1.0000 0.89570  0.26930  0.99621  Biso   1.000  C
  C14      1.0000 0.10430  0.26930  0.50379  Biso   1.000  C
  C15      1.0000 0.39570  0.76930  0.99621  Biso   1.000  C
  C16      1.0000 0.60430  0.76930  0.50379  Biso   1.000  C
  O9       1.0000 0.20512  0.17460  0.18359  Biso   1.000  O
  O10      1.0000 0.79488  0.17460  0.31641  Biso   1.000  O
  O11      1.0000 0.70512  0.67460  0.18359  Biso   1.000  O
  O12      1.0000 0.29488  0.67460  0.31641  Biso   1.000  O
  O13      1.0000 0.79488  0.82540  0.81641  Biso   1.000  O
  O14      1.0000 0.20512  0.82540  0.68359  Biso   1.000  O
  O15      1.0000 0.29488  0.32540  0.81641  Biso   1.000  O
  O16      1.0000 0.70512  0.32540  0.68359  Biso   1.000  O
  C17      1.0000 0.14133  0.72400  0.06802  Biso   1.000  C
  C18      1.0000 0.85867  0.72400  0.43198  Biso   1.000  C
  C19      1.0000 0.64133  0.22400  0.06802  Biso   1.000  C
  C20      1.0000 0.35867  0.22400  0.43198  Biso   1.000  C
  C21      1.0000 0.85867  0.27600  0.93198  Biso   1.000  C
  C22      1.0000 0.14133  0.27600  0.56802  Biso   1.000  C
  C23      1.0000 0.35867  0.77600  0.93198  Biso   1.000  C
  C24      1.0000 0.64133  0.77600  0.56802  Biso   1.000  C
  N17      1.0000 0.91469  0.76920  0.95261  Biso   1.000  N
  N18      1.0000 0.08531  0.76920  0.54739  Biso   1.000  N
  N19      1.0000 0.41469  0.26920  0.95261  Biso   1.000  N
  N20      1.0000 0.58531  0.26920  0.54739  Biso   1.000  N
  N21      1.0000 0.08531  0.23080  0.04739  Biso   1.000  N
  N22      1.0000 0.91469  0.23080  0.45261  Biso   1.000  N
  N23      1.0000 0.58531  0.73080  0.04739  Biso   1.000  N
  N24      1.0000 0.41469  0.73080  0.45261  Biso   1.000  N
  O17      1.0000 0.35073  0.25211  0.06559  Biso   1.000  O
  O18      1.0000 0.64927  0.25211  0.43441  Biso   1.000  O
  O19      1.0000 0.85073  0.75211  0.06559  Biso   1.000  O
  O20      1.0000 0.14927  0.75211  0.43441  Biso   1.000  O
  O21      1.0000 0.64927  0.74789  0.93441  Biso   1.000  O
  O22      1.0000 0.35073  0.74789  0.56559  Biso   1.000  O
  O23      1.0000 0.14927  0.24789  0.93441  Biso   1.000  O
  O24      1.0000 0.85073  0.24789  0.56559  Biso   1.000  O
  C25      1.0000 0.97100  0.78730  0.98862  Biso   1.000  C
  C26      1.0000 0.02900  0.78730  0.51138  Biso   1.000  C
  C27      1.0000 0.47100  0.28730  0.98862  Biso   1.000  C
  C28      1.0000 0.52900  0.28730  0.51138  Biso   1.000  C
  C29      1.0000 0.02900  0.21270  0.01138  Biso   1.000  C
  C30      1.0000 0.97100  0.21270  0.48862  Biso   1.000  C
  C31      1.0000 0.52900  0.71270  0.01138  Biso   1.000  C
  C32      1.0000 0.47100  0.71270  0.48862  Biso   1.000  C
  N25      1.0000 0.91022  0.79380  0.88997  Biso   1.000  N
  N26      1.0000 0.08978  0.79380  0.61003  Biso   1.000  N
  N27      1.0000 0.41022  0.29380  0.88997  Biso   1.000  N
  N28      1.0000 0.58978  0.29380  0.61003  Biso   1.000  N
  N29      1.0000 0.08978  0.20620  0.11003  Biso   1.000  N
  N30      1.0000 0.91022  0.20620  0.38997  Biso   1.000  N
  N31      1.0000 0.58978  0.70620  0.11003  Biso   1.000  N
  N32      1.0000 0.41022  0.70620  0.38997  Biso   1.000  N
  H9       1.0000 0.87820  0.78800  0.85680  Biso   1.000  H
  H10      1.0000 0.12180  0.78800  0.64320  Biso   1.000  H
  H11      1.0000 0.37820  0.28800  0.85680  Biso   1.000  H
  H12      1.0000 0.62180  0.28800  0.64320  Biso   1.000  H
  H13      1.0000 0.12180  0.21200  0.14320  Biso   1.000  H
  H14      1.0000 0.87820  0.21200  0.35680  Biso   1.000  H
  H15      1.0000 0.62180  0.71200  0.14320  Biso   1.000  H
  H16      1.0000 0.37820  0.71200  0.35680  Biso   1.000  H
  O25      1.0000 0.30807  0.39289  0.98396  Biso   1.000  O
  O26      1.0000 0.69193  0.39289  0.51604  Biso   1.000  O
  O27      1.0000 0.80807  0.89289  0.98396  Biso   1.000  O
  O28      1.0000 0.19193  0.89289  0.51604  Biso   1.000  O
  O29      1.0000 0.69193  0.60711  0.01604  Biso   1.000  O
  O30      1.0000 0.30807  0.60711  0.48396  Biso   1.000  O
  O31      1.0000 0.19193  0.10711  0.01604  Biso   1.000  O
  O32      1.0000 0.80807  0.10711  0.48396  Biso   1.000  O
  C33      1.0000 0.00258  0.82510  0.94830  Biso   1.000  C
  C34      1.0000 0.99742  0.82510  0.55170  Biso   1.000  C
  C35      1.0000 0.50258  0.32510  0.94830  Biso   1.000  C
  C36      1.0000 0.49742  0.32510  0.55170  Biso   1.000  C
  C37      1.0000 0.99742  0.17490  0.05170  Biso   1.000  C
  C38      1.0000 0.00258  0.17490  0.44830  Biso   1.000  C
  C39      1.0000 0.49742  0.67490  0.05170  Biso   1.000  C
  C40      1.0000 0.50258  0.67490  0.44830  Biso   1.000  C
  C41      1.0000 0.96206  0.82860  0.88573  Biso   1.000  C
  C42      1.0000 0.03794  0.82860  0.61427  Biso   1.000  C
  C43      1.0000 0.46206  0.32860  0.88573  Biso   1.000  C
  C44      1.0000 0.53794  0.32860  0.61427  Biso   1.000  C
  C45      1.0000 0.03794  0.17140  0.11427  Biso   1.000  C
  C46      1.0000 0.96206  0.17140  0.38573  Biso   1.000  C
  C47      1.0000 0.53794  0.67140  0.11427  Biso   1.000  C
  C48      1.0000 0.46206  0.67140  0.38573  Biso   1.000  C
  C49      1.0000 0.06660  0.85570  0.96960  Biso   1.000  C
  C50      1.0000 0.93340  0.85570  0.53040  Biso   1.000  C
  C51      1.0000 0.56660  0.35570  0.96960  Biso   1.000  C
  C52      1.0000 0.43340  0.35570  0.53040  Biso   1.000  C
  C53      1.0000 0.93340  0.14430  0.03040  Biso   1.000  C
  C54      1.0000 0.06660  0.14430  0.46960  Biso   1.000  C
  C55      1.0000 0.43340  0.64430  0.03040  Biso   1.000  C
  C56      1.0000 0.56660  0.64430  0.46960  Biso   1.000  C
  H17      1.0000 0.07560  0.93770  0.99900  Biso   1.000  H
  H18      1.0000 0.92440  0.93770  0.50100  Biso   1.000  H
  H19      1.0000 0.57560  0.43770  0.99900  Biso   1.000  H
  H20      1.0000 0.42440  0.43770  0.50100  Biso   1.000  H
  H21      1.0000 0.92440  0.06230  0.00100  Biso   1.000  H
  H22      1.0000 0.07560  0.06230  0.49900  Biso   1.000  H
  H23      1.0000 0.42440  0.56230  0.00100  Biso   1.000  H
  H24      1.0000 0.57560  0.56230  0.49900  Biso   1.000  H
  H25      1.0000 0.07600  0.88140  0.93140  Biso   1.000  H
  H26      1.0000 0.92400  0.88140  0.56860  Biso   1.000  H
  H27      1.0000 0.57600  0.38140  0.93140  Biso   1.000  H
  H28      1.0000 0.42400  0.38140  0.56860  Biso   1.000  H
  H29      1.0000 0.92400  0.11860  0.06860  Biso   1.000  H
  H30      1.0000 0.07600  0.11860  0.43140  Biso   1.000  H
  H31      1.0000 0.42400  0.61860  0.06860  Biso   1.000  H
  H32      1.0000 0.57600  0.61860  0.43140  Biso   1.000  H
  C57      1.0000 0.07830  0.55100  0.90638  Biso   1.000  C
  C58      1.0000 0.92170  0.55100  0.59362  Biso   1.000  C
  C59      1.0000 0.57830  0.05100  0.90638  Biso   1.000  C
  C60      1.0000 0.42170  0.05100  0.59362  Biso   1.000  C
  C61      1.0000 0.92170  0.44900  0.09362  Biso   1.000  C
  C62      1.0000 0.07830  0.44900  0.40638  Biso   1.000  C
  C63      1.0000 0.42170  0.94900  0.09362  Biso   1.000  C
  C64      1.0000 0.57830  0.94900  0.40638  Biso   1.000  C
  H33      1.0000 0.09450  0.46140  0.89910  Biso   1.000  H
  H34      1.0000 0.90550  0.46140  0.60090  Biso   1.000  H
  H35      1.0000 0.59450  0.96140  0.89910  Biso   1.000  H
  H36      1.0000 0.40550  0.96140  0.60090  Biso   1.000  H
  H37      1.0000 0.90550  0.53860  0.10090  Biso   1.000  H
  H38      1.0000 0.09450  0.53860  0.39910  Biso   1.000  H
  H39      1.0000 0.40550  0.03860  0.10090  Biso   1.000  H
  H40      1.0000 0.59450  0.03860  0.39910  Biso   1.000  H
  H41      1.0000 0.08410  0.62290  0.87770  Biso   1.000  H
  H42      1.0000 0.91590  0.62290  0.62230  Biso   1.000  H
  H43      1.0000 0.58410  0.12290  0.87770  Biso   1.000  H
  H44      1.0000 0.41590  0.12290  0.62230  Biso   1.000  H
  H45      1.0000 0.91590  0.37710  0.12230  Biso   1.000  H
  H46      1.0000 0.08410  0.37710  0.37770  Biso   1.000  H
  H47      1.0000 0.41590  0.87710  0.12230  Biso   1.000  H
  H48      1.0000 0.58410  0.87710  0.37770  Biso   1.000  H
  H49      1.0000 0.03740  0.53930  0.89750  Biso   1.000  H
  H50      1.0000 0.96260  0.53930  0.60250  Biso   1.000  H
  H51      1.0000 0.53740  0.03930  0.89750  Biso   1.000  H
  H52      1.0000 0.46260  0.03930  0.60250  Biso   1.000  H
  H53      1.0000 0.96260  0.46070  0.10250  Biso   1.000  H
  H54      1.0000 0.03740  0.46070  0.39750  Biso   1.000  H
  H55      1.0000 0.46260  0.96070  0.10250  Biso   1.000  H
  H56      1.0000 0.53740  0.96070  0.39750  Biso   1.000  H
  C65      1.0000 0.15783  0.83340  0.12157  Biso   1.000  C
  C66      1.0000 0.84217  0.83340  0.37843  Biso   1.000  C
  C67      1.0000 0.65783  0.33340  0.12157  Biso   1.000  C
  C68      1.0000 0.34217  0.33340  0.37843  Biso   1.000  C
  C69      1.0000 0.84217  0.16660  0.87843  Biso   1.000  C
  C70      1.0000 0.15783  0.16660  0.62157  Biso   1.000  C
  C71      1.0000 0.34217  0.66660  0.87843  Biso   1.000  C
  C72      1.0000 0.65783  0.66660  0.62157  Biso   1.000  C
  H57      1.0000 0.18970  0.79790  0.15840  Biso   1.000  H
  H58      1.0000 0.81030  0.79790  0.34160  Biso   1.000  H
  H59      1.0000 0.68970  0.29790  0.15840  Biso   1.000  H
  H60      1.0000 0.31030  0.29790  0.34160  Biso   1.000  H
  H61      1.0000 0.81030  0.20210  0.84160  Biso   1.000  H
  H62      1.0000 0.18970  0.20210  0.65840  Biso   1.000  H
  H63      1.0000 0.31030  0.70210  0.84160  Biso   1.000  H
  H64      1.0000 0.68970  0.70210  0.65840  Biso   1.000  H
  H65      1.0000 0.12520  0.85200  0.13480  Biso   1.000  H
  H66      1.0000 0.87480  0.85200  0.36520  Biso   1.000  H
  H67      1.0000 0.62520  0.35200  0.13480  Biso   1.000  H
  H68      1.0000 0.37480  0.35200  0.36520  Biso   1.000  H
  H69      1.0000 0.87480  0.14800  0.86520  Biso   1.000  H
  H70      1.0000 0.12520  0.14800  0.63480  Biso   1.000  H
  H71      1.0000 0.37480  0.64800  0.86520  Biso   1.000  H
  H72      1.0000 0.62520  0.64800  0.63480  Biso   1.000  H
  H73      1.0000 0.16920  0.92080  0.10600  Biso   1.000  H
  H74      1.0000 0.83080  0.92080  0.39400  Biso   1.000  H
  H75      1.0000 0.66920  0.42080  0.10600  Biso   1.000  H
  H76      1.0000 0.33080  0.42080  0.39400  Biso   1.000  H
  H77      1.0000 0.83080  0.07920  0.89400  Biso   1.000  H
  H78      1.0000 0.16920  0.07920  0.60600  Biso   1.000  H
  H79      1.0000 0.33080  0.57920  0.89400  Biso   1.000  H
  H80      1.0000 0.66920  0.57920  0.60600  Biso   1.000  H
  C73      1.0000 0.99302  0.77150  0.06173  Biso   1.000  C
  C74      1.0000 0.00698  0.77150  0.43827  Biso   1.000  C
  C75      1.0000 0.49302  0.27150  0.06173  Biso   1.000  C
  C76      1.0000 0.50698  0.27150  0.43827  Biso   1.000  C
  C77      1.0000 0.00698  0.22850  0.93827  Biso   1.000  C
  C78      1.0000 0.99302  0.22850  0.56173  Biso   1.000  C
  C79      1.0000 0.50698  0.72850  0.93827  Biso   1.000  C
  C80      1.0000 0.49302  0.72850  0.56173  Biso   1.000  C
  H81      1.0000 0.96070  0.76990  0.07670  Biso   1.000  H
  H82      1.0000 0.03930  0.76990  0.42330  Biso   1.000  H
  H83      1.0000 0.46070  0.26990  0.07670  Biso   1.000  H
  H84      1.0000 0.53930  0.26990  0.42330  Biso   1.000  H
  H85      1.0000 0.03930  0.23010  0.92330  Biso   1.000  H
  H86      1.0000 0.96070  0.23010  0.57670  Biso   1.000  H
  H87      1.0000 0.53930  0.73010  0.92330  Biso   1.000  H
  H88      1.0000 0.46070  0.73010  0.57670  Biso   1.000  H
  H89      1.0000 0.01790  0.85120  0.08140  Biso   1.000  H
  H90      1.0000 0.98210  0.85120  0.41860  Biso   1.000  H
  H91      1.0000 0.51790  0.35120  0.08140  Biso   1.000  H
  H92      1.0000 0.48210  0.35120  0.41860  Biso   1.000  H
  H93      1.0000 0.98210  0.14880  0.91860  Biso   1.000  H
  H94      1.0000 0.01790  0.14880  0.58140  Biso   1.000  H
  H95      1.0000 0.48210  0.64880  0.91860  Biso   1.000  H
  H96      1.0000 0.51790  0.64880  0.58140  Biso   1.000  H
  H97      1.0000 0.01450  0.68340  0.07390  Biso   1.000  H
  H98      1.0000 0.98550  0.68340  0.42610  Biso   1.000  H
  H99      1.0000 0.51450  0.18340  0.07390  Biso   1.000  H
  H100     1.0000 0.48550  0.18340  0.42610  Biso   1.000  H
  H101     1.0000 0.98550  0.31660  0.92610  Biso   1.000  H
  H102     1.0000 0.01450  0.31660  0.57390  Biso   1.000  H
  H103     1.0000 0.48550  0.81660  0.92610  Biso   1.000  H
  H104     1.0000 0.51450  0.81660  0.57390  Biso   1.000  H
  C81      1.0000 0.96809  0.86150  0.82118  Biso   1.000  C
  C82      1.0000 0.03191  0.86150  0.67882  Biso   1.000  C
  C83      1.0000 0.46809  0.36150  0.82118  Biso   1.000  C
  C84      1.0000 0.53191  0.36150  0.67882  Biso   1.000  C
  C85      1.0000 0.03191  0.13850  0.17882  Biso   1.000  C
  C86      1.0000 0.96809  0.13850  0.32118  Biso   1.000  C
  C87      1.0000 0.53191  0.63850  0.17882  Biso   1.000  C
  C88      1.0000 0.46809  0.63850  0.32118  Biso   1.000  C
  H105     1.0000 0.95580  0.77980  0.79270  Biso   1.000  H
  H106     1.0000 0.04420  0.77980  0.70730  Biso   1.000  H
  H107     1.0000 0.45580  0.27980  0.79270  Biso   1.000  H
  H108     1.0000 0.54420  0.27980  0.70730  Biso   1.000  H
  H109     1.0000 0.04420  0.22020  0.20730  Biso   1.000  H
  H110     1.0000 0.95580  0.22020  0.29270  Biso   1.000  H
  H111     1.0000 0.54420  0.72020  0.20730  Biso   1.000  H
  H112     1.0000 0.45580  0.72020  0.29270  Biso   1.000  H
  H113     1.0000 0.00800  0.88270  0.82800  Biso   1.000  H
  H114     1.0000 0.99200  0.88270  0.67200  Biso   1.000  H
  H115     1.0000 0.50800  0.38270  0.82800  Biso   1.000  H
  H116     1.0000 0.49200  0.38270  0.67200  Biso   1.000  H
  H117     1.0000 0.99200  0.11730  0.17200  Biso   1.000  H
  H118     1.0000 0.00800  0.11730  0.32800  Biso   1.000  H
  H119     1.0000 0.49200  0.61730  0.17200  Biso   1.000  H
  H120     1.0000 0.50800  0.61730  0.32800  Biso   1.000  H
  H121     1.0000 0.94430  0.94290  0.80150  Biso   1.000  H
  H122     1.0000 0.05570  0.94290  0.69850  Biso   1.000  H
  H123     1.0000 0.44430  0.44290  0.80150  Biso   1.000  H
  H124     1.0000 0.55570  0.44290  0.69850  Biso   1.000  H
  H125     1.0000 0.05570  0.05710  0.19850  Biso   1.000  H
  H126     1.0000 0.94430  0.05710  0.30150  Biso   1.000  H
  H127     1.0000 0.55570  0.55710  0.19850  Biso   1.000  H
  H128     1.0000 0.44430  0.55710  0.30150  Biso   1.000  H
  C89      1.0000 0.30264  0.21830  0.19619  Biso   1.000  C
  C90      1.0000 0.69736  0.21830  0.30381  Biso   1.000  C
  C91      1.0000 0.80264  0.71830  0.19619  Biso   1.000  C
  C92      1.0000 0.19736  0.71830  0.30381  Biso   1.000  C
  C93      1.0000 0.69736  0.78170  0.80381  Biso   1.000  C
  C94      1.0000 0.30264  0.78170  0.69619  Biso   1.000  C
  C95      1.0000 0.19736  0.28170  0.80381  Biso   1.000  C
  C96      1.0000 0.80264  0.28170  0.69619  Biso   1.000  C
  C97      1.0000 0.32051  0.09480  0.23461  Biso   1.000  C
  C98      1.0000 0.67949  0.09480  0.26539  Biso   1.000  C
  C99      1.0000 0.82051  0.59480  0.23461  Biso   1.000  C
  C100     1.0000 0.17949  0.59480  0.26539  Biso   1.000  C
  C101     1.0000 0.67949  0.90520  0.76539  Biso   1.000  C
  C102     1.0000 0.32051  0.90520  0.73461  Biso   1.000  C
  C103     1.0000 0.17949  0.40520  0.76539  Biso   1.000  C
  C104     1.0000 0.82051  0.40520  0.73461  Biso   1.000  C
  H129     1.0000 0.29260  0.03310  0.23970  Biso   1.000  H
  H130     1.0000 0.70740  0.03310  0.26030  Biso   1.000  H
  H131     1.0000 0.79260  0.53310  0.23970  Biso   1.000  H
  H132     1.0000 0.20740  0.53310  0.26030  Biso   1.000  H
  H133     1.0000 0.70740  0.96690  0.76030  Biso   1.000  H
  H134     1.0000 0.29260  0.96690  0.73970  Biso   1.000  H
  H135     1.0000 0.20740  0.46690  0.76030  Biso   1.000  H
  H136     1.0000 0.79260  0.46690  0.73970  Biso   1.000  H
  C105     1.0000 0.37900  0.06250  0.26522  Biso   1.000  C
  C106     1.0000 0.62100  0.06250  0.23478  Biso   1.000  C
  C107     1.0000 0.87900  0.56250  0.26522  Biso   1.000  C
  C108     1.0000 0.12100  0.56250  0.23478  Biso   1.000  C
  C109     1.0000 0.62100  0.93750  0.73478  Biso   1.000  C
  C110     1.0000 0.37900  0.93750  0.76522  Biso   1.000  C
  C111     1.0000 0.12100  0.43750  0.73478  Biso   1.000  C
  C112     1.0000 0.87900  0.43750  0.76522  Biso   1.000  C
  H137     1.0000 0.39040  0.97960  0.29030  Biso   1.000  H
  H138     1.0000 0.60960  0.97960  0.20970  Biso   1.000  H
  H139     1.0000 0.89040  0.47960  0.29030  Biso   1.000  H
  H140     1.0000 0.10960  0.47960  0.20970  Biso   1.000  H
  H141     1.0000 0.60960  0.02040  0.70970  Biso   1.000  H
  H142     1.0000 0.39040  0.02040  0.79030  Biso   1.000  H
  H143     1.0000 0.10960  0.52040  0.70970  Biso   1.000  H
  H144     1.0000 0.89040  0.52040  0.79030  Biso   1.000  H
  C113     1.0000 0.41988  0.15460  0.25796  Biso   1.000  C
  C114     1.0000 0.58012  0.15460  0.24204  Biso   1.000  C
  C115     1.0000 0.91988  0.65460  0.25796  Biso   1.000  C
  C116     1.0000 0.08012  0.65460  0.24204  Biso   1.000  C
  C117     1.0000 0.58012  0.84540  0.74204  Biso   1.000  C
  C118     1.0000 0.41988  0.84540  0.75796  Biso   1.000  C
  C119     1.0000 0.08012  0.34540  0.74204  Biso   1.000  C
  C120     1.0000 0.91988  0.34540  0.75796  Biso   1.000  C
  H145     1.0000 0.45920  0.13380  0.27840  Biso   1.000  H
  H146     1.0000 0.54080  0.13380  0.22160  Biso   1.000  H
  H147     1.0000 0.95920  0.63380  0.27840  Biso   1.000  H
  H148     1.0000 0.04080  0.63380  0.22160  Biso   1.000  H
  H149     1.0000 0.54080  0.86620  0.72160  Biso   1.000  H
  H150     1.0000 0.45920  0.86620  0.77840  Biso   1.000  H
  H151     1.0000 0.04080  0.36620  0.72160  Biso   1.000  H
  H152     1.0000 0.95920  0.36620  0.77840  Biso   1.000  H
  C121     1.0000 0.40327  0.27720  0.22080  Biso   1.000  C
  C122     1.0000 0.59673  0.27720  0.27920  Biso   1.000  C
  C123     1.0000 0.90327  0.77720  0.22080  Biso   1.000  C
  C124     1.0000 0.09673  0.77720  0.27920  Biso   1.000  C
  C125     1.0000 0.59673  0.72280  0.77920  Biso   1.000  C
  C126     1.0000 0.40327  0.72280  0.72080  Biso   1.000  C
  C127     1.0000 0.09673  0.22280  0.77920  Biso   1.000  C
  C128     1.0000 0.90327  0.22280  0.72080  Biso   1.000  C
  H153     1.0000 0.43170  0.33840  0.21660  Biso   1.000  H
  H154     1.0000 0.56830  0.33840  0.28340  Biso   1.000  H
  H155     1.0000 0.93170  0.83840  0.21660  Biso   1.000  H
  H156     1.0000 0.06830  0.83840  0.28340  Biso   1.000  H
  H157     1.0000 0.56830  0.66160  0.78340  Biso   1.000  H
  H158     1.0000 0.43170  0.66160  0.71660  Biso   1.000  H
  H159     1.0000 0.06830  0.16160  0.78340  Biso   1.000  H
  H160     1.0000 0.93170  0.16160  0.71660  Biso   1.000  H
  C129     1.0000 0.34461  0.31200  0.18925  Biso   1.000  C
  C130     1.0000 0.65539  0.31200  0.31075  Biso   1.000  C
  C131     1.0000 0.84461  0.81200  0.18925  Biso   1.000  C
  C132     1.0000 0.15539  0.81200  0.31075  Biso   1.000  C
  C133     1.0000 0.65539  0.68800  0.81075  Biso   1.000  C
  C134     1.0000 0.34461  0.68800  0.68925  Biso   1.000  C
  C135     1.0000 0.15539  0.18800  0.81075  Biso   1.000  C
  C136     1.0000 0.84461  0.18800  0.68925  Biso   1.000  C
  C137     1.0000 0.32936  0.45610  0.15632  Biso   1.000  C
  C138     1.0000 0.67064  0.45610  0.34368  Biso   1.000  C
  C139     1.0000 0.82936  0.95610  0.15632  Biso   1.000  C
  C140     1.0000 0.17064  0.95610  0.34368  Biso   1.000  C
  C141     1.0000 0.67064  0.54390  0.84368  Biso   1.000  C
  C142     1.0000 0.32936  0.54390  0.65632  Biso   1.000  C
  C143     1.0000 0.17064  0.04390  0.84368  Biso   1.000  C
  C144     1.0000 0.82936  0.04390  0.65632  Biso   1.000  C
  C145     1.0000 0.32286  0.56840  0.19504  Biso   1.000  C
  C146     1.0000 0.67714  0.56840  0.30496  Biso   1.000  C
  C147     1.0000 0.82286  0.06840  0.19504  Biso   1.000  C
  C148     1.0000 0.17714  0.06840  0.30496  Biso   1.000  C
  C149     1.0000 0.67714  0.43160  0.80496  Biso   1.000  C
  C150     1.0000 0.32286  0.43160  0.69504  Biso   1.000  C
  C151     1.0000 0.17714  0.93160  0.80496  Biso   1.000  C
  C152     1.0000 0.82286  0.93160  0.69504  Biso   1.000  C
  H161     1.0000 0.32750  0.55080  0.23860  Biso   1.000  H
  H162     1.0000 0.67250  0.55080  0.26140  Biso   1.000  H
  H163     1.0000 0.82750  0.05080  0.23860  Biso   1.000  H
  H164     1.0000 0.17250  0.05080  0.26140  Biso   1.000  H
  H165     1.0000 0.67250  0.44920  0.76140  Biso   1.000  H
  H166     1.0000 0.32750  0.44920  0.73860  Biso   1.000  H
  H167     1.0000 0.17250  0.94920  0.76140  Biso   1.000  H
  H168     1.0000 0.82750  0.94920  0.73860  Biso   1.000  H
  C153     1.0000 0.30954  0.70630  0.17004  Biso   1.000  C
  C154     1.0000 0.69046  0.70630  0.32996  Biso   1.000  C
  C155     1.0000 0.80954  0.20630  0.17004  Biso   1.000  C
  C156     1.0000 0.19046  0.20630  0.32996  Biso   1.000  C
  C157     1.0000 0.69046  0.29370  0.82996  Biso   1.000  C
  C158     1.0000 0.30954  0.29370  0.67004  Biso   1.000  C
  C159     1.0000 0.19046  0.79370  0.82996  Biso   1.000  C
  C160     1.0000 0.80954  0.79370  0.67004  Biso   1.000  C
  H169     1.0000 0.30630  0.78040  0.19720  Biso   1.000  H
  H170     1.0000 0.69370  0.78040  0.30280  Biso   1.000  H
  H171     1.0000 0.80630  0.28040  0.19720  Biso   1.000  H
  H172     1.0000 0.19370  0.28040  0.30280  Biso   1.000  H
  H173     1.0000 0.69370  0.21960  0.80280  Biso   1.000  H
  H174     1.0000 0.30630  0.21960  0.69720  Biso   1.000  H
  H175     1.0000 0.19370  0.71960  0.80280  Biso   1.000  H
  H176     1.0000 0.80630  0.71960  0.69720  Biso   1.000  H
  C161     1.0000 0.30117  0.73410  0.10529  Biso   1.000  C
  C162     1.0000 0.69883  0.73410  0.39471  Biso   1.000  C
  C163     1.0000 0.80117  0.23410  0.10529  Biso   1.000  C
  C164     1.0000 0.19883  0.23410  0.39471  Biso   1.000  C
  C165     1.0000 0.69883  0.26590  0.89471  Biso   1.000  C
  C166     1.0000 0.30117  0.26590  0.60529  Biso   1.000  C
  C167     1.0000 0.19883  0.76590  0.89471  Biso   1.000  C
  C168     1.0000 0.80117  0.76590  0.60529  Biso   1.000  C
  H177     1.0000 0.29220  0.82650  0.08840  Biso   1.000  H
  H178     1.0000 0.70780  0.82650  0.41160  Biso   1.000  H
  H179     1.0000 0.79220  0.32650  0.08840  Biso   1.000  H
  H180     1.0000 0.20780  0.32650  0.41160  Biso   1.000  H
  H181     1.0000 0.70780  0.17350  0.91160  Biso   1.000  H
  H182     1.0000 0.29220  0.17350  0.58840  Biso   1.000  H
  H183     1.0000 0.20780  0.67350  0.91160  Biso   1.000  H
  H184     1.0000 0.79220  0.67350  0.58840  Biso   1.000  H
  C169     1.0000 0.30624  0.62300  0.06582  Biso   1.000  C
  C170     1.0000 0.69376  0.62300  0.43418  Biso   1.000  C
  C171     1.0000 0.80624  0.12300  0.06582  Biso   1.000  C
  C172     1.0000 0.19376  0.12300  0.43418  Biso   1.000  C
  C173     1.0000 0.69376  0.37700  0.93418  Biso   1.000  C
  C174     1.0000 0.30624  0.37700  0.56582  Biso   1.000  C
  C175     1.0000 0.19376  0.87700  0.93418  Biso   1.000  C
  C176     1.0000 0.80624  0.87700  0.56582  Biso   1.000  C
  H185     1.0000 0.29960  0.64090  0.02180  Biso   1.000  H
  H186     1.0000 0.70040  0.64090  0.47820  Biso   1.000  H
  H187     1.0000 0.79960  0.14090  0.02180  Biso   1.000  H
  H188     1.0000 0.20040  0.14090  0.47820  Biso   1.000  H
  H189     1.0000 0.70040  0.35910  0.97820  Biso   1.000  H
  H190     1.0000 0.29960  0.35910  0.52180  Biso   1.000  H
  H191     1.0000 0.20040  0.85910  0.97820  Biso   1.000  H
  H192     1.0000 0.79960  0.85910  0.52180  Biso   1.000  H
  C177     1.0000 0.32107  0.48420  0.09053  Biso   1.000  C
  C178     1.0000 0.67893  0.48420  0.40947  Biso   1.000  C
  C179     1.0000 0.82107  0.98420  0.09053  Biso   1.000  C
  C180     1.0000 0.17893  0.98420  0.40947  Biso   1.000  C
  C181     1.0000 0.67893  0.51580  0.90947  Biso   1.000  C
  C182     1.0000 0.32107  0.51580  0.59053  Biso   1.000  C
  C183     1.0000 0.17893  0.01580  0.90947  Biso   1.000  C
  C184     1.0000 0.82107  0.01580  0.59053  Biso   1.000  C
  C185     1.0000 0.23822  0.24360  0.16365  Biso   1.000  C
  C186     1.0000 0.76178  0.24360  0.33635  Biso   1.000  C
  C187     1.0000 0.73822  0.74360  0.16365  Biso   1.000  C
  C188     1.0000 0.26178  0.74360  0.33635  Biso   1.000  C
  C189     1.0000 0.76178  0.75640  0.83635  Biso   1.000  C
  C190     1.0000 0.23822  0.75640  0.66365  Biso   1.000  C
  C191     1.0000 0.26178  0.25640  0.83635  Biso   1.000  C
  C192     1.0000 0.73822  0.25640  0.66365  Biso   1.000  C
  C193     1.0000 0.32651  0.37080  0.04524  Biso   1.000  C
  C194     1.0000 0.67349  0.37080  0.45476  Biso   1.000  C
  C195     1.0000 0.82651  0.87080  0.04524  Biso   1.000  C
  C196     1.0000 0.17349  0.87080  0.45476  Biso   1.000  C
  C197     1.0000 0.67349  0.62920  0.95476  Biso   1.000  C
  C198     1.0000 0.32651  0.62920  0.54524  Biso   1.000  C
  C199     1.0000 0.17349  0.12920  0.95476  Biso   1.000  C
  C200     1.0000 0.82651  0.12920  0.54524  Biso   1.000  C
