data_image0
_cell_length_a       11.3899
_cell_length_b       7.9499
_cell_length_c       20.1358
_cell_angle_alpha    90
_cell_angle_beta     99.746
_cell_angle_gamma    90

_symmetry_space_group_name_H-M    "P 1"
_symmetry_int_tables_number       1

loop_
  _symmetry_equiv_pos_as_xyz
  'x, y, z'

loop_
  _atom_site_label
  _atom_site_occupancy
  _atom_site_fract_x
  _atom_site_fract_y
  _atom_site_fract_z
  _atom_site_thermal_displace_type
  _atom_site_B_iso_or_equiv
  _atom_site_type_symbol
  Cu1      1.0000 0.96540  0.20466  0.99957  Biso   1.000  Cu
  Cu2      1.0000 0.53460  0.70466  0.50043  Biso   1.000  Cu
  Cu3      1.0000 0.03460  0.79534  0.00043  Biso   1.000  Cu
  Cu4      1.0000 0.46540  0.29534  0.49957  Biso   1.000  Cu
  O1       1.0000 0.97279  0.34278  0.07942  Biso   1.000  O
  O2       1.0000 0.52721  0.84278  0.42058  Biso   1.000  O
  O3       1.0000 0.02721  0.65722  0.92058  Biso   1.000  O
  O4       1.0000 0.47279  0.15722  0.57942  Biso   1.000  O
  O5       1.0000 0.98074  0.06087  0.92595  Biso   1.000  O
  O6       1.0000 0.51926  0.56087  0.57405  Biso   1.000  O
  O7       1.0000 0.01926  0.93913  0.07405  Biso   1.000  O
  O8       1.0000 0.48074  0.43913  0.42595  Biso   1.000  O
  N1       1.0000 0.15488  0.41860  0.05228  Biso   1.000  N
  N2       1.0000 0.34512  0.91860  0.44772  Biso   1.000  N
  N3       1.0000 0.84512  0.58140  0.94772  Biso   1.000  N
  N4       1.0000 0.65488  0.08140  0.55228  Biso   1.000  N
  N5       1.0000 0.11640  0.31209  0.99814  Biso   1.000  N
  N6       1.0000 0.38360  0.81209  0.50186  Biso   1.000  N
  N7       1.0000 0.88360  0.68791  0.00186  Biso   1.000  N
  N8       1.0000 0.61640  0.18791  0.49814  Biso   1.000  N
  C1       1.0000 0.56137  0.03050  0.99921  Biso   1.000  C
  C2       1.0000 0.93863  0.53050  0.50079  Biso   1.000  C
  C3       1.0000 0.43863  0.96950  0.00079  Biso   1.000  C
  C4       1.0000 0.06137  0.46950  0.49921  Biso   1.000  C
  C5       1.0000 0.05739  0.07850  0.88404  Biso   1.000  C
  C6       1.0000 0.44261  0.57850  0.61596  Biso   1.000  C
  C7       1.0000 0.94261  0.92150  0.11596  Biso   1.000  C
  C8       1.0000 0.55739  0.42150  0.38404  Biso   1.000  C
  N9       1.0000 0.79417  0.14230  0.99680  Biso   1.000  N
  N10      1.0000 0.70583  0.64230  0.50320  Biso   1.000  N
  N11      1.0000 0.20583  0.85770  0.00320  Biso   1.000  N
  N12      1.0000 0.29417  0.35770  0.49680  Biso   1.000  N
  C9       1.0000 0.18185  0.30010  0.95198  Biso   1.000  C
  C10      1.0000 0.31815  0.80010  0.54802  Biso   1.000  C
  C11      1.0000 0.81815  0.69990  0.04802  Biso   1.000  C
  C12      1.0000 0.68185  0.19990  0.45198  Biso   1.000  C
  H1       1.0000 0.25150  0.36770  0.95620  Biso   1.000  H
  H2       1.0000 0.24850  0.86770  0.54380  Biso   1.000  H
  H3       1.0000 0.74850  0.63230  0.04380  Biso   1.000  H
  H4       1.0000 0.75150  0.13230  0.45620  Biso   1.000  H
  C13      1.0000 0.15568  0.19020  0.89425  Biso   1.000  C
  C14      1.0000 0.34432  0.69020  0.60575  Biso   1.000  C
  C15      1.0000 0.84432  0.80980  0.10575  Biso   1.000  C
  C16      1.0000 0.65568  0.30980  0.39425  Biso   1.000  C
  C17      1.0000 0.01918  0.51580  0.20038  Biso   1.000  C
  C18      1.0000 0.48082  0.01580  0.29962  Biso   1.000  C
  C19      1.0000 0.98082  0.48420  0.79962  Biso   1.000  C
  C20      1.0000 0.51918  0.98420  0.70038  Biso   1.000  C
  H5       1.0000 0.95130  0.44460  0.19170  Biso   1.000  H
  H6       1.0000 0.54870  0.94460  0.30830  Biso   1.000  H
  H7       1.0000 0.04870  0.55540  0.80830  Biso   1.000  H
  H8       1.0000 0.45130  0.05540  0.69170  Biso   1.000  H
  C21      1.0000 0.61997  0.13870  0.04861  Biso   1.000  C
  C22      1.0000 0.88003  0.63870  0.45139  Biso   1.000  C
  C23      1.0000 0.38003  0.86130  0.95139  Biso   1.000  C
  C24      1.0000 0.11997  0.36130  0.54861  Biso   1.000  C
  H9       1.0000 0.58100  0.17660  0.08400  Biso   1.000  H
  H10      1.0000 0.91900  0.67660  0.41600  Biso   1.000  H
  H11      1.0000 0.41900  0.82340  0.91600  Biso   1.000  H
  H12      1.0000 0.08100  0.32340  0.58400  Biso   1.000  H
  C25      1.0000 0.19546  0.63260  0.16717  Biso   1.000  C
  C26      1.0000 0.30454  0.13260  0.33283  Biso   1.000  C
  C27      1.0000 0.80454  0.36740  0.83283  Biso   1.000  C
  C28      1.0000 0.69546  0.86740  0.66717  Biso   1.000  C
  H13      1.0000 0.24860  0.64150  0.13570  Biso   1.000  H
  H14      1.0000 0.25140  0.14150  0.36430  Biso   1.000  H
  H15      1.0000 0.75140  0.35850  0.86430  Biso   1.000  H
  H16      1.0000 0.74860  0.85850  0.63570  Biso   1.000  H
  C29      1.0000 0.73787  0.04060  0.94851  Biso   1.000  C
  C30      1.0000 0.76213  0.54060  0.55149  Biso   1.000  C
  C31      1.0000 0.26213  0.95940  0.05149  Biso   1.000  C
  C32      1.0000 0.23787  0.45940  0.44851  Biso   1.000  C
  H17      1.0000 0.77830  0.00650  0.91320  Biso   1.000  H
  H18      1.0000 0.72170  0.50650  0.58680  Biso   1.000  H
  H19      1.0000 0.22170  0.99350  0.08680  Biso   1.000  H
  H20      1.0000 0.27830  0.49350  0.41320  Biso   1.000  H
  C33      1.0000 0.62310  0.98370  0.94829  Biso   1.000  C
  C34      1.0000 0.87690  0.48370  0.55171  Biso   1.000  C
  C35      1.0000 0.37690  0.01630  0.05171  Biso   1.000  C
  C36      1.0000 0.12310  0.51630  0.44829  Biso   1.000  C
  H21      1.0000 0.58620  0.91200  0.91310  Biso   1.000  H
  H22      1.0000 0.91380  0.41200  0.58690  Biso   1.000  H
  H23      1.0000 0.41380  0.08800  0.08690  Biso   1.000  H
  H24      1.0000 0.08620  0.58800  0.41310  Biso   1.000  H
  C37      1.0000 0.23490  0.19360  0.84730  Biso   1.000  C
  C38      1.0000 0.26510  0.69360  0.65270  Biso   1.000  C
  C39      1.0000 0.76510  0.80640  0.15270  Biso   1.000  C
  C40      1.0000 0.73490  0.30640  0.34730  Biso   1.000  C
  H25      1.0000 0.30060  0.26890  0.85440  Biso   1.000  H
  H26      1.0000 0.19940  0.76890  0.64560  Biso   1.000  H
  H27      1.0000 0.69940  0.73110  0.14560  Biso   1.000  H
  H28      1.0000 0.80060  0.23110  0.35440  Biso   1.000  H
  C41      1.0000 0.07270  0.42260  0.09139  Biso   1.000  C
  C42      1.0000 0.42730  0.92260  0.40861  Biso   1.000  C
  C43      1.0000 0.92730  0.57740  0.90861  Biso   1.000  C
  C44      1.0000 0.57270  0.07740  0.59139  Biso   1.000  C
  C45      1.0000 0.09683  0.52550  0.15385  Biso   1.000  C
  C46      1.0000 0.40317  0.02550  0.34615  Biso   1.000  C
  C47      1.0000 0.90317  0.47450  0.84615  Biso   1.000  C
  C48      1.0000 0.59683  0.97450  0.65385  Biso   1.000  C
  C49      1.0000 0.12230  0.98090  0.78139  Biso   1.000  C
  C50      1.0000 0.37770  0.48090  0.71861  Biso   1.000  C
  C51      1.0000 0.87770  0.01910  0.21861  Biso   1.000  C
  C52      1.0000 0.62230  0.51910  0.28139  Biso   1.000  C
  H29      1.0000 0.11090  0.90870  0.74320  Biso   1.000  H
  H30      1.0000 0.38910  0.40870  0.75680  Biso   1.000  H
  H31      1.0000 0.88910  0.09130  0.25680  Biso   1.000  H
  H32      1.0000 0.61090  0.59130  0.24320  Biso   1.000  H
  C53      1.0000 0.04307  0.97590  0.82599  Biso   1.000  C
  C54      1.0000 0.45693  0.47590  0.67401  Biso   1.000  C
  C55      1.0000 0.95693  0.02410  0.17401  Biso   1.000  C
  C56      1.0000 0.54307  0.52410  0.32599  Biso   1.000  C
  H33      1.0000 0.97700  0.90140  0.81750  Biso   1.000  H
  H34      1.0000 0.52300  0.40140  0.68250  Biso   1.000  H
  H35      1.0000 0.02300  0.09860  0.18250  Biso   1.000  H
  H36      1.0000 0.47700  0.59860  0.31750  Biso   1.000  H
  C57      1.0000 0.21940  0.09120  0.79167  Biso   1.000  C
  C58      1.0000 0.28060  0.59120  0.70833  Biso   1.000  C
  C59      1.0000 0.78060  0.90880  0.20833  Biso   1.000  C
  C60      1.0000 0.71940  0.40880  0.29167  Biso   1.000  C
  H37      1.0000 0.27370  0.09510  0.76070  Biso   1.000  H
  H38      1.0000 0.22630  0.59510  0.73930  Biso   1.000  H
  H39      1.0000 0.72630  0.90490  0.23930  Biso   1.000  H
  H40      1.0000 0.77370  0.40490  0.26070  Biso   1.000  H
  C61      1.0000 0.21570  0.72570  0.22617  Biso   1.000  C
  C62      1.0000 0.28430  0.22570  0.27383  Biso   1.000  C
  C63      1.0000 0.78430  0.27430  0.77383  Biso   1.000  C
  C64      1.0000 0.71570  0.77430  0.72617  Biso   1.000  C
  H41      1.0000 0.28310  0.79770  0.23520  Biso   1.000  H
  H42      1.0000 0.21690  0.29770  0.26480  Biso   1.000  H
  H43      1.0000 0.71690  0.20230  0.76480  Biso   1.000  H
  H44      1.0000 0.78310  0.70230  0.73520  Biso   1.000  H
  C65      1.0000 0.73480  0.19050  0.04585  Biso   1.000  C
  C66      1.0000 0.76520  0.69050  0.45415  Biso   1.000  C
  C67      1.0000 0.26520  0.80950  0.95415  Biso   1.000  C
  C68      1.0000 0.23480  0.30950  0.54585  Biso   1.000  C
  H45      1.0000 0.77350  0.26340  0.08010  Biso   1.000  H
  H46      1.0000 0.72650  0.76340  0.41990  Biso   1.000  H
  H47      1.0000 0.22650  0.73660  0.91990  Biso   1.000  H
  H48      1.0000 0.27350  0.23660  0.58010  Biso   1.000  H
  C69      1.0000 0.13840  0.71420  0.27205  Biso   1.000  C
  C70      1.0000 0.36160  0.21420  0.22795  Biso   1.000  C
  C71      1.0000 0.86160  0.28580  0.72795  Biso   1.000  C
  C72      1.0000 0.63840  0.78580  0.77205  Biso   1.000  C
  H49      1.0000 0.15270  0.77840  0.31240  Biso   1.000  H
  H50      1.0000 0.34730  0.27840  0.18760  Biso   1.000  H
  H51      1.0000 0.84730  0.22160  0.68760  Biso   1.000  H
  H52      1.0000 0.65270  0.72160  0.81240  Biso   1.000  H
  C73      1.0000 0.04050  0.60950  0.25917  Biso   1.000  C
  C74      1.0000 0.45950  0.10950  0.24083  Biso   1.000  C
  C75      1.0000 0.95950  0.39050  0.74083  Biso   1.000  C
  C76      1.0000 0.54050  0.89050  0.75917  Biso   1.000  C
  H53      1.0000 0.98760  0.60160  0.29080  Biso   1.000  H
  H54      1.0000 0.51240  0.10160  0.20920  Biso   1.000  H
  H55      1.0000 0.01240  0.39840  0.70920  Biso   1.000  H
  H56      1.0000 0.48760  0.89840  0.79080  Biso   1.000  H
  O9       1.0000 0.40696  0.40290  0.07705  Biso   1.000  O
  O10      1.0000 0.09304  0.90290  0.42295  Biso   1.000  O
  O11      1.0000 0.59304  0.59710  0.92295  Biso   1.000  O
  O12      1.0000 0.90696  0.09710  0.57705  Biso   1.000  O
  H57      1.0000 0.33490  0.42200  0.07320  Biso   1.000  H
  H58      1.0000 0.16510  0.92200  0.42680  Biso   1.000  H
  H59      1.0000 0.66510  0.57800  0.92680  Biso   1.000  H
  H60      1.0000 0.83490  0.07800  0.57320  Biso   1.000  H
  C77      1.0000 0.47510  0.54650  0.09047  Biso   1.000  C
  C78      1.0000 0.02490  0.04650  0.40953  Biso   1.000  C
  C79      1.0000 0.52490  0.45350  0.90953  Biso   1.000  C
  C80      1.0000 0.97510  0.95350  0.59047  Biso   1.000  C
  H61      1.0000 0.46420  0.59270  0.13410  Biso   1.000  H
  H62      1.0000 0.03580  0.09270  0.36590  Biso   1.000  H
  H63      1.0000 0.53580  0.40730  0.86590  Biso   1.000  H
  H64      1.0000 0.96420  0.90730  0.63410  Biso   1.000  H
  H65      1.0000 0.45010  0.63000  0.05510  Biso   1.000  H
  H66      1.0000 0.04990  0.13000  0.44490  Biso   1.000  H
  H67      1.0000 0.54990  0.37000  0.94490  Biso   1.000  H
  H68      1.0000 0.95010  0.87000  0.55510  Biso   1.000  H
  H69      1.0000 0.55920  0.51870  0.09170  Biso   1.000  H
  H70      1.0000 0.94080  0.01870  0.40830  Biso   1.000  H
  H71      1.0000 0.44080  0.48130  0.90830  Biso   1.000  H
  H72      1.0000 0.05920  0.98130  0.59170  Biso   1.000  H
