data_image0
_cell_length_a       9.6964
_cell_length_b       17.923
_cell_length_c       26.029
_cell_angle_alpha    90
_cell_angle_beta     93.49
_cell_angle_gamma    90

_symmetry_space_group_name_H-M    "P 1"
_symmetry_int_tables_number       1

loop_
  _symmetry_equiv_pos_as_xyz
  'x, y, z'

loop_
  _atom_site_label
  _atom_site_occupancy
  _atom_site_fract_x
  _atom_site_fract_y
  _atom_site_fract_z
  _atom_site_thermal_displace_type
  _atom_site_B_iso_or_equiv
  _atom_site_type_symbol
  Cu1      1.0000 0.38923  0.41108  0.27850  Biso   1.000  Cu
  Cu2      1.0000 0.61077  0.91108  0.22150  Biso   1.000  Cu
  Cu3      1.0000 0.61077  0.58892  0.72150  Biso   1.000  Cu
  Cu4      1.0000 0.38923  0.08892  0.77850  Biso   1.000  Cu
  Cu5      1.0000 0.89190  0.79093  0.27486  Biso   1.000  Cu
  Cu6      1.0000 0.10810  0.29093  0.22514  Biso   1.000  Cu
  Cu7      1.0000 0.10810  0.20907  0.72514  Biso   1.000  Cu
  Cu8      1.0000 0.89190  0.70907  0.77486  Biso   1.000  Cu
  V1       1.0000 0.01066  0.61252  0.27606  Biso   1.000  V
  V2       1.0000 0.98934  0.11252  0.22394  Biso   1.000  V
  V3       1.0000 0.98934  0.38748  0.72394  Biso   1.000  V
  V4       1.0000 0.01066  0.88748  0.77606  Biso   1.000  V
  V5       1.0000 0.50969  0.59046  0.27490  Biso   1.000  V
  V6       1.0000 0.49031  0.09046  0.22510  Biso   1.000  V
  V7       1.0000 0.49031  0.40954  0.72510  Biso   1.000  V
  V8       1.0000 0.50969  0.90954  0.77490  Biso   1.000  V
  P1       1.0000 0.23187  0.53443  0.21115  Biso   1.000  P
  P2       1.0000 0.76813  0.03443  0.28885  Biso   1.000  P
  P3       1.0000 0.76813  0.46557  0.78885  Biso   1.000  P
  P4       1.0000 0.23187  0.96557  0.71115  Biso   1.000  P
  P5       1.0000 0.27893  0.53631  0.34647  Biso   1.000  P
  P6       1.0000 0.72107  0.03631  0.15353  Biso   1.000  P
  P7       1.0000 0.72107  0.46369  0.65353  Biso   1.000  P
  P8       1.0000 0.27893  0.96369  0.84647  Biso   1.000  P
  P9       1.0000 0.73404  0.66662  0.20952  Biso   1.000  P
  P10      1.0000 0.26596  0.16662  0.29048  Biso   1.000  P
  P11      1.0000 0.26596  0.33338  0.79048  Biso   1.000  P
  P12      1.0000 0.73404  0.83338  0.70952  Biso   1.000  P
  P13      1.0000 0.77783  0.66817  0.34527  Biso   1.000  P
  P14      1.0000 0.22217  0.16817  0.15473  Biso   1.000  P
  P15      1.0000 0.22217  0.33183  0.65473  Biso   1.000  P
  P16      1.0000 0.77783  0.83183  0.84527  Biso   1.000  P
  O1       1.0000 0.25610  0.45580  0.23125  Biso   1.000  O
  O2       1.0000 0.74390  0.95580  0.26875  Biso   1.000  O
  O3       1.0000 0.74390  0.54420  0.76875  Biso   1.000  O
  O4       1.0000 0.25610  0.04420  0.73125  Biso   1.000  O
  O5       1.0000 0.55940  0.50650  0.27027  Biso   1.000  O
  O6       1.0000 0.44060  0.00650  0.22973  Biso   1.000  O
  O7       1.0000 0.44060  0.49350  0.72973  Biso   1.000  O
  O8       1.0000 0.55940  0.99350  0.77027  Biso   1.000  O
  O9       1.0000 0.31930  0.45510  0.33851  Biso   1.000  O
  O10      1.0000 0.68070  0.95510  0.16149  Biso   1.000  O
  O11      1.0000 0.68070  0.54490  0.66149  Biso   1.000  O
  O12      1.0000 0.31930  0.04490  0.83851  Biso   1.000  O
  O13      1.0000 0.14200  0.55720  0.32000  Biso   1.000  O
  O14      1.0000 0.85800  0.05720  0.18000  Biso   1.000  O
  O15      1.0000 0.85800  0.44280  0.68000  Biso   1.000  O
  O16      1.0000 0.14200  0.94280  0.82000  Biso   1.000  O
  O17      1.0000 0.08530  0.56130  0.21692  Biso   1.000  O
  O18      1.0000 0.91470  0.06130  0.28308  Biso   1.000  O
  O19      1.0000 0.91470  0.43870  0.78308  Biso   1.000  O
  O20      1.0000 0.08530  0.93870  0.71692  Biso   1.000  O
  O21      1.0000 0.06470  0.69610  0.27152  Biso   1.000  O
  O22      1.0000 0.93530  0.19610  0.22848  Biso   1.000  O
  O23      1.0000 0.93530  0.30390  0.72848  Biso   1.000  O
  O24      1.0000 0.06470  0.80390  0.77152  Biso   1.000  O
  O25      1.0000 0.89710  0.61560  0.33559  Biso   1.000  O
  O26      1.0000 0.10290  0.11560  0.16441  Biso   1.000  O
  O27      1.0000 0.10290  0.38440  0.66441  Biso   1.000  O
  O28      1.0000 0.89710  0.88440  0.83559  Biso   1.000  O
  O29      1.0000 0.83820  0.61220  0.23432  Biso   1.000  O
  O30      1.0000 0.16180  0.11220  0.26568  Biso   1.000  O
  O31      1.0000 0.16180  0.38780  0.76568  Biso   1.000  O
  O32      1.0000 0.83820  0.88780  0.73432  Biso   1.000  O
  O33      1.0000 0.76310  0.74710  0.22494  Biso   1.000  O
  O34      1.0000 0.23690  0.24710  0.27506  Biso   1.000  O
  O35      1.0000 0.23690  0.25290  0.77506  Biso   1.000  O
  O36      1.0000 0.76310  0.75290  0.72494  Biso   1.000  O
  O37      1.0000 0.58580  0.64390  0.21763  Biso   1.000  O
  O38      1.0000 0.41420  0.14390  0.28237  Biso   1.000  O
  O39      1.0000 0.41420  0.35610  0.78237  Biso   1.000  O
  O40      1.0000 0.58580  0.85610  0.71763  Biso   1.000  O
  O41      1.0000 0.64140  0.64370  0.32057  Biso   1.000  O
  O42      1.0000 0.35860  0.14370  0.17943  Biso   1.000  O
  O43      1.0000 0.35860  0.35630  0.67943  Biso   1.000  O
  O44      1.0000 0.64140  0.85630  0.82057  Biso   1.000  O
  O45      1.0000 0.81250  0.74840  0.33315  Biso   1.000  O
  O46      1.0000 0.18750  0.24840  0.16685  Biso   1.000  O
  O47      1.0000 0.18750  0.25160  0.66685  Biso   1.000  O
  O48      1.0000 0.81250  0.75160  0.83315  Biso   1.000  O
  O49      1.0000 0.33780  0.59080  0.23151  Biso   1.000  O
  O50      1.0000 0.66220  0.09080  0.26849  Biso   1.000  O
  O51      1.0000 0.66220  0.40920  0.76849  Biso   1.000  O
  O52      1.0000 0.33780  0.90920  0.73151  Biso   1.000  O
  O53      1.0000 0.39400  0.58970  0.33373  Biso   1.000  O
  O54      1.0000 0.60600  0.08970  0.16627  Biso   1.000  O
  O55      1.0000 0.60600  0.41030  0.66627  Biso   1.000  O
  O56      1.0000 0.39400  0.91030  0.83373  Biso   1.000  O
  N1       1.0000 0.46580  0.35210  0.22270  Biso   1.000  N
  N2       1.0000 0.53420  0.85210  0.27730  Biso   1.000  N
  N3       1.0000 0.53420  0.64790  0.77730  Biso   1.000  N
  N4       1.0000 0.46580  0.14790  0.72270  Biso   1.000  N
  N5       1.0000 0.52380  0.34830  0.32040  Biso   1.000  N
  N6       1.0000 0.47620  0.84830  0.17960  Biso   1.000  N
  N7       1.0000 0.47620  0.65170  0.67960  Biso   1.000  N
  N8       1.0000 0.52380  0.15170  0.82040  Biso   1.000  N
  N9       1.0000 0.97440  0.85250  0.22140  Biso   1.000  N
  N10      1.0000 0.02560  0.35250  0.27860  Biso   1.000  N
  N11      1.0000 0.02560  0.14750  0.77860  Biso   1.000  N
  N12      1.0000 0.97440  0.64750  0.72140  Biso   1.000  N
  N13      1.0000 0.02490  0.85030  0.31982  Biso   1.000  N
  N14      1.0000 0.97510  0.35030  0.18018  Biso   1.000  N
  N15      1.0000 0.97510  0.14970  0.68018  Biso   1.000  N
  N16      1.0000 0.02490  0.64970  0.81982  Biso   1.000  N
  C1       1.0000 0.42710  0.35660  0.17320  Biso   1.000  C
  C2       1.0000 0.57290  0.85660  0.32680  Biso   1.000  C
  C3       1.0000 0.57290  0.64340  0.82680  Biso   1.000  C
  C4       1.0000 0.42710  0.14340  0.67320  Biso   1.000  C
  H1       1.0000 0.35400  0.38790  0.16300  Biso   1.000  H
  H2       1.0000 0.64600  0.88790  0.33700  Biso   1.000  H
  H3       1.0000 0.64600  0.61210  0.83700  Biso   1.000  H
  H4       1.0000 0.35400  0.11210  0.66300  Biso   1.000  H
  C5       1.0000 0.49070  0.31670  0.13620  Biso   1.000  C
  C6       1.0000 0.50930  0.81670  0.36380  Biso   1.000  C
  C7       1.0000 0.50930  0.68330  0.86380  Biso   1.000  C
  C8       1.0000 0.49070  0.18330  0.63620  Biso   1.000  C
  H5       1.0000 0.46350  0.32280  0.10160  Biso   1.000  H
  H6       1.0000 0.53650  0.82280  0.39840  Biso   1.000  H
  H7       1.0000 0.53650  0.67720  0.89840  Biso   1.000  H
  H8       1.0000 0.46350  0.17720  0.60160  Biso   1.000  H
  C9       1.0000 0.59350  0.26840  0.15080  Biso   1.000  C
  C10      1.0000 0.40650  0.76840  0.34920  Biso   1.000  C
  C11      1.0000 0.40650  0.73160  0.84920  Biso   1.000  C
  C12      1.0000 0.59350  0.23160  0.65080  Biso   1.000  C
  H9       1.0000 0.63570  0.23970  0.12650  Biso   1.000  H
  H10      1.0000 0.36430  0.73970  0.37350  Biso   1.000  H
  H11      1.0000 0.36430  0.76030  0.87350  Biso   1.000  H
  H12      1.0000 0.63570  0.26030  0.62650  Biso   1.000  H
  C13      1.0000 0.63460  0.26240  0.20260  Biso   1.000  C
  C14      1.0000 0.36540  0.76240  0.29740  Biso   1.000  C
  C15      1.0000 0.36540  0.73760  0.79740  Biso   1.000  C
  C16      1.0000 0.63460  0.23760  0.70260  Biso   1.000  C
  H13      1.0000 0.70570  0.23040  0.21370  Biso   1.000  H
  H14      1.0000 0.29430  0.73040  0.28630  Biso   1.000  H
  H15      1.0000 0.29430  0.76960  0.78630  Biso   1.000  H
  H16      1.0000 0.70570  0.26960  0.71370  Biso   1.000  H
  C17      1.0000 0.56830  0.30460  0.23650  Biso   1.000  C
  C18      1.0000 0.43170  0.80460  0.26350  Biso   1.000  C
  C19      1.0000 0.43170  0.69540  0.76350  Biso   1.000  C
  C20      1.0000 0.56830  0.19540  0.73650  Biso   1.000  C
  C21      1.0000 0.59910  0.30280  0.29290  Biso   1.000  C
  C22      1.0000 0.40090  0.80280  0.20710  Biso   1.000  C
  C23      1.0000 0.40090  0.69720  0.70710  Biso   1.000  C
  C24      1.0000 0.59910  0.19720  0.79290  Biso   1.000  C
  C25      1.0000 0.69990  0.25710  0.31670  Biso   1.000  C
  C26      1.0000 0.30010  0.75710  0.18330  Biso   1.000  C
  C27      1.0000 0.30010  0.74290  0.68330  Biso   1.000  C
  C28      1.0000 0.69990  0.24290  0.81670  Biso   1.000  C
  H17      1.0000 0.75330  0.22600  0.29730  Biso   1.000  H
  H18      1.0000 0.24670  0.72600  0.20270  Biso   1.000  H
  H19      1.0000 0.24670  0.77400  0.70270  Biso   1.000  H
  H20      1.0000 0.75330  0.27400  0.79730  Biso   1.000  H
  C29      1.0000 0.71900  0.25890  0.36920  Biso   1.000  C
  C30      1.0000 0.28100  0.75890  0.13080  Biso   1.000  C
  C31      1.0000 0.28100  0.74110  0.63080  Biso   1.000  C
  C32      1.0000 0.71900  0.24110  0.86920  Biso   1.000  C
  H21      1.0000 0.78490  0.22840  0.38600  Biso   1.000  H
  H22      1.0000 0.21510  0.72840  0.11400  Biso   1.000  H
  H23      1.0000 0.21510  0.77160  0.61400  Biso   1.000  H
  H24      1.0000 0.78490  0.27160  0.88600  Biso   1.000  H
  C33      1.0000 0.64010  0.30600  0.39690  Biso   1.000  C
  C34      1.0000 0.35990  0.80600  0.10310  Biso   1.000  C
  C35      1.0000 0.35990  0.69400  0.60310  Biso   1.000  C
  C36      1.0000 0.64010  0.19400  0.89690  Biso   1.000  C
  H25      1.0000 0.65140  0.30780  0.43260  Biso   1.000  H
  H26      1.0000 0.34860  0.80780  0.06740  Biso   1.000  H
  H27      1.0000 0.34860  0.69220  0.56740  Biso   1.000  H
  H28      1.0000 0.65140  0.19220  0.93260  Biso   1.000  H
  C37      1.0000 0.54460  0.35000  0.37080  Biso   1.000  C
  C38      1.0000 0.45540  0.85000  0.12920  Biso   1.000  C
  C39      1.0000 0.45540  0.65000  0.62920  Biso   1.000  C
  C40      1.0000 0.54460  0.15000  0.87080  Biso   1.000  C
  H29      1.0000 0.49220  0.38250  0.38950  Biso   1.000  H
  H30      1.0000 0.50780  0.88250  0.11050  Biso   1.000  H
  H31      1.0000 0.50780  0.61750  0.61050  Biso   1.000  H
  H32      1.0000 0.49220  0.11750  0.88950  Biso   1.000  H
  C41      1.0000 0.94090  0.84860  0.17130  Biso   1.000  C
  C42      1.0000 0.05910  0.34860  0.32870  Biso   1.000  C
  C43      1.0000 0.05910  0.15140  0.82870  Biso   1.000  C
  C44      1.0000 0.94090  0.65140  0.67130  Biso   1.000  C
  H33      1.0000 0.87400  0.81470  0.15910  Biso   1.000  H
  H34      1.0000 0.12600  0.31470  0.34090  Biso   1.000  H
  H35      1.0000 0.12600  0.18530  0.84090  Biso   1.000  H
  H36      1.0000 0.87400  0.68530  0.65910  Biso   1.000  H
  C45      1.0000 0.00440  0.89450  0.13680  Biso   1.000  C
  C46      1.0000 0.99560  0.39450  0.36320  Biso   1.000  C
  C47      1.0000 0.99560  0.10550  0.86320  Biso   1.000  C
  C48      1.0000 0.00440  0.60550  0.63680  Biso   1.000  C
  H37      1.0000 0.98010  0.89170  0.10170  Biso   1.000  H
  H38      1.0000 0.01990  0.39170  0.39830  Biso   1.000  H
  H39      1.0000 0.01990  0.10830  0.89830  Biso   1.000  H
  H40      1.0000 0.98010  0.60830  0.60170  Biso   1.000  H
  C49      1.0000 0.10260  0.94370  0.15490  Biso   1.000  C
  C50      1.0000 0.89740  0.44370  0.34510  Biso   1.000  C
  C51      1.0000 0.89740  0.05630  0.84510  Biso   1.000  C
  C52      1.0000 0.10260  0.55630  0.65490  Biso   1.000  C
  H41      1.0000 0.14500  0.97520  0.13220  Biso   1.000  H
  H42      1.0000 0.85500  0.47520  0.36780  Biso   1.000  H
  H43      1.0000 0.85500  0.02480  0.86780  Biso   1.000  H
  H44      1.0000 0.14500  0.52480  0.63220  Biso   1.000  H
  C53      1.0000 0.13850  0.94690  0.20620  Biso   1.000  C
  C54      1.0000 0.86150  0.44690  0.29380  Biso   1.000  C
  C55      1.0000 0.86150  0.05310  0.79380  Biso   1.000  C
  C56      1.0000 0.13850  0.55310  0.70620  Biso   1.000  C
  H45      1.0000 0.20620  0.98000  0.21890  Biso   1.000  H
  H46      1.0000 0.79380  0.48000  0.28110  Biso   1.000  H
  H47      1.0000 0.79380  0.02000  0.78110  Biso   1.000  H
  H48      1.0000 0.20620  0.52000  0.71890  Biso   1.000  H
  C57      1.0000 0.07300  0.90010  0.23940  Biso   1.000  C
  C58      1.0000 0.92700  0.40010  0.26060  Biso   1.000  C
  C59      1.0000 0.92700  0.09990  0.76060  Biso   1.000  C
  C60      1.0000 0.07300  0.59990  0.73940  Biso   1.000  C
  C61      1.0000 0.10280  0.89900  0.29520  Biso   1.000  C
  C62      1.0000 0.89720  0.39900  0.20480  Biso   1.000  C
  C63      1.0000 0.89720  0.10100  0.70480  Biso   1.000  C
  C64      1.0000 0.10280  0.60100  0.79520  Biso   1.000  C
  C65      1.0000 0.20060  0.94320  0.32030  Biso   1.000  C
  C66      1.0000 0.79940  0.44320  0.17970  Biso   1.000  C
  C67      1.0000 0.79940  0.05680  0.67970  Biso   1.000  C
  C68      1.0000 0.20060  0.55680  0.82030  Biso   1.000  C
  H49      1.0000 0.25100  0.97760  0.30230  Biso   1.000  H
  H50      1.0000 0.74900  0.47760  0.19770  Biso   1.000  H
  H51      1.0000 0.74900  0.02240  0.69770  Biso   1.000  H
  H52      1.0000 0.25100  0.52240  0.80230  Biso   1.000  H
  C69      1.0000 0.22220  0.93530  0.37270  Biso   1.000  C
  C70      1.0000 0.77780  0.43530  0.12730  Biso   1.000  C
  C71      1.0000 0.77780  0.06470  0.62730  Biso   1.000  C
  C72      1.0000 0.22220  0.56470  0.87270  Biso   1.000  C
  H53      1.0000 0.28830  0.96430  0.39080  Biso   1.000  H
  H54      1.0000 0.71170  0.46430  0.10920  Biso   1.000  H
  H55      1.0000 0.71170  0.03570  0.60920  Biso   1.000  H
  H56      1.0000 0.28830  0.53570  0.89080  Biso   1.000  H
  C73      1.0000 0.14480  0.88400  0.39840  Biso   1.000  C
  C74      1.0000 0.85520  0.38400  0.10160  Biso   1.000  C
  C75      1.0000 0.85520  0.11600  0.60160  Biso   1.000  C
  C76      1.0000 0.14480  0.61600  0.89840  Biso   1.000  C
  H57      1.0000 0.15880  0.87740  0.43370  Biso   1.000  H
  H58      1.0000 0.84120  0.37740  0.06630  Biso   1.000  H
  H59      1.0000 0.84120  0.12260  0.56630  Biso   1.000  H
  H60      1.0000 0.15880  0.62260  0.93370  Biso   1.000  H
  C77      1.0000 0.04660  0.84290  0.37030  Biso   1.000  C
  C78      1.0000 0.95340  0.34290  0.12970  Biso   1.000  C
  C79      1.0000 0.95340  0.15710  0.62970  Biso   1.000  C
  C80      1.0000 0.04660  0.65710  0.87030  Biso   1.000  C
  H61      1.0000 0.99360  0.80870  0.38740  Biso   1.000  H
  H62      1.0000 0.00640  0.30870  0.11260  Biso   1.000  H
  H63      1.0000 0.00640  0.19130  0.61260  Biso   1.000  H
  H64      1.0000 0.99360  0.69130  0.88740  Biso   1.000  H
  C81      1.0000 0.24980  0.52820  0.14350  Biso   1.000  C
  C82      1.0000 0.75020  0.02820  0.35650  Biso   1.000  C
  C83      1.0000 0.75020  0.47180  0.85650  Biso   1.000  C
  C84      1.0000 0.24980  0.97180  0.64350  Biso   1.000  C
  C85      1.0000 0.37610  0.54190  0.12270  Biso   1.000  C
  C86      1.0000 0.62390  0.04190  0.37730  Biso   1.000  C
  C87      1.0000 0.62390  0.45810  0.87730  Biso   1.000  C
  C88      1.0000 0.37610  0.95810  0.62270  Biso   1.000  C
  H65      1.0000 0.45020  0.55850  0.14410  Biso   1.000  H
  H66      1.0000 0.54980  0.05850  0.35590  Biso   1.000  H
  H67      1.0000 0.54980  0.44150  0.85590  Biso   1.000  H
  H68      1.0000 0.45020  0.94150  0.64410  Biso   1.000  H
  C89      1.0000 0.39330  0.53120  0.07130  Biso   1.000  C
  C90      1.0000 0.60670  0.03120  0.42870  Biso   1.000  C
  C91      1.0000 0.60670  0.46880  0.92870  Biso   1.000  C
  C92      1.0000 0.39330  0.96880  0.57130  Biso   1.000  C
  H69      1.0000 0.47880  0.53960  0.05800  Biso   1.000  H
  H70      1.0000 0.52120  0.03960  0.44200  Biso   1.000  H
  H71      1.0000 0.52120  0.46040  0.94200  Biso   1.000  H
  H72      1.0000 0.47880  0.96040  0.55800  Biso   1.000  H
  C93      1.0000 0.28330  0.50820  0.03970  Biso   1.000  C
  C94      1.0000 0.71670  0.00820  0.46030  Biso   1.000  C
  C95      1.0000 0.71670  0.49180  0.96030  Biso   1.000  C
  C96      1.0000 0.28330  0.99180  0.53970  Biso   1.000  C
  H73      1.0000 0.29400  0.50180  0.00470  Biso   1.000  H
  H74      1.0000 0.70600  0.00180  0.49530  Biso   1.000  H
  H75      1.0000 0.70600  0.49820  0.99530  Biso   1.000  H
  H76      1.0000 0.29400  0.99820  0.50470  Biso   1.000  H
  C97      1.0000 0.15850  0.49470  0.05900  Biso   1.000  C
  C98      1.0000 0.84150  0.99470  0.44100  Biso   1.000  C
  C99      1.0000 0.84150  0.50530  0.94100  Biso   1.000  C
  C100     1.0000 0.15850  0.00530  0.55900  Biso   1.000  C
  H77      1.0000 0.08460  0.47900  0.03720  Biso   1.000  H
  H78      1.0000 0.91540  0.97900  0.46280  Biso   1.000  H
  H79      1.0000 0.91540  0.52100  0.96280  Biso   1.000  H
  H80      1.0000 0.08460  0.02100  0.53720  Biso   1.000  H
  C101     1.0000 0.14140  0.50430  0.11070  Biso   1.000  C
  C102     1.0000 0.85860  0.00430  0.38930  Biso   1.000  C
  C103     1.0000 0.85860  0.49570  0.88930  Biso   1.000  C
  C104     1.0000 0.14140  0.99570  0.61070  Biso   1.000  C
  H81      1.0000 0.05600  0.49460  0.12370  Biso   1.000  H
  H82      1.0000 0.94400  0.99460  0.37630  Biso   1.000  H
  H83      1.0000 0.94400  0.50540  0.87630  Biso   1.000  H
  H84      1.0000 0.05600  0.00540  0.62370  Biso   1.000  H
  C105     1.0000 0.75140  0.65980  0.14170  Biso   1.000  C
  C106     1.0000 0.24860  0.15980  0.35830  Biso   1.000  C
  C107     1.0000 0.24860  0.34020  0.85830  Biso   1.000  C
  C108     1.0000 0.75140  0.84020  0.64170  Biso   1.000  C
  C109     1.0000 0.88070  0.64390  0.12350  Biso   1.000  C
  C110     1.0000 0.11930  0.14390  0.37650  Biso   1.000  C
  C111     1.0000 0.11930  0.35610  0.87650  Biso   1.000  C
  C112     1.0000 0.88070  0.85610  0.62350  Biso   1.000  C
  H85      1.0000 0.95670  0.63580  0.14630  Biso   1.000  H
  H86      1.0000 0.04330  0.13580  0.35370  Biso   1.000  H
  H87      1.0000 0.04330  0.36420  0.85370  Biso   1.000  H
  H88      1.0000 0.95670  0.86420  0.64630  Biso   1.000  H
  C113     1.0000 0.89390  0.64030  0.07060  Biso   1.000  C
  C114     1.0000 0.10610  0.14030  0.42940  Biso   1.000  C
  C115     1.0000 0.10610  0.35970  0.92940  Biso   1.000  C
  C116     1.0000 0.89390  0.85970  0.57060  Biso   1.000  C
  H89      1.0000 0.97930  0.62970  0.05790  Biso   1.000  H
  H90      1.0000 0.02070  0.12970  0.44210  Biso   1.000  H
  H91      1.0000 0.02070  0.37030  0.94210  Biso   1.000  H
  H92      1.0000 0.97930  0.87030  0.55790  Biso   1.000  H
  C117     1.0000 0.78240  0.65230  0.03750  Biso   1.000  C
  C118     1.0000 0.21760  0.15230  0.46250  Biso   1.000  C
  C119     1.0000 0.21760  0.34770  0.96250  Biso   1.000  C
  C120     1.0000 0.78240  0.84770  0.53750  Biso   1.000  C
  H93      1.0000 0.79230  0.65040  0.00220  Biso   1.000  H
  H94      1.0000 0.20770  0.15040  0.49780  Biso   1.000  H
  H95      1.0000 0.20770  0.34960  0.99780  Biso   1.000  H
  H96      1.0000 0.79230  0.84960  0.50220  Biso   1.000  H
  C121     1.0000 0.65580  0.66700  0.05550  Biso   1.000  C
  C122     1.0000 0.34420  0.16700  0.44450  Biso   1.000  C
  C123     1.0000 0.34420  0.33300  0.94450  Biso   1.000  C
  C124     1.0000 0.65580  0.83300  0.55550  Biso   1.000  C
  H97      1.0000 0.57970  0.67430  0.03250  Biso   1.000  H
  H98      1.0000 0.42030  0.17430  0.46750  Biso   1.000  H
  H99      1.0000 0.42030  0.32570  0.96750  Biso   1.000  H
  H100     1.0000 0.57970  0.82570  0.53250  Biso   1.000  H
  C125     1.0000 0.64140  0.67090  0.10770  Biso   1.000  C
  C126     1.0000 0.35860  0.17090  0.39230  Biso   1.000  C
  C127     1.0000 0.35860  0.32910  0.89230  Biso   1.000  C
  C128     1.0000 0.64140  0.82910  0.60770  Biso   1.000  C
  H101     1.0000 0.55520  0.68130  0.11980  Biso   1.000  H
  H102     1.0000 0.44480  0.18130  0.38020  Biso   1.000  H
  H103     1.0000 0.44480  0.31870  0.88020  Biso   1.000  H
  H104     1.0000 0.55520  0.81870  0.61980  Biso   1.000  H
  C129     1.0000 0.75930  0.66500  0.41280  Biso   1.000  C
  C130     1.0000 0.24070  0.16500  0.08720  Biso   1.000  C
  C131     1.0000 0.24070  0.33500  0.58720  Biso   1.000  C
  C132     1.0000 0.75930  0.83500  0.91280  Biso   1.000  C
  C133     1.0000 0.87280  0.67340  0.44600  Biso   1.000  C
  C134     1.0000 0.12720  0.17340  0.05400  Biso   1.000  C
  C135     1.0000 0.12720  0.32660  0.55400  Biso   1.000  C
  C136     1.0000 0.87280  0.82660  0.94600  Biso   1.000  C
  H105     1.0000 0.95970  0.67790  0.43300  Biso   1.000  H
  H106     1.0000 0.04030  0.17790  0.06700  Biso   1.000  H
  H107     1.0000 0.04030  0.32210  0.56700  Biso   1.000  H
  H108     1.0000 0.95970  0.82210  0.93300  Biso   1.000  H
  C137     1.0000 0.86070  0.67520  0.49880  Biso   1.000  C
  C138     1.0000 0.13930  0.17520  0.00120  Biso   1.000  C
  C139     1.0000 0.13930  0.32480  0.50120  Biso   1.000  C
  C140     1.0000 0.86070  0.82480  0.99880  Biso   1.000  C
  H109     1.0000 0.93850  0.68150  0.52110  Biso   1.000  H
  H110     1.0000 0.06150  0.18150  0.97890  Biso   1.000  H
  H111     1.0000 0.06150  0.31850  0.47890  Biso   1.000  H
  H112     1.0000 0.93850  0.81850  0.02110  Biso   1.000  H
  C141     1.0000 0.73290  0.66770  0.51760  Biso   1.000  C
  C142     1.0000 0.26710  0.16770  0.98240  Biso   1.000  C
  C143     1.0000 0.26710  0.33230  0.48240  Biso   1.000  C
  C144     1.0000 0.73290  0.83230  0.01760  Biso   1.000  C
  H113     1.0000 0.72340  0.66910  0.55300  Biso   1.000  H
  H114     1.0000 0.27660  0.16910  0.94700  Biso   1.000  H
  H115     1.0000 0.27660  0.33090  0.44700  Biso   1.000  H
  H116     1.0000 0.72340  0.83090  0.05300  Biso   1.000  H
  C145     1.0000 0.61870  0.65820  0.48460  Biso   1.000  C
  C146     1.0000 0.38130  0.15820  0.01540  Biso   1.000  C
  C147     1.0000 0.38130  0.34180  0.51540  Biso   1.000  C
  C148     1.0000 0.61870  0.84180  0.98460  Biso   1.000  C
  H117     1.0000 0.53180  0.65240  0.49730  Biso   1.000  H
  H118     1.0000 0.46820  0.15240  0.00270  Biso   1.000  H
  H119     1.0000 0.46820  0.34760  0.50270  Biso   1.000  H
  H120     1.0000 0.53180  0.84760  0.99730  Biso   1.000  H
  C149     1.0000 0.63370  0.65730  0.43350  Biso   1.000  C
  C150     1.0000 0.36630  0.15730  0.06650  Biso   1.000  C
  C151     1.0000 0.36630  0.34270  0.56650  Biso   1.000  C
  C152     1.0000 0.63370  0.84270  0.93350  Biso   1.000  C
  H121     1.0000 0.55550  0.65110  0.41140  Biso   1.000  H
  H122     1.0000 0.44450  0.15110  0.08860  Biso   1.000  H
  H123     1.0000 0.44450  0.34890  0.58860  Biso   1.000  H
  H124     1.0000 0.55550  0.84890  0.91140  Biso   1.000  H
  C153     1.0000 0.26800  0.53650  0.41650  Biso   1.000  C
  C154     1.0000 0.73200  0.03650  0.08350  Biso   1.000  C
  C155     1.0000 0.73200  0.46350  0.58350  Biso   1.000  C
  C156     1.0000 0.26800  0.96350  0.91650  Biso   1.000  C
  C157     1.0000 0.38540  0.53210  0.44950  Biso   1.000  C
  C158     1.0000 0.61460  0.03210  0.05050  Biso   1.000  C
  C159     1.0000 0.61460  0.46790  0.55050  Biso   1.000  C
  C160     1.0000 0.38540  0.96790  0.94950  Biso   1.000  C
  H125     1.0000 0.47180  0.52870  0.43600  Biso   1.000  H
  H126     1.0000 0.52820  0.02870  0.06400  Biso   1.000  H
  H127     1.0000 0.52820  0.47130  0.56400  Biso   1.000  H
  H128     1.0000 0.47180  0.97130  0.93600  Biso   1.000  H
  C161     1.0000 0.37560  0.53250  0.50200  Biso   1.000  C
  C162     1.0000 0.62440  0.03250  0.99800  Biso   1.000  C
  C163     1.0000 0.62440  0.46750  0.49800  Biso   1.000  C
  C164     1.0000 0.37560  0.96750  0.00200  Biso   1.000  C
  H129     1.0000 0.45440  0.52820  0.52400  Biso   1.000  H
  H130     1.0000 0.54560  0.02820  0.97600  Biso   1.000  H
  H131     1.0000 0.54560  0.47180  0.47600  Biso   1.000  H
  H132     1.0000 0.45440  0.97180  0.02400  Biso   1.000  H
  C165     1.0000 0.24540  0.53970  0.52170  Biso   1.000  C
  C166     1.0000 0.75460  0.03970  0.97830  Biso   1.000  C
  C167     1.0000 0.75460  0.46030  0.47830  Biso   1.000  C
  C168     1.0000 0.24540  0.96030  0.02170  Biso   1.000  C
  H133     1.0000 0.23780  0.54320  0.55700  Biso   1.000  H
  H134     1.0000 0.76220  0.04320  0.94300  Biso   1.000  H
  H135     1.0000 0.76220  0.45680  0.44300  Biso   1.000  H
  H136     1.0000 0.23780  0.95680  0.05700  Biso   1.000  H
  C169     1.0000 0.13150  0.54140  0.49000  Biso   1.000  C
  C170     1.0000 0.86850  0.04140  0.01000  Biso   1.000  C
  C171     1.0000 0.86850  0.45860  0.51000  Biso   1.000  C
  C172     1.0000 0.13150  0.95860  0.99000  Biso   1.000  C
  H137     1.0000 0.04570  0.54250  0.50410  Biso   1.000  H
  H138     1.0000 0.95430  0.04250  0.99590  Biso   1.000  H
  H139     1.0000 0.95430  0.45750  0.49590  Biso   1.000  H
  H140     1.0000 0.04570  0.95750  0.00410  Biso   1.000  H
  C173     1.0000 0.13660  0.54170  0.43610  Biso   1.000  C
  C174     1.0000 0.86340  0.04170  0.06390  Biso   1.000  C
  C175     1.0000 0.86340  0.45830  0.56390  Biso   1.000  C
  C176     1.0000 0.13660  0.95830  0.93610  Biso   1.000  C
  H141     1.0000 0.05680  0.54510  0.41450  Biso   1.000  H
  H142     1.0000 0.94320  0.04510  0.08550  Biso   1.000  H
  H143     1.0000 0.94320  0.45490  0.58550  Biso   1.000  H
  H144     1.0000 0.05680  0.95490  0.91450  Biso   1.000  H
  C177     1.0000 0.25260  0.55540  0.41120  Biso   1.000  C
  C178     1.0000 0.74740  0.05540  0.08880  Biso   1.000  C
  C179     1.0000 0.74740  0.44460  0.58880  Biso   1.000  C
  C180     1.0000 0.25260  0.94460  0.91120  Biso   1.000  C
  C181     1.0000 0.26700  0.50000  0.44740  Biso   1.000  C
  C182     1.0000 0.73300  0.00000  0.05260  Biso   1.000  C
  C183     1.0000 0.73300  0.50000  0.55260  Biso   1.000  C
  C184     1.0000 0.26700  0.00000  0.94740  Biso   1.000  C
  H145     1.0000 0.29170  0.45250  0.43700  Biso   1.000  H
  H146     1.0000 0.70830  0.95250  0.06300  Biso   1.000  H
  H147     1.0000 0.70830  0.54750  0.56300  Biso   1.000  H
  H148     1.0000 0.29170  0.04750  0.93700  Biso   1.000  H
  C185     1.0000 0.24610  0.51240  0.49900  Biso   1.000  C
  C186     1.0000 0.75390  0.01240  0.00100  Biso   1.000  C
  C187     1.0000 0.75390  0.48760  0.50100  Biso   1.000  C
  C188     1.0000 0.24610  0.98760  0.99900  Biso   1.000  C
  H149     1.0000 0.25430  0.47360  0.52270  Biso   1.000  H
  H150     1.0000 0.74570  0.97360  0.97730  Biso   1.000  H
  H151     1.0000 0.74570  0.52640  0.47730  Biso   1.000  H
  H152     1.0000 0.25430  0.02640  0.02270  Biso   1.000  H
  C189     1.0000 0.21330  0.58240  0.51420  Biso   1.000  C
  C190     1.0000 0.78670  0.08240  0.98580  Biso   1.000  C
  C191     1.0000 0.78670  0.41760  0.48580  Biso   1.000  C
  C192     1.0000 0.21330  0.91760  0.01420  Biso   1.000  C
  H153     1.0000 0.19950  0.59150  0.54860  Biso   1.000  H
  H154     1.0000 0.80050  0.09150  0.95140  Biso   1.000  H
  H155     1.0000 0.80050  0.40850  0.45140  Biso   1.000  H
  H156     1.0000 0.19950  0.90850  0.04860  Biso   1.000  H
  C193     1.0000 0.20000  0.64060  0.47900  Biso   1.000  C
  C194     1.0000 0.80000  0.14060  0.02100  Biso   1.000  C
  C195     1.0000 0.80000  0.35940  0.52100  Biso   1.000  C
  C196     1.0000 0.20000  0.85940  0.97900  Biso   1.000  C
  H157     1.0000 0.17990  0.68860  0.48970  Biso   1.000  H
  H158     1.0000 0.82010  0.18860  0.01030  Biso   1.000  H
  H159     1.0000 0.82010  0.31140  0.51030  Biso   1.000  H
  H160     1.0000 0.17990  0.81140  0.98970  Biso   1.000  H
  C197     1.0000 0.21700  0.62590  0.42810  Biso   1.000  C
  C198     1.0000 0.78300  0.12590  0.07190  Biso   1.000  C
  C199     1.0000 0.78300  0.37410  0.57190  Biso   1.000  C
  C200     1.0000 0.21700  0.87410  0.92810  Biso   1.000  C
  H161     1.0000 0.20430  0.66420  0.40420  Biso   1.000  H
  H162     1.0000 0.79570  0.16420  0.09580  Biso   1.000  H
  H163     1.0000 0.79570  0.33580  0.59580  Biso   1.000  H
  H164     1.0000 0.20430  0.83580  0.90420  Biso   1.000  H
