data_image0
_cell_length_a       10.5889
_cell_length_b       13.9179
_cell_length_c       17.7727
_cell_angle_alpha    106.056
_cell_angle_beta     103.989
_cell_angle_gamma    100.669

_symmetry_space_group_name_H-M    "P 1"
_symmetry_int_tables_number       1

loop_
  _symmetry_equiv_pos_as_xyz
  'x, y, z'

loop_
  _atom_site_label
  _atom_site_occupancy
  _atom_site_fract_x
  _atom_site_fract_y
  _atom_site_fract_z
  _atom_site_thermal_displace_type
  _atom_site_B_iso_or_equiv
  _atom_site_type_symbol
  Cu1      1.0000 0.79199  0.23308  0.54810  Biso   1.000  Cu
  Cu2      1.0000 0.20801  0.76692  0.45190  Biso   1.000  Cu
  Cu3      1.0000 0.26385  0.19454  0.84388  Biso   1.000  Cu
  Cu4      1.0000 0.73615  0.80546  0.15612  Biso   1.000  Cu
  V1       1.0000 0.16206  0.15036  0.63083  Biso   1.000  V
  V2       1.0000 0.83794  0.84964  0.36917  Biso   1.000  V
  V3       1.0000 0.10528  0.33865  0.95359  Biso   1.000  V
  V4       1.0000 0.89472  0.66135  0.04641  Biso   1.000  V
  V5       1.0000 0.97078  0.24986  0.75756  Biso   1.000  V
  V6       1.0000 0.02922  0.75014  0.24244  Biso   1.000  V
  P1       1.0000 0.00003  0.10773  0.86178  Biso   1.000  P
  P2       1.0000 0.99997  0.89227  0.13822  Biso   1.000  P
  P3       1.0000 0.10482  0.57053  0.93905  Biso   1.000  P
  P4       1.0000 0.89518  0.42947  0.06095  Biso   1.000  P
  P5       1.0000 0.08618  0.36702  0.65202  Biso   1.000  P
  P6       1.0000 0.91382  0.63298  0.34798  Biso   1.000  P
  P7       1.0000 0.96546  0.10210  0.45469  Biso   1.000  P
  P8       1.0000 0.03454  0.89790  0.54531  Biso   1.000  P
  O1       1.0000 0.87270  0.12856  0.50503  Biso   1.000  O
  O2       1.0000 0.12730  0.87144  0.49497  Biso   1.000  O
  O3       1.0000 0.10500  0.11116  0.51057  Biso   1.000  O
  O4       1.0000 0.89500  0.88884  0.48943  Biso   1.000  O
  O5       1.0000 0.84290  0.21348  0.67447  Biso   1.000  O
  O6       1.0000 0.15710  0.78652  0.32553  Biso   1.000  O
  O7       1.0000 0.95220  0.34840  0.58815  Biso   1.000  O
  O8       1.0000 0.04780  0.65160  0.41185  Biso   1.000  O
  O9       1.0000 0.07200  0.37200  0.73712  Biso   1.000  O
  O10      1.0000 0.92800  0.62800  0.26288  Biso   1.000  O
  O11      1.0000 0.90660  0.99624  0.38808  Biso   1.000  O
  O12      1.0000 0.09340  0.00376  0.61192  Biso   1.000  O
  O13      1.0000 0.16510  0.28984  0.62389  Biso   1.000  O
  O14      1.0000 0.83490  0.71016  0.37611  Biso   1.000  O
  O15      1.0000 0.32080  0.16189  0.65790  Biso   1.000  O
  O16      1.0000 0.67920  0.83811  0.34210  Biso   1.000  O
  O17      1.0000 0.14110  0.09422  0.86597  Biso   1.000  O
  O18      1.0000 0.85890  0.90578  0.13403  Biso   1.000  O
  O19      1.0000 0.93070  0.12043  0.78060  Biso   1.000  O
  O20      1.0000 0.06930  0.87957  0.21940  Biso   1.000  O
  O21      1.0000 0.00000  0.19710  0.93551  Biso   1.000  O
  O22      1.0000 0.00000  0.80290  0.06449  Biso   1.000  O
  O23      1.0000 0.01840  0.53565  0.84578  Biso   1.000  O
  O24      1.0000 0.98160  0.46435  0.15422  Biso   1.000  O
  O25      1.0000 0.16010  0.48413  0.95625  Biso   1.000  O
  O26      1.0000 0.83990  0.51587  0.04375  Biso   1.000  O
  O27      1.0000 0.11790  0.18475  0.71732  Biso   1.000  O
  O28      1.0000 0.88210  0.81525  0.28268  Biso   1.000  O
  O29      1.0000 0.16260  0.29372  0.87213  Biso   1.000  O
  O30      1.0000 0.83740  0.70628  0.12787  Biso   1.000  O
  O31      1.0000 0.92680  0.32050  0.83300  Biso   1.000  O
  O32      1.0000 0.07320  0.67950  0.16700  Biso   1.000  O
  O33      1.0000 0.22590  0.34725  0.03022  Biso   1.000  O
  O34      1.0000 0.77410  0.65275  0.96978  Biso   1.000  O
  O35      1.0000 0.02340  0.61398  0.99011  Biso   1.000  O
  O36      1.0000 0.97660  0.38602  0.00989  Biso   1.000  O
  N1       1.0000 0.60640  0.14081  0.48235  Biso   1.000  N
  N2       1.0000 0.39360  0.85919  0.51765  Biso   1.000  N
  N3       1.0000 0.68300  0.32626  0.58789  Biso   1.000  N
  N4       1.0000 0.31700  0.67374  0.41211  Biso   1.000  N
  N5       1.0000 0.41670  0.29721  0.84240  Biso   1.000  N
  N6       1.0000 0.58330  0.70279  0.15760  Biso   1.000  N
  N7       1.0000 0.38650  0.10635  0.83094  Biso   1.000  N
  N8       1.0000 0.61350  0.89365  0.16906  Biso   1.000  N
  C1       1.0000 0.57760  0.04460  0.42877  Biso   1.000  C
  C2       1.0000 0.42240  0.95540  0.57123  Biso   1.000  C
  H1       1.0000 0.64960  0.01690  0.41830  Biso   1.000  H
  H2       1.0000 0.35040  0.98310  0.58170  Biso   1.000  H
  C3       1.0000 0.44630  0.98490  0.38850  Biso   1.000  C
  C4       1.0000 0.55370  0.01510  0.61150  Biso   1.000  C
  H3       1.0000 0.42830  0.91670  0.35090  Biso   1.000  H
  H4       1.0000 0.57170  0.08330  0.64910  Biso   1.000  H
  C5       1.0000 0.34160  0.02470  0.40310  Biso   1.000  C
  C6       1.0000 0.65840  0.97530  0.59690  Biso   1.000  C
  H5       1.0000 0.25060  0.98450  0.37550  Biso   1.000  H
  H6       1.0000 0.74940  0.01550  0.62450  Biso   1.000  H
  C7       1.0000 0.36990  0.12370  0.45830  Biso   1.000  C
  C8       1.0000 0.63010  0.87630  0.54170  Biso   1.000  C
  H7       1.0000 0.29910  0.15280  0.46910  Biso   1.000  H
  H8       1.0000 0.70090  0.84720  0.53090  Biso   1.000  H
  C9       1.0000 0.50400  0.17950  0.49750  Biso   1.000  C
  C10      1.0000 0.49600  0.82050  0.50250  Biso   1.000  C
  C11      1.0000 0.54810  0.28440  0.55943  Biso   1.000  C
  C12      1.0000 0.45190  0.71560  0.44057  Biso   1.000  C
  C13      1.0000 0.46100  0.33650  0.58770  Biso   1.000  C
  C14      1.0000 0.53900  0.66350  0.41230  Biso   1.000  C
  H9       1.0000 0.36630  0.30500  0.56810  Biso   1.000  H
  H10      1.0000 0.63370  0.69500  0.43190  Biso   1.000  H
  C15      1.0000 0.51420  0.43550  0.64520  Biso   1.000  C
  C16      1.0000 0.48580  0.56450  0.35480  Biso   1.000  C
  H11      1.0000 0.45610  0.47380  0.66450  Biso   1.000  H
  H12      1.0000 0.54390  0.52620  0.33550  Biso   1.000  H
  C17      1.0000 0.65200  0.47790  0.67420  Biso   1.000  C
  C18      1.0000 0.34800  0.52210  0.32580  Biso   1.000  C
  H13      1.0000 0.69030  0.54560  0.71390  Biso   1.000  H
  H14      1.0000 0.30970  0.45440  0.28610  Biso   1.000  H
  C19      1.0000 0.73350  0.42100  0.64489  Biso   1.000  C
  C20      1.0000 0.26650  0.57900  0.35511  Biso   1.000  C
  H15      1.0000 0.82870  0.44970  0.66580  Biso   1.000  H
  H16      1.0000 0.17130  0.55030  0.33420  Biso   1.000  H
  C21      1.0000 0.35980  0.00760  0.82814  Biso   1.000  C
  C22      1.0000 0.64020  0.99240  0.17186  Biso   1.000  C
  H17      1.0000 0.27690  0.97710  0.83470  Biso   1.000  H
  H18      1.0000 0.72310  0.02290  0.16530  Biso   1.000  H
  C23      1.0000 0.44990  0.94810  0.81591  Biso   1.000  C
  C24      1.0000 0.55010  0.05190  0.18409  Biso   1.000  C
  H19      1.0000 0.42860  0.87760  0.81300  Biso   1.000  H
  H20      1.0000 0.57140  0.12240  0.18700  Biso   1.000  H
  C25      1.0000 0.57120  0.99430  0.80808  Biso   1.000  C
  C26      1.0000 0.42880  0.00570  0.19192  Biso   1.000  C
  H21      1.0000 0.63340  0.95490  0.79810  Biso   1.000  H
  H22      1.0000 0.36660  0.04510  0.20190  Biso   1.000  H
  C27      1.0000 0.60190  0.09790  0.81482  Biso   1.000  C
  C28      1.0000 0.39810  0.90210  0.18518  Biso   1.000  C
  H23      1.0000 0.68680  0.13130  0.81230  Biso   1.000  H
  H24      1.0000 0.31320  0.86870  0.18770  Biso   1.000  H
  C29      1.0000 0.50610  0.15230  0.82534  Biso   1.000  C
  C30      1.0000 0.49390  0.84770  0.17466  Biso   1.000  C
  C31      1.0000 0.52440  0.26200  0.83375  Biso   1.000  C
  C32      1.0000 0.47560  0.73800  0.16625  Biso   1.000  C
  C33      1.0000 0.64200  0.32690  0.83602  Biso   1.000  C
  C34      1.0000 0.35800  0.67310  0.16398  Biso   1.000  C
  H25      1.0000 0.71690  0.30090  0.82930  Biso   1.000  H
  H26      1.0000 0.28310  0.69910  0.17070  Biso   1.000  H
  C35      1.0000 0.64860  0.43060  0.84823  Biso   1.000  C
  C36      1.0000 0.35140  0.56940  0.15177  Biso   1.000  C
  H27      1.0000 0.72920  0.47710  0.85140  Biso   1.000  H
  H28      1.0000 0.27080  0.52290  0.14860  Biso   1.000  H
  C37      1.0000 0.53690  0.46580  0.85580  Biso   1.000  C
  C38      1.0000 0.46310  0.53420  0.14420  Biso   1.000  C
  H29      1.0000 0.53900  0.53640  0.86320  Biso   1.000  H
  H30      1.0000 0.46100  0.46360  0.13680  Biso   1.000  H
  C39      1.0000 0.42200  0.39640  0.85228  Biso   1.000  C
  C40      1.0000 0.57800  0.60360  0.14772  Biso   1.000  C
  H31      1.0000 0.34480  0.42010  0.85710  Biso   1.000  H
  H32      1.0000 0.65520  0.57990  0.14290  Biso   1.000  H
  C41      1.0000 0.90030  0.98950  0.86174  Biso   1.000  C
  C42      1.0000 0.09970  0.01050  0.13826  Biso   1.000  C
  C43      1.0000 0.86030  0.90270  0.79070  Biso   1.000  C
  C44      1.0000 0.13970  0.09730  0.20930  Biso   1.000  C
  H33      1.0000 0.88570  0.90760  0.74390  Biso   1.000  H
  H34      1.0000 0.11430  0.09240  0.25610  Biso   1.000  H
  C45      1.0000 0.78340  0.80860  0.78830  Biso   1.000  C
  C46      1.0000 0.21660  0.19140  0.21170  Biso   1.000  C
  H35      1.0000 0.75380  0.75000  0.73930  Biso   1.000  H
  H36      1.0000 0.24620  0.25000  0.26070  Biso   1.000  H
  C47      1.0000 0.75020  0.80060  0.85700  Biso   1.000  C
  C48      1.0000 0.24980  0.19940  0.14300  Biso   1.000  C
  H37      1.0000 0.69970  0.73590  0.85560  Biso   1.000  H
  H38      1.0000 0.30030  0.26410  0.14440  Biso   1.000  H
  C49      1.0000 0.79010  0.88650  0.92820  Biso   1.000  C
  C50      1.0000 0.20990  0.11350  0.07180  Biso   1.000  C
  H39      1.0000 0.76710  0.88050  0.97550  Biso   1.000  H
  H40      1.0000 0.23290  0.11950  0.02450  Biso   1.000  H
  C51      1.0000 0.86350  0.98080  0.93004  Biso   1.000  C
  C52      1.0000 0.13650  0.01920  0.06996  Biso   1.000  C
  H41      1.0000 0.88890  0.04000  0.97830  Biso   1.000  H
  H42      1.0000 0.11110  0.96000  0.02170  Biso   1.000  H
  C53      1.0000 0.98810  0.19020  0.39921  Biso   1.000  C
  C54      1.0000 0.01190  0.80980  0.60079  Biso   1.000  C
  C55      1.0000 0.09530  0.27860  0.42910  Biso   1.000  C
  C56      1.0000 0.90470  0.72140  0.57090  Biso   1.000  C
  H43      1.0000 0.16090  0.29400  0.48090  Biso   1.000  H
  H44      1.0000 0.83910  0.70600  0.51910  Biso   1.000  H
  C57      1.0000 0.10770  0.34470  0.38420  Biso   1.000  C
  C58      1.0000 0.89230  0.65530  0.61580  Biso   1.000  C
  H45      1.0000 0.18180  0.40510  0.40550  Biso   1.000  H
  H46      1.0000 0.81820  0.59490  0.59450  Biso   1.000  H
  C59      1.0000 0.01370  0.32390  0.30890  Biso   1.000  C
  C60      1.0000 0.98630  0.67610  0.69110  Biso   1.000  C
  H47      1.0000 0.02330  0.36930  0.27810  Biso   1.000  H
  H48      1.0000 0.97670  0.63070  0.72190  Biso   1.000  H
  C61      1.0000 0.90630  0.23700  0.27890  Biso   1.000  C
  C62      1.0000 0.09370  0.76300  0.72110  Biso   1.000  C
  H49      1.0000 0.84070  0.22210  0.22720  Biso   1.000  H
  H50      1.0000 0.15930  0.77790  0.77280  Biso   1.000  H
  C63      1.0000 0.89370  0.17080  0.32430  Biso   1.000  C
  C64      1.0000 0.10630  0.82920  0.67570  Biso   1.000  C
  H51      1.0000 0.81860  0.11110  0.30320  Biso   1.000  H
  H52      1.0000 0.18140  0.88890  0.69680  Biso   1.000  H
  C65      1.0000 0.18670  0.49150  0.66285  Biso   1.000  C
  C66      1.0000 0.81330  0.50850  0.33715  Biso   1.000  C
  C67      1.0000 0.28090  0.55620  0.73766  Biso   1.000  C
  C68      1.0000 0.71910  0.44380  0.26234  Biso   1.000  C
  H53      1.0000 0.28610  0.53870  0.78610  Biso   1.000  H
  H54      1.0000 0.71390  0.46130  0.21390  Biso   1.000  H
  C69      1.0000 0.36780  0.64720  0.74100  Biso   1.000  C
  C70      1.0000 0.63220  0.35280  0.25900  Biso   1.000  C
  H55      1.0000 0.43230  0.69140  0.79200  Biso   1.000  H
  H56      1.0000 0.56770  0.30860  0.20800  Biso   1.000  H
  C71      1.0000 0.36090  0.67320  0.67140  Biso   1.000  C
  C72      1.0000 0.63910  0.32680  0.32860  Biso   1.000  C
  H57      1.0000 0.42160  0.73450  0.67420  Biso   1.000  H
  H58      1.0000 0.57840  0.26550  0.32580  Biso   1.000  H
  C73      1.0000 0.26600  0.61060  0.59760  Biso   1.000  C
  C74      1.0000 0.73400  0.38940  0.40240  Biso   1.000  C
  H59      1.0000 0.26040  0.62930  0.54950  Biso   1.000  H
  H60      1.0000 0.73960  0.37070  0.45050  Biso   1.000  H
  C75      1.0000 0.17840  0.52020  0.59340  Biso   1.000  C
  C76      1.0000 0.82160  0.47980  0.40660  Biso   1.000  C
  H61      1.0000 0.11230  0.47770  0.54250  Biso   1.000  H
  H62      1.0000 0.88770  0.52230  0.45750  Biso   1.000  H
  C77      1.0000 0.24630  0.67350  0.95330  Biso   1.000  C
  C78      1.0000 0.75370  0.32650  0.04670  Biso   1.000  C
  C79      1.0000 0.37470  0.65960  0.96123  Biso   1.000  C
  C80      1.0000 0.62530  0.34040  0.03877  Biso   1.000  C
  H63      1.0000 0.38990  0.59460  0.96150  Biso   1.000  H
  H64      1.0000 0.61010  0.40540  0.03850  Biso   1.000  H
  C81      1.0000 0.48140  0.74100  0.96888  Biso   1.000  C
  C82      1.0000 0.51860  0.25900  0.03112  Biso   1.000  C
  H65      1.0000 0.56890  0.73090  0.97330  Biso   1.000  H
  H66      1.0000 0.43110  0.26910  0.02670  Biso   1.000  H
  C83      1.0000 0.46030  0.83560  0.97000  Biso   1.000  C
  C84      1.0000 0.53970  0.16440  0.03000  Biso   1.000  C
  H67      1.0000 0.53310  0.89080  0.97500  Biso   1.000  H
  H68      1.0000 0.46690  0.10920  0.02500  Biso   1.000  H
  C85      1.0000 0.33310  0.85130  0.96400  Biso   1.000  C
  C86      1.0000 0.66690  0.14870  0.03600  Biso   1.000  C
  H69      1.0000 0.31940  0.91720  0.96520  Biso   1.000  H
  H70      1.0000 0.68060  0.08280  0.03480  Biso   1.000  H
  C87      1.0000 0.22580  0.77080  0.95600  Biso   1.000  C
  C88      1.0000 0.77420  0.22920  0.04400  Biso   1.000  C
  H71      1.0000 0.13890  0.78180  0.95240  Biso   1.000  H
  H72      1.0000 0.86110  0.21820  0.04760  Biso   1.000  H
