data_image0
_cell_length_a       7.1891
_cell_length_b       22.1262
_cell_length_c       14.8335
_cell_angle_alpha    90
_cell_angle_beta     97.597
_cell_angle_gamma    90

_symmetry_space_group_name_H-M    "P 1"
_symmetry_int_tables_number       1

loop_
  _symmetry_equiv_pos_as_xyz
  'x, y, z'

loop_
  _atom_site_label
  _atom_site_occupancy
  _atom_site_fract_x
  _atom_site_fract_y
  _atom_site_fract_z
  _atom_site_thermal_displace_type
  _atom_site_B_iso_or_equiv
  _atom_site_type_symbol
  Cu1      1.0000 0.50067  0.54412  0.75486  Biso   1.000  Cu
  Cu2      1.0000 0.49933  0.04412  0.74514  Biso   1.000  Cu
  Cu3      1.0000 0.49933  0.45588  0.24514  Biso   1.000  Cu
  Cu4      1.0000 0.50067  0.95588  0.25486  Biso   1.000  Cu
  V1       1.0000 0.01447  0.58365  0.76863  Biso   1.000  V
  V2       1.0000 0.98553  0.08365  0.73137  Biso   1.000  V
  V3       1.0000 0.98553  0.41635  0.23137  Biso   1.000  V
  V4       1.0000 0.01447  0.91635  0.26863  Biso   1.000  V
  P1       1.0000 0.72008  0.64279  0.87908  Biso   1.000  P
  P2       1.0000 0.27992  0.14279  0.62092  Biso   1.000  P
  P3       1.0000 0.27992  0.35721  0.12092  Biso   1.000  P
  P4       1.0000 0.72008  0.85721  0.37908  Biso   1.000  P
  P5       1.0000 0.30169  0.66319  0.67240  Biso   1.000  P
  P6       1.0000 0.69831  0.16319  0.82760  Biso   1.000  P
  P7       1.0000 0.69831  0.33681  0.32760  Biso   1.000  P
  P8       1.0000 0.30169  0.83681  0.17240  Biso   1.000  P
  O1       1.0000 0.69030  0.69995  0.82198  Biso   1.000  O
  O2       1.0000 0.30970  0.19995  0.67802  Biso   1.000  O
  O3       1.0000 0.30970  0.30005  0.17802  Biso   1.000  O
  O4       1.0000 0.69030  0.80005  0.32198  Biso   1.000  O
  O5       1.0000 0.56650  0.59633  0.85997  Biso   1.000  O
  O6       1.0000 0.43350  0.09633  0.64003  Biso   1.000  O
  O7       1.0000 0.43350  0.40367  0.14003  Biso   1.000  O
  O8       1.0000 0.56650  0.90367  0.35997  Biso   1.000  O
  O9       1.0000 0.42680  0.60857  0.67027  Biso   1.000  O
  O10      1.0000 0.57320  0.10857  0.82973  Biso   1.000  O
  O11      1.0000 0.57320  0.39143  0.32973  Biso   1.000  O
  O12      1.0000 0.42680  0.89143  0.17027  Biso   1.000  O
  O13      1.0000 0.39050  0.71596  0.72775  Biso   1.000  O
  O14      1.0000 0.60950  0.21596  0.77225  Biso   1.000  O
  O15      1.0000 0.60950  0.28404  0.27225  Biso   1.000  O
  O16      1.0000 0.39050  0.78404  0.22775  Biso   1.000  O
  O17      1.0000 0.11170  0.64558  0.70554  Biso   1.000  O
  O18      1.0000 0.88830  0.14558  0.79446  Biso   1.000  O
  O19      1.0000 0.88830  0.35442  0.29446  Biso   1.000  O
  O20      1.0000 0.11170  0.85442  0.20554  Biso   1.000  O
  O21      1.0000 0.17960  0.53511  0.80066  Biso   1.000  O
  O22      1.0000 0.82040  0.03511  0.69934  Biso   1.000  O
  O23      1.0000 0.82040  0.46489  0.19934  Biso   1.000  O
  O24      1.0000 0.17960  0.96489  0.30066  Biso   1.000  O
  O25      1.0000 0.91630  0.61549  0.86815  Biso   1.000  O
  O26      1.0000 0.08370  0.11549  0.63185  Biso   1.000  O
  O27      1.0000 0.08370  0.38451  0.13185  Biso   1.000  O
  O28      1.0000 0.91630  0.88451  0.36815  Biso   1.000  O
  O29      1.0000 0.84610  0.55001  0.70425  Biso   1.000  O
  O30      1.0000 0.15390  0.05001  0.79575  Biso   1.000  O
  O31      1.0000 0.15390  0.44999  0.29575  Biso   1.000  O
  O32      1.0000 0.84610  0.94999  0.20425  Biso   1.000  O
  N1       1.0000 0.61110  0.47140  0.81989  Biso   1.000  N
  N2       1.0000 0.38890  0.97140  0.68011  Biso   1.000  N
  N3       1.0000 0.38890  0.52860  0.18011  Biso   1.000  N
  N4       1.0000 0.61110  0.02860  0.31989  Biso   1.000  N
  N5       1.0000 0.43750  0.48268  0.65665  Biso   1.000  N
  N6       1.0000 0.56250  0.98268  0.84335  Biso   1.000  N
  N7       1.0000 0.56250  0.51732  0.34335  Biso   1.000  N
  N8       1.0000 0.43750  0.01732  0.15665  Biso   1.000  N
  C1       1.0000 0.69460  0.47029  0.90610  Biso   1.000  C
  C2       1.0000 0.30540  0.97029  0.59390  Biso   1.000  C
  C3       1.0000 0.30540  0.52971  0.09390  Biso   1.000  C
  C4       1.0000 0.69460  0.02971  0.40610  Biso   1.000  C
  H1       1.0000 0.68690  0.50500  0.94310  Biso   1.000  H
  H2       1.0000 0.31310  0.00500  0.55690  Biso   1.000  H
  H3       1.0000 0.31310  0.49500  0.05690  Biso   1.000  H
  H4       1.0000 0.68690  0.99500  0.44310  Biso   1.000  H
  C5       1.0000 0.79170  0.42025  0.94310  Biso   1.000  C
  C6       1.0000 0.20830  0.92025  0.55690  Biso   1.000  C
  C7       1.0000 0.20830  0.57975  0.05690  Biso   1.000  C
  C8       1.0000 0.79170  0.07975  0.44310  Biso   1.000  C
  H5       1.0000 0.84970  0.42050  0.00440  Biso   1.000  H
  H6       1.0000 0.15030  0.92050  0.49560  Biso   1.000  H
  H7       1.0000 0.15030  0.57950  0.99560  Biso   1.000  H
  H8       1.0000 0.84970  0.07950  0.50440  Biso   1.000  H
  C9       1.0000 0.80280  0.37008  0.88910  Biso   1.000  C
  C10      1.0000 0.19720  0.87008  0.61090  Biso   1.000  C
  C11      1.0000 0.19720  0.62992  0.11090  Biso   1.000  C
  C12      1.0000 0.80280  0.12992  0.38910  Biso   1.000  C
  H9       1.0000 0.87300  0.33580  0.91230  Biso   1.000  H
  H10      1.0000 0.12700  0.83580  0.58770  Biso   1.000  H
  H11      1.0000 0.12700  0.66420  0.08770  Biso   1.000  H
  H12      1.0000 0.87300  0.16420  0.41230  Biso   1.000  H
  C13      1.0000 0.71120  0.36984  0.80120  Biso   1.000  C
  C14      1.0000 0.28880  0.86984  0.69880  Biso   1.000  C
  C15      1.0000 0.28880  0.63016  0.19880  Biso   1.000  C
  C16      1.0000 0.71120  0.13016  0.30120  Biso   1.000  C
  H13      1.0000 0.71290  0.33490  0.76400  Biso   1.000  H
  H14      1.0000 0.28710  0.83490  0.73600  Biso   1.000  H
  H15      1.0000 0.28710  0.66510  0.23600  Biso   1.000  H
  H16      1.0000 0.71290  0.16510  0.26400  Biso   1.000  H
  C17      1.0000 0.61710  0.42148  0.76828  Biso   1.000  C
  C18      1.0000 0.38290  0.92148  0.73172  Biso   1.000  C
  C19      1.0000 0.38290  0.57852  0.23172  Biso   1.000  C
  C20      1.0000 0.61710  0.07852  0.26828  Biso   1.000  C
  C21      1.0000 0.51060  0.42729  0.67578  Biso   1.000  C
  C22      1.0000 0.48940  0.92729  0.82422  Biso   1.000  C
  C23      1.0000 0.48940  0.57271  0.32422  Biso   1.000  C
  C24      1.0000 0.51060  0.07271  0.17578  Biso   1.000  C
  C25      1.0000 0.48280  0.38019  0.61340  Biso   1.000  C
  C26      1.0000 0.51720  0.88019  0.88660  Biso   1.000  C
  C27      1.0000 0.51720  0.61981  0.38660  Biso   1.000  C
  C28      1.0000 0.48280  0.11981  0.11340  Biso   1.000  C
  H17      1.0000 0.53370  0.34130  0.62810  Biso   1.000  H
  H18      1.0000 0.46630  0.84130  0.87190  Biso   1.000  H
  H19      1.0000 0.46630  0.65870  0.37190  Biso   1.000  H
  H20      1.0000 0.53370  0.15870  0.12810  Biso   1.000  H
  C29      1.0000 0.37880  0.39122  0.52900  Biso   1.000  C
  C30      1.0000 0.62120  0.89122  0.97100  Biso   1.000  C
  C31      1.0000 0.62120  0.60878  0.47100  Biso   1.000  C
  C32      1.0000 0.37880  0.10878  0.02900  Biso   1.000  C
  H21      1.0000 0.35940  0.35990  0.48490  Biso   1.000  H
  H22      1.0000 0.64060  0.85990  0.01510  Biso   1.000  H
  H23      1.0000 0.64060  0.64010  0.51510  Biso   1.000  H
  H24      1.0000 0.35940  0.14010  0.98490  Biso   1.000  H
  C33      1.0000 0.30430  0.44792  0.50990  Biso   1.000  C
  C34      1.0000 0.69570  0.94792  0.99010  Biso   1.000  C
  C35      1.0000 0.69570  0.55208  0.49010  Biso   1.000  C
  C36      1.0000 0.30430  0.05208  0.00990  Biso   1.000  C
  H25      1.0000 0.23250  0.45620  0.45280  Biso   1.000  H
  H26      1.0000 0.76750  0.95620  0.04720  Biso   1.000  H
  H27      1.0000 0.76750  0.54380  0.54720  Biso   1.000  H
  H28      1.0000 0.23250  0.04380  0.95280  Biso   1.000  H
  C37      1.0000 0.33620  0.49252  0.57562  Biso   1.000  C
  C38      1.0000 0.66380  0.99252  0.92438  Biso   1.000  C
  C39      1.0000 0.66380  0.50748  0.42438  Biso   1.000  C
  C40      1.0000 0.33620  0.00748  0.07562  Biso   1.000  C
  H29      1.0000 0.28430  0.53150  0.56270  Biso   1.000  H
  H30      1.0000 0.71570  0.03150  0.93730  Biso   1.000  H
  H31      1.0000 0.71570  0.46850  0.43730  Biso   1.000  H
  H32      1.0000 0.28430  0.96850  0.06270  Biso   1.000  H
  C41      1.0000 0.23660  0.68829  0.55759  Biso   1.000  C
  C42      1.0000 0.76340  0.18829  0.94241  Biso   1.000  C
  C43      1.0000 0.76340  0.31171  0.44241  Biso   1.000  C
  C44      1.0000 0.23660  0.81171  0.05759  Biso   1.000  C
  C45      1.0000 0.10960  0.65471  0.49815  Biso   1.000  C
  C46      1.0000 0.89040  0.15471  0.00185  Biso   1.000  C
  C47      1.0000 0.89040  0.34529  0.50185  Biso   1.000  C
  C48      1.0000 0.10960  0.84529  0.99815  Biso   1.000  C
  H33      1.0000 0.05790  0.61850  0.51870  Biso   1.000  H
  H34      1.0000 0.94210  0.11850  0.98130  Biso   1.000  H
  H35      1.0000 0.94210  0.38150  0.48130  Biso   1.000  H
  H36      1.0000 0.05790  0.88150  0.01870  Biso   1.000  H
  C49      1.0000 0.05840  0.67387  0.40926  Biso   1.000  C
  C50      1.0000 0.94160  0.17387  0.09074  Biso   1.000  C
  C51      1.0000 0.94160  0.32613  0.59074  Biso   1.000  C
  C52      1.0000 0.05840  0.82613  0.90926  Biso   1.000  C
  H37      1.0000 0.97370  0.65040  0.36890  Biso   1.000  H
  H38      1.0000 0.02630  0.15040  0.13110  Biso   1.000  H
  H39      1.0000 0.02630  0.34960  0.63110  Biso   1.000  H
  H40      1.0000 0.97370  0.84960  0.86890  Biso   1.000  H
  C53      1.0000 0.13150  0.72755  0.37924  Biso   1.000  C
  C54      1.0000 0.86850  0.22755  0.12076  Biso   1.000  C
  C55      1.0000 0.86850  0.27245  0.62076  Biso   1.000  C
  C56      1.0000 0.13150  0.77245  0.87924  Biso   1.000  C
  H41      1.0000 0.09280  0.74150  0.31910  Biso   1.000  H
  H42      1.0000 0.90720  0.24150  0.18090  Biso   1.000  H
  H43      1.0000 0.90720  0.25850  0.68090  Biso   1.000  H
  H44      1.0000 0.09280  0.75850  0.81910  Biso   1.000  H
  C57      1.0000 0.26090  0.76046  0.43735  Biso   1.000  C
  C58      1.0000 0.73910  0.26046  0.06265  Biso   1.000  C
  C59      1.0000 0.73910  0.23954  0.56265  Biso   1.000  C
  C60      1.0000 0.26090  0.73954  0.93735  Biso   1.000  C
  H45      1.0000 0.31390  0.79630  0.41640  Biso   1.000  H
  H46      1.0000 0.68610  0.29630  0.08360  Biso   1.000  H
  H47      1.0000 0.68610  0.20370  0.58360  Biso   1.000  H
  H48      1.0000 0.31390  0.70370  0.91640  Biso   1.000  H
  C61      1.0000 0.31280  0.74098  0.52630  Biso   1.000  C
  C62      1.0000 0.68720  0.24098  0.97370  Biso   1.000  C
  C63      1.0000 0.68720  0.25902  0.47370  Biso   1.000  C
  C64      1.0000 0.31280  0.75902  0.02630  Biso   1.000  C
  H49      1.0000 0.40090  0.76380  0.56600  Biso   1.000  H
  H50      1.0000 0.59910  0.26380  0.93400  Biso   1.000  H
  H51      1.0000 0.59910  0.23620  0.43400  Biso   1.000  H
  H52      1.0000 0.40090  0.73620  0.06600  Biso   1.000  H
  C65      1.0000 0.74030  0.66302  0.99691  Biso   1.000  C
  C66      1.0000 0.25970  0.16302  0.50309  Biso   1.000  C
  C67      1.0000 0.25970  0.33698  0.00309  Biso   1.000  C
  C68      1.0000 0.74030  0.83698  0.49691  Biso   1.000  C
  C69      1.0000 0.73030  0.61910  0.06337  Biso   1.000  C
  C70      1.0000 0.26970  0.11910  0.43663  Biso   1.000  C
  C71      1.0000 0.26970  0.38090  0.93663  Biso   1.000  C
  C72      1.0000 0.73030  0.88090  0.56337  Biso   1.000  C
  H53      1.0000 0.70710  0.57820  0.04590  Biso   1.000  H
  H54      1.0000 0.29290  0.07820  0.45410  Biso   1.000  H
  H55      1.0000 0.29290  0.42180  0.95410  Biso   1.000  H
  H56      1.0000 0.70710  0.92180  0.54590  Biso   1.000  H
  C73      1.0000 0.75400  0.63465  0.15518  Biso   1.000  C
  C74      1.0000 0.24600  0.13465  0.34482  Biso   1.000  C
  C75      1.0000 0.24600  0.36535  0.84482  Biso   1.000  C
  C76      1.0000 0.75400  0.86535  0.65518  Biso   1.000  C
  H57      1.0000 0.74990  0.60430  0.20020  Biso   1.000  H
  H58      1.0000 0.25010  0.10430  0.29980  Biso   1.000  H
  H59      1.0000 0.25010  0.39570  0.79980  Biso   1.000  H
  H60      1.0000 0.74990  0.89570  0.70020  Biso   1.000  H
  C77      1.0000 0.78380  0.69481  0.18090  Biso   1.000  C
  C78      1.0000 0.21620  0.19481  0.31910  Biso   1.000  C
  C79      1.0000 0.21620  0.30519  0.81910  Biso   1.000  C
  C80      1.0000 0.78380  0.80519  0.68090  Biso   1.000  C
  H61      1.0000 0.79520  0.70570  0.24330  Biso   1.000  H
  H62      1.0000 0.20480  0.20570  0.25670  Biso   1.000  H
  H63      1.0000 0.20480  0.29430  0.75670  Biso   1.000  H
  H64      1.0000 0.79520  0.79430  0.74330  Biso   1.000  H
  C81      1.0000 0.79690  0.73891  0.11510  Biso   1.000  C
  C82      1.0000 0.20310  0.23891  0.38490  Biso   1.000  C
  C83      1.0000 0.20310  0.26109  0.88490  Biso   1.000  C
  C84      1.0000 0.79690  0.76109  0.61510  Biso   1.000  C
  H65      1.0000 0.81970  0.77980  0.13270  Biso   1.000  H
  H66      1.0000 0.18030  0.27980  0.36730  Biso   1.000  H
  H67      1.0000 0.18030  0.22020  0.86730  Biso   1.000  H
  H68      1.0000 0.81970  0.72020  0.63270  Biso   1.000  H
  C85      1.0000 0.77660  0.72295  0.02360  Biso   1.000  C
  C86      1.0000 0.22340  0.22295  0.47640  Biso   1.000  C
  C87      1.0000 0.22340  0.27705  0.97640  Biso   1.000  C
  C88      1.0000 0.77660  0.77705  0.52360  Biso   1.000  C
  H69      1.0000 0.78760  0.75300  0.97890  Biso   1.000  H
  H70      1.0000 0.21240  0.25300  0.52110  Biso   1.000  H
  H71      1.0000 0.21240  0.24700  0.02110  Biso   1.000  H
  H72      1.0000 0.78760  0.74700  0.47890  Biso   1.000  H
