data_image0
_cell_length_a       16.8929
_cell_length_b       10.6035
_cell_length_c       35.0032
_cell_angle_alpha    90
_cell_angle_beta     93.614
_cell_angle_gamma    90

_symmetry_space_group_name_H-M    "P 1"
_symmetry_int_tables_number       1

loop_
  _symmetry_equiv_pos_as_xyz
  'x, y, z'

loop_
  _atom_site_label
  _atom_site_occupancy
  _atom_site_fract_x
  _atom_site_fract_y
  _atom_site_fract_z
  _atom_site_thermal_displace_type
  _atom_site_B_iso_or_equiv
  _atom_site_type_symbol
  Cu1      1.0000 0.67840  0.84081  0.22711  Biso   1.000  Cu
  Cu2      1.0000 0.82160  0.34081  0.27289  Biso   1.000  Cu
  Cu3      1.0000 0.32160  0.15919  0.77289  Biso   1.000  Cu
  Cu4      1.0000 0.17840  0.65919  0.72711  Biso   1.000  Cu
  Cu5      1.0000 0.83116  0.00499  0.25026  Biso   1.000  Cu
  Cu6      1.0000 0.66884  0.50499  0.24974  Biso   1.000  Cu
  Cu7      1.0000 0.16884  0.99501  0.74974  Biso   1.000  Cu
  Cu8      1.0000 0.33116  0.49501  0.75026  Biso   1.000  Cu
  Cu9      1.0000 0.42013  0.27476  0.45103  Biso   1.000  Cu
  Cu10     1.0000 0.07987  0.77476  0.04897  Biso   1.000  Cu
  Cu11     1.0000 0.57987  0.72524  0.54897  Biso   1.000  Cu
  Cu12     1.0000 0.92013  0.22524  0.95103  Biso   1.000  Cu
  V1       1.0000 0.55575  0.19649  0.32208  Biso   1.000  V
  V2       1.0000 0.94425  0.69649  0.17792  Biso   1.000  V
  V3       1.0000 0.44425  0.80351  0.67792  Biso   1.000  V
  V4       1.0000 0.05575  0.30351  0.82208  Biso   1.000  V
  V5       1.0000 0.17745  0.10379  0.41453  Biso   1.000  V
  V6       1.0000 0.32255  0.60379  0.08547  Biso   1.000  V
  V7       1.0000 0.82255  0.89621  0.58547  Biso   1.000  V
  V8       1.0000 0.67745  0.39621  0.91453  Biso   1.000  V
  V9       1.0000 0.40649  0.38370  0.36380  Biso   1.000  V
  V10      1.0000 0.09351  0.88370  0.13620  Biso   1.000  V
  V11      1.0000 0.59351  0.61630  0.63620  Biso   1.000  V
  V12      1.0000 0.90649  0.11630  0.86380  Biso   1.000  V
  V13      1.0000 0.33409  0.01500  0.37327  Biso   1.000  V
  V14      1.0000 0.16591  0.51500  0.12673  Biso   1.000  V
  V15      1.0000 0.66591  0.98500  0.62673  Biso   1.000  V
  V16      1.0000 0.83409  0.48500  0.87327  Biso   1.000  V
  P1       1.0000 0.79976  0.89578  0.16800  Biso   1.000  P
  P2       1.0000 0.70024  0.39578  0.33200  Biso   1.000  P
  P3       1.0000 0.20024  0.10422  0.83200  Biso   1.000  P
  P4       1.0000 0.29976  0.60422  0.66800  Biso   1.000  P
  P5       1.0000 0.25668  0.37441  0.41625  Biso   1.000  P
  P6       1.0000 0.24332  0.87441  0.08375  Biso   1.000  P
  P7       1.0000 0.74332  0.62559  0.58375  Biso   1.000  P
  P8       1.0000 0.75668  0.12559  0.91625  Biso   1.000  P
  P9       1.0000 0.37511  0.16358  0.29991  Biso   1.000  P
  P10      1.0000 0.12489  0.66358  0.20009  Biso   1.000  P
  P11      1.0000 0.62489  0.83642  0.70009  Biso   1.000  P
  P12      1.0000 0.87511  0.33642  0.79991  Biso   1.000  P
  P13      1.0000 0.66642  0.16851  0.24403  Biso   1.000  P
  P14      1.0000 0.83358  0.66851  0.25597  Biso   1.000  P
  P15      1.0000 0.33358  0.83149  0.75597  Biso   1.000  P
  P16      1.0000 0.16642  0.33149  0.74403  Biso   1.000  P
  O1       1.0000 0.18894  0.27760  0.40860  Biso   1.000  O
  O2       1.0000 0.31106  0.77760  0.09140  Biso   1.000  O
  O3       1.0000 0.81106  0.72240  0.59140  Biso   1.000  O
  O4       1.0000 0.68894  0.22240  0.90860  Biso   1.000  O
  O5       1.0000 0.31209  0.33350  0.44949  Biso   1.000  O
  O6       1.0000 0.18791  0.83350  0.05051  Biso   1.000  O
  O7       1.0000 0.68791  0.66650  0.55051  Biso   1.000  O
  O8       1.0000 0.81209  0.16650  0.94949  Biso   1.000  O
  O9       1.0000 0.29708  0.39840  0.37914  Biso   1.000  O
  O10      1.0000 0.20292  0.89840  0.12086  Biso   1.000  O
  O11      1.0000 0.70292  0.60160  0.62086  Biso   1.000  O
  O12      1.0000 0.79708  0.10160  0.87914  Biso   1.000  O
  O13      1.0000 0.35458  0.27990  0.32263  Biso   1.000  O
  O14      1.0000 0.14542  0.77990  0.17737  Biso   1.000  O
  O15      1.0000 0.64542  0.72010  0.67737  Biso   1.000  O
  O16      1.0000 0.85458  0.22010  0.82263  Biso   1.000  O
  O17      1.0000 0.35405  0.04210  0.32165  Biso   1.000  O
  O18      1.0000 0.14595  0.54210  0.17835  Biso   1.000  O
  O19      1.0000 0.64595  0.95790  0.67835  Biso   1.000  O
  O20      1.0000 0.85405  0.45790  0.82165  Biso   1.000  O
  O21      1.0000 0.46056  0.15590  0.28860  Biso   1.000  O
  O22      1.0000 0.03944  0.65590  0.21140  Biso   1.000  O
  O23      1.0000 0.53944  0.84410  0.71140  Biso   1.000  O
  O24      1.0000 0.96056  0.34410  0.78860  Biso   1.000  O
  O25      1.0000 0.60685  0.15690  0.27452  Biso   1.000  O
  O26      1.0000 0.89315  0.65690  0.22548  Biso   1.000  O
  O27      1.0000 0.39315  0.84310  0.72548  Biso   1.000  O
  O28      1.0000 0.10685  0.34310  0.77452  Biso   1.000  O
  O29      1.0000 0.71851  0.05030  0.24307  Biso   1.000  O
  O30      1.0000 0.78149  0.55030  0.25693  Biso   1.000  O
  O31      1.0000 0.28149  0.94970  0.75693  Biso   1.000  O
  O32      1.0000 0.21851  0.44970  0.74307  Biso   1.000  O
  O33      1.0000 0.71511  0.86630  0.17762  Biso   1.000  O
  O34      1.0000 0.78489  0.36630  0.32238  Biso   1.000  O
  O35      1.0000 0.28489  0.13370  0.82238  Biso   1.000  O
  O36      1.0000 0.21511  0.63370  0.67762  Biso   1.000  O
  O37      1.0000 0.84374  0.98410  0.19618  Biso   1.000  O
  O38      1.0000 0.65626  0.48410  0.30382  Biso   1.000  O
  O39      1.0000 0.15626  0.01590  0.80382  Biso   1.000  O
  O40      1.0000 0.34374  0.51590  0.69618  Biso   1.000  O
  O41      1.0000 0.71668  0.28940  0.24816  Biso   1.000  O
  O42      1.0000 0.78332  0.78940  0.25184  Biso   1.000  O
  O43      1.0000 0.28332  0.71060  0.75184  Biso   1.000  O
  O44      1.0000 0.21668  0.21060  0.74816  Biso   1.000  O
  O45      1.0000 0.50124  0.30370  0.34469  Biso   1.000  O
  O46      1.0000 0.99876  0.80370  0.15531  Biso   1.000  O
  O47      1.0000 0.49876  0.69630  0.65531  Biso   1.000  O
  O48      1.0000 0.00124  0.19630  0.84469  Biso   1.000  O
  O49      1.0000 0.44457  0.38410  0.40914  Biso   1.000  O
  O50      1.0000 0.05543  0.88410  0.09086  Biso   1.000  O
  O51      1.0000 0.55543  0.61590  0.59086  Biso   1.000  O
  O52      1.0000 0.94457  0.11590  0.90914  Biso   1.000  O
  O53      1.0000 0.38107  0.11860  0.40122  Biso   1.000  O
  O54      1.0000 0.11893  0.61860  0.09878  Biso   1.000  O
  O55      1.0000 0.61893  0.88140  0.59878  Biso   1.000  O
  O56      1.0000 0.88107  0.38140  0.90122  Biso   1.000  O
  O57      1.0000 0.36485  0.87450  0.38551  Biso   1.000  O
  O58      1.0000 0.13515  0.37450  0.11449  Biso   1.000  O
  O59      1.0000 0.63515  0.12550  0.61449  Biso   1.000  O
  O60      1.0000 0.86485  0.62550  0.88551  Biso   1.000  O
  O61      1.0000 0.22857  0.02580  0.37770  Biso   1.000  O
  O62      1.0000 0.27143  0.52580  0.12230  Biso   1.000  O
  O63      1.0000 0.77143  0.97420  0.62230  Biso   1.000  O
  O64      1.0000 0.72857  0.47420  0.87770  Biso   1.000  O
  O65      1.0000 0.08256  0.07470  0.40976  Biso   1.000  O
  O66      1.0000 0.41744  0.57470  0.09024  Biso   1.000  O
  O67      1.0000 0.91744  0.92530  0.59024  Biso   1.000  O
  O68      1.0000 0.58256  0.42530  0.90976  Biso   1.000  O
  O69      1.0000 0.21156  0.05750  0.45683  Biso   1.000  O
  O70      1.0000 0.28844  0.55750  0.04317  Biso   1.000  O
  O71      1.0000 0.78844  0.94250  0.54317  Biso   1.000  O
  O72      1.0000 0.71156  0.44250  0.95683  Biso   1.000  O
  O73      1.0000 0.41986  0.52350  0.34816  Biso   1.000  O
  O74      1.0000 0.08014  0.02350  0.15184  Biso   1.000  O
  O75      1.0000 0.58014  0.47650  0.65184  Biso   1.000  O
  O76      1.0000 0.91986  0.97650  0.84816  Biso   1.000  O
  O77      1.0000 0.56078  0.07380  0.34821  Biso   1.000  O
  O78      1.0000 0.93922  0.57380  0.15179  Biso   1.000  O
  O79      1.0000 0.43922  0.92620  0.65179  Biso   1.000  O
  O80      1.0000 0.06078  0.42620  0.84821  Biso   1.000  O
  O81      1.0000 0.84504  0.77190  0.16246  Biso   1.000  O
  O82      1.0000 0.65496  0.27190  0.33754  Biso   1.000  O
  O83      1.0000 0.15496  0.22810  0.83754  Biso   1.000  O
  O84      1.0000 0.34504  0.72810  0.66246  Biso   1.000  O
  O85      1.0000 0.43810  0.50200  0.48400  Biso   1.000  O
  O86      1.0000 0.06190  0.00200  0.01600  Biso   1.000  O
  O87      1.0000 0.56190  0.49800  0.51600  Biso   1.000  O
  O88      1.0000 0.93810  0.99800  0.98400  Biso   1.000  O
  N1       1.0000 0.53234  0.22450  0.46144  Biso   1.000  N
  N2       1.0000 0.96766  0.72450  0.03856  Biso   1.000  N
  N3       1.0000 0.46766  0.77550  0.53856  Biso   1.000  N
  N4       1.0000 0.03234  0.27550  0.96144  Biso   1.000  N
  N5       1.0000 0.40849  0.18520  0.49984  Biso   1.000  N
  N6       1.0000 0.09151  0.68520  0.00016  Biso   1.000  N
  N7       1.0000 0.59151  0.81480  0.50016  Biso   1.000  N
  N8       1.0000 0.90849  0.31480  0.99984  Biso   1.000  N
  N9       1.0000 0.94828  0.99810  0.26264  Biso   1.000  N
  N10      1.0000 0.55172  0.49810  0.23736  Biso   1.000  N
  N11      1.0000 0.05172  0.00190  0.73736  Biso   1.000  N
  N12      1.0000 0.44828  0.50190  0.76264  Biso   1.000  N
  N13      1.0000 0.83256  0.02790  0.30719  Biso   1.000  N
  N14      1.0000 0.66744  0.52790  0.19281  Biso   1.000  N
  N15      1.0000 0.16744  0.97210  0.69281  Biso   1.000  N
  N16      1.0000 0.33256  0.47210  0.80719  Biso   1.000  N
  N17      1.0000 0.56602  0.84140  0.20447  Biso   1.000  N
  N18      1.0000 0.93398  0.34140  0.29553  Biso   1.000  N
  N19      1.0000 0.43398  0.15860  0.79553  Biso   1.000  N
  N20      1.0000 0.06602  0.65860  0.70447  Biso   1.000  N
  N21      1.0000 0.62310  0.80870  0.27422  Biso   1.000  N
  N22      1.0000 0.87690  0.30870  0.22578  Biso   1.000  N
  N23      1.0000 0.37690  0.19130  0.72578  Biso   1.000  N
  N24      1.0000 0.12310  0.69130  0.77422  Biso   1.000  N
  C1       1.0000 0.59130  0.24740  0.43881  Biso   1.000  C
  C2       1.0000 0.90870  0.74740  0.06119  Biso   1.000  C
  C3       1.0000 0.40870  0.75260  0.56119  Biso   1.000  C
  C4       1.0000 0.09130  0.25260  0.93881  Biso   1.000  C
  H1       1.0000 0.57930  0.28180  0.41410  Biso   1.000  H
  H2       1.0000 0.92070  0.78180  0.08590  Biso   1.000  H
  H3       1.0000 0.42070  0.71820  0.58590  Biso   1.000  H
  H4       1.0000 0.07930  0.21820  0.91410  Biso   1.000  H
  C5       1.0000 0.66960  0.22270  0.45039  Biso   1.000  C
  C6       1.0000 0.83040  0.72270  0.04961  Biso   1.000  C
  C7       1.0000 0.33040  0.77730  0.54961  Biso   1.000  C
  C8       1.0000 0.16960  0.27730  0.95039  Biso   1.000  C
  H5       1.0000 0.71080  0.23920  0.43380  Biso   1.000  H
  H6       1.0000 0.78920  0.73920  0.06620  Biso   1.000  H
  H7       1.0000 0.28920  0.76080  0.56620  Biso   1.000  H
  H8       1.0000 0.21080  0.26080  0.93380  Biso   1.000  H
  C9       1.0000 0.68700  0.17320  0.48663  Biso   1.000  C
  C10      1.0000 0.81300  0.67320  0.01337  Biso   1.000  C
  C11      1.0000 0.31300  0.82680  0.51337  Biso   1.000  C
  C12      1.0000 0.18700  0.32680  0.98663  Biso   1.000  C
  H9       1.0000 0.74040  0.15750  0.49540  Biso   1.000  H
  H10      1.0000 0.75960  0.65750  0.00460  Biso   1.000  H
  H11      1.0000 0.25960  0.84250  0.50460  Biso   1.000  H
  H12      1.0000 0.24040  0.34250  0.99540  Biso   1.000  H
  C13      1.0000 0.62600  0.14700  0.50978  Biso   1.000  C
  C14      1.0000 0.87400  0.64700  0.99022  Biso   1.000  C
  C15      1.0000 0.37400  0.85300  0.49022  Biso   1.000  C
  C16      1.0000 0.12600  0.35300  0.00978  Biso   1.000  C
  H13      1.0000 0.63670  0.11140  0.53450  Biso   1.000  H
  H14      1.0000 0.86330  0.61140  0.96550  Biso   1.000  H
  H15      1.0000 0.36330  0.88860  0.46550  Biso   1.000  H
  H16      1.0000 0.13670  0.38860  0.03450  Biso   1.000  H
  C17      1.0000 0.54860  0.17350  0.49645  Biso   1.000  C
  C18      1.0000 0.95140  0.67350  0.00355  Biso   1.000  C
  C19      1.0000 0.45140  0.82650  0.50355  Biso   1.000  C
  C20      1.0000 0.04860  0.32650  0.99645  Biso   1.000  C
  C21      1.0000 0.47780  0.14790  0.51823  Biso   1.000  C
  C22      1.0000 0.02220  0.64790  0.98177  Biso   1.000  C
  C23      1.0000 0.52220  0.85210  0.48177  Biso   1.000  C
  C24      1.0000 0.97780  0.35210  0.01823  Biso   1.000  C
  C25      1.0000 0.47960  0.08880  0.55348  Biso   1.000  C
  C26      1.0000 0.02040  0.58880  0.94652  Biso   1.000  C
  C27      1.0000 0.52040  0.91120  0.44652  Biso   1.000  C
  C28      1.0000 0.97960  0.41120  0.05348  Biso   1.000  C
  H17      1.0000 0.52840  0.06170  0.56570  Biso   1.000  H
  H18      1.0000 0.97160  0.56170  0.93430  Biso   1.000  H
  H19      1.0000 0.47160  0.93830  0.43430  Biso   1.000  H
  H20      1.0000 0.02840  0.43830  0.06570  Biso   1.000  H
  C29      1.0000 0.40870  0.07000  0.57066  Biso   1.000  C
  C30      1.0000 0.09130  0.57000  0.92934  Biso   1.000  C
  C31      1.0000 0.59130  0.93000  0.42934  Biso   1.000  C
  C32      1.0000 0.90870  0.43000  0.07066  Biso   1.000  C
  H21      1.0000 0.40850  0.03100  0.59510  Biso   1.000  H
  H22      1.0000 0.09150  0.53100  0.90490  Biso   1.000  H
  H23      1.0000 0.59150  0.96900  0.40490  Biso   1.000  H
  H24      1.0000 0.90850  0.46900  0.09510  Biso   1.000  H
  C33      1.0000 0.33850  0.10840  0.55188  Biso   1.000  C
  C34      1.0000 0.16150  0.60840  0.94812  Biso   1.000  C
  C35      1.0000 0.66150  0.89160  0.44812  Biso   1.000  C
  C36      1.0000 0.83850  0.39160  0.05188  Biso   1.000  C
  H25      1.0000 0.28940  0.09610  0.56320  Biso   1.000  H
  H26      1.0000 0.21060  0.59610  0.93680  Biso   1.000  H
  H27      1.0000 0.71060  0.90390  0.43680  Biso   1.000  H
  H28      1.0000 0.78940  0.40390  0.06320  Biso   1.000  H
  C37      1.0000 0.34040  0.16490  0.51636  Biso   1.000  C
  C38      1.0000 0.15960  0.66490  0.98364  Biso   1.000  C
  C39      1.0000 0.65960  0.83510  0.48364  Biso   1.000  C
  C40      1.0000 0.84040  0.33510  0.01636  Biso   1.000  C
  H29      1.0000 0.29200  0.19010  0.50330  Biso   1.000  H
  H30      1.0000 0.20800  0.69010  0.99670  Biso   1.000  H
  H31      1.0000 0.70800  0.80990  0.49670  Biso   1.000  H
  H32      1.0000 0.79200  0.30990  0.00330  Biso   1.000  H
  C41      1.0000 0.00390  0.98920  0.23701  Biso   1.000  C
  C42      1.0000 0.49610  0.48920  0.26299  Biso   1.000  C
  C43      1.0000 0.99610  0.01080  0.76299  Biso   1.000  C
  C44      1.0000 0.50390  0.51080  0.73701  Biso   1.000  C
  H33      1.0000 0.98770  0.98490  0.21060  Biso   1.000  H
  H34      1.0000 0.51230  0.48490  0.28940  Biso   1.000  H
  H35      1.0000 0.01230  0.01510  0.78940  Biso   1.000  H
  H36      1.0000 0.48770  0.51510  0.71060  Biso   1.000  H
  C45      1.0000 0.08420  0.98610  0.24793  Biso   1.000  C
  C46      1.0000 0.41580  0.48610  0.25207  Biso   1.000  C
  C47      1.0000 0.91580  0.01390  0.75207  Biso   1.000  C
  C48      1.0000 0.58420  0.51390  0.74793  Biso   1.000  C
  H37      1.0000 0.12250  0.98170  0.22930  Biso   1.000  H
  H38      1.0000 0.37750  0.48170  0.27070  Biso   1.000  H
  H39      1.0000 0.87750  0.01830  0.77070  Biso   1.000  H
  H40      1.0000 0.62250  0.51830  0.72930  Biso   1.000  H
  C49      1.0000 0.10760  0.98950  0.28672  Biso   1.000  C
  C50      1.0000 0.39240  0.48950  0.21328  Biso   1.000  C
  C51      1.0000 0.89240  0.01050  0.71328  Biso   1.000  C
  C52      1.0000 0.60760  0.51050  0.78672  Biso   1.000  C
  H41      1.0000 0.16220  0.98570  0.29500  Biso   1.000  H
  H42      1.0000 0.33780  0.48570  0.20500  Biso   1.000  H
  H43      1.0000 0.83780  0.01430  0.70500  Biso   1.000  H
  H44      1.0000 0.66220  0.51430  0.79500  Biso   1.000  H
  C53      1.0000 0.05020  0.99840  0.31324  Biso   1.000  C
  C54      1.0000 0.44980  0.49840  0.18676  Biso   1.000  C
  C55      1.0000 0.94980  0.00160  0.68676  Biso   1.000  C
  C56      1.0000 0.55020  0.50160  0.81324  Biso   1.000  C
  H45      1.0000 0.06480  0.00080  0.33990  Biso   1.000  H
  H46      1.0000 0.43520  0.50080  0.16010  Biso   1.000  H
  H47      1.0000 0.93520  0.99920  0.66010  Biso   1.000  H
  H48      1.0000 0.56480  0.49920  0.83990  Biso   1.000  H
  C57      1.0000 0.97110  0.00370  0.30017  Biso   1.000  C
  C58      1.0000 0.52890  0.50370  0.19983  Biso   1.000  C
  C59      1.0000 0.02890  0.99630  0.69983  Biso   1.000  C
  C60      1.0000 0.47110  0.49630  0.80017  Biso   1.000  C
  C61      1.0000 0.90510  0.01740  0.32574  Biso   1.000  C
  C62      1.0000 0.59490  0.51740  0.17426  Biso   1.000  C
  C63      1.0000 0.09490  0.98260  0.67426  Biso   1.000  C
  C64      1.0000 0.40510  0.48260  0.82574  Biso   1.000  C
  C65      1.0000 0.91450  0.02070  0.36537  Biso   1.000  C
  C66      1.0000 0.58550  0.52070  0.13463  Biso   1.000  C
  C67      1.0000 0.08550  0.97930  0.63463  Biso   1.000  C
  C68      1.0000 0.41450  0.47930  0.86537  Biso   1.000  C
  H49      1.0000 0.96580  0.01250  0.37800  Biso   1.000  H
  H50      1.0000 0.53420  0.51250  0.12200  Biso   1.000  H
  H51      1.0000 0.03420  0.98750  0.62200  Biso   1.000  H
  H52      1.0000 0.46580  0.48750  0.87800  Biso   1.000  H
  C69      1.0000 0.84840  0.03610  0.38635  Biso   1.000  C
  C70      1.0000 0.65160  0.53610  0.11365  Biso   1.000  C
  C71      1.0000 0.15160  0.96390  0.61365  Biso   1.000  C
  C72      1.0000 0.34840  0.46390  0.88635  Biso   1.000  C
  H53      1.0000 0.85340  0.03750  0.41350  Biso   1.000  H
  H54      1.0000 0.64660  0.53750  0.08650  Biso   1.000  H
  H55      1.0000 0.14660  0.96250  0.58650  Biso   1.000  H
  H56      1.0000 0.35340  0.46250  0.91350  Biso   1.000  H
  C73      1.0000 0.77480  0.04950  0.36697  Biso   1.000  C
  C74      1.0000 0.72520  0.54950  0.13303  Biso   1.000  C
  C75      1.0000 0.22520  0.95050  0.63303  Biso   1.000  C
  C76      1.0000 0.27480  0.45050  0.86697  Biso   1.000  C
  H57      1.0000 0.72870  0.06230  0.38070  Biso   1.000  H
  H58      1.0000 0.77130  0.56230  0.11930  Biso   1.000  H
  H59      1.0000 0.27130  0.93770  0.61930  Biso   1.000  H
  H60      1.0000 0.22870  0.43770  0.88070  Biso   1.000  H
  C77      1.0000 0.76920  0.04410  0.32758  Biso   1.000  C
  C78      1.0000 0.73080  0.54410  0.17242  Biso   1.000  C
  C79      1.0000 0.23080  0.95590  0.67242  Biso   1.000  C
  C80      1.0000 0.26920  0.45590  0.82758  Biso   1.000  C
  H61      1.0000 0.71850  0.05210  0.31450  Biso   1.000  H
  H62      1.0000 0.78150  0.55210  0.18550  Biso   1.000  H
  H63      1.0000 0.28150  0.94790  0.68550  Biso   1.000  H
  H64      1.0000 0.21850  0.44790  0.81450  Biso   1.000  H
  C81      1.0000 0.79510  0.96660  0.12124  Biso   1.000  C
  C82      1.0000 0.70490  0.46660  0.37876  Biso   1.000  C
  C83      1.0000 0.20490  0.03340  0.87876  Biso   1.000  C
  C84      1.0000 0.29510  0.53340  0.62124  Biso   1.000  C
  C85      1.0000 0.86350  0.01680  0.10672  Biso   1.000  C
  C86      1.0000 0.63650  0.51680  0.39328  Biso   1.000  C
  C87      1.0000 0.13650  0.98320  0.89328  Biso   1.000  C
  C88      1.0000 0.36350  0.48320  0.60672  Biso   1.000  C
  H65      1.0000 0.91110  0.02170  0.12260  Biso   1.000  H
  H66      1.0000 0.58890  0.52170  0.37740  Biso   1.000  H
  H67      1.0000 0.08890  0.97830  0.87740  Biso   1.000  H
  H68      1.0000 0.41110  0.47830  0.62260  Biso   1.000  H
  C89      1.0000 0.86230  0.05950  0.06950  Biso   1.000  C
  C90      1.0000 0.63770  0.55950  0.43050  Biso   1.000  C
  C91      1.0000 0.13770  0.94050  0.93050  Biso   1.000  C
  C92      1.0000 0.36230  0.44050  0.56950  Biso   1.000  C
  H69      1.0000 0.90860  0.09570  0.06010  Biso   1.000  H
  H70      1.0000 0.59140  0.59570  0.43990  Biso   1.000  H
  H71      1.0000 0.09140  0.90430  0.93990  Biso   1.000  H
  H72      1.0000 0.40860  0.40430  0.56010  Biso   1.000  H
  C93      1.0000 0.79320  0.04970  0.04561  Biso   1.000  C
  C94      1.0000 0.70680  0.54970  0.45439  Biso   1.000  C
  C95      1.0000 0.20680  0.95030  0.95439  Biso   1.000  C
  C96      1.0000 0.29320  0.45030  0.54561  Biso   1.000  C
  H73      1.0000 0.79320  0.07560  0.01960  Biso   1.000  H
  H74      1.0000 0.70680  0.57560  0.48040  Biso   1.000  H
  H75      1.0000 0.20680  0.92440  0.98040  Biso   1.000  H
  H76      1.0000 0.29320  0.42440  0.51960  Biso   1.000  H
  C97      1.0000 0.72510  0.00220  0.05990  Biso   1.000  C
  C98      1.0000 0.77490  0.50220  0.44010  Biso   1.000  C
  C99      1.0000 0.27490  0.99780  0.94010  Biso   1.000  C
  C100     1.0000 0.22510  0.49780  0.55990  Biso   1.000  C
  H77      1.0000 0.67740  0.99900  0.04400  Biso   1.000  H
  H78      1.0000 0.82260  0.49900  0.45600  Biso   1.000  H
  H79      1.0000 0.32260  0.00100  0.95600  Biso   1.000  H
  H80      1.0000 0.17740  0.50100  0.54400  Biso   1.000  H
  C101     1.0000 0.72590  0.95920  0.09721  Biso   1.000  C
  C102     1.0000 0.77410  0.45920  0.40279  Biso   1.000  C
  C103     1.0000 0.27410  0.04080  0.90279  Biso   1.000  C
  C104     1.0000 0.22590  0.54080  0.59721  Biso   1.000  C
  H81      1.0000 0.67910  0.92440  0.10660  Biso   1.000  H
  H82      1.0000 0.82090  0.42440  0.39340  Biso   1.000  H
  H83      1.0000 0.32090  0.07560  0.89340  Biso   1.000  H
  H84      1.0000 0.17910  0.57560  0.60660  Biso   1.000  H
  C105     1.0000 0.60760  0.17590  0.19931  Biso   1.000  C
  C106     1.0000 0.89240  0.67590  0.30069  Biso   1.000  C
  C107     1.0000 0.39240  0.82410  0.80069  Biso   1.000  C
  C108     1.0000 0.10760  0.32410  0.69931  Biso   1.000  C
  C109     1.0000 0.64360  0.17110  0.16436  Biso   1.000  C
  C110     1.0000 0.85640  0.67110  0.33564  Biso   1.000  C
  C111     1.0000 0.35640  0.82890  0.83564  Biso   1.000  C
  C112     1.0000 0.14360  0.32890  0.66436  Biso   1.000  C
  H85      1.0000 0.69950  0.16170  0.16410  Biso   1.000  H
  H86      1.0000 0.80050  0.66170  0.33590  Biso   1.000  H
  H87      1.0000 0.30050  0.83830  0.83590  Biso   1.000  H
  H88      1.0000 0.19950  0.33830  0.66410  Biso   1.000  H
  C113     1.0000 0.59780  0.18010  0.13007  Biso   1.000  C
  C114     1.0000 0.90220  0.68010  0.36993  Biso   1.000  C
  C115     1.0000 0.40220  0.81990  0.86993  Biso   1.000  C
  C116     1.0000 0.09780  0.31990  0.63007  Biso   1.000  C
  H89      1.0000 0.62240  0.17830  0.10640  Biso   1.000  H
  H90      1.0000 0.87760  0.67830  0.39360  Biso   1.000  H
  H91      1.0000 0.37760  0.82170  0.89360  Biso   1.000  H
  H92      1.0000 0.12240  0.32170  0.60640  Biso   1.000  H
  C117     1.0000 0.51590  0.19190  0.13033  Biso   1.000  C
  C118     1.0000 0.98410  0.69190  0.36967  Biso   1.000  C
  C119     1.0000 0.48410  0.80810  0.86967  Biso   1.000  C
  C120     1.0000 0.01590  0.30810  0.63033  Biso   1.000  C
  H93      1.0000 0.48470  0.19880  0.10690  Biso   1.000  H
  H94      1.0000 0.01530  0.69880  0.39310  Biso   1.000  H
  H95      1.0000 0.51530  0.80120  0.89310  Biso   1.000  H
  H96      1.0000 0.98470  0.30120  0.60690  Biso   1.000  H
  C121     1.0000 0.47980  0.19350  0.16450  Biso   1.000  C
  C122     1.0000 0.02020  0.69350  0.33550  Biso   1.000  C
  C123     1.0000 0.52020  0.80650  0.83550  Biso   1.000  C
  C124     1.0000 0.97980  0.30650  0.66450  Biso   1.000  C
  H97      1.0000 0.42360  0.19930  0.16450  Biso   1.000  H
  H98      1.0000 0.07640  0.69930  0.33550  Biso   1.000  H
  H99      1.0000 0.57640  0.80070  0.83550  Biso   1.000  H
  H100     1.0000 0.92360  0.30070  0.66450  Biso   1.000  H
  C125     1.0000 0.52530  0.18680  0.19907  Biso   1.000  C
  C126     1.0000 0.97470  0.68680  0.30093  Biso   1.000  C
  C127     1.0000 0.47470  0.81320  0.80093  Biso   1.000  C
  C128     1.0000 0.02530  0.31320  0.69907  Biso   1.000  C
  H101     1.0000 0.50020  0.18970  0.22260  Biso   1.000  H
  H102     1.0000 0.99980  0.68970  0.27740  Biso   1.000  H
  H103     1.0000 0.49980  0.81030  0.77740  Biso   1.000  H
  H104     1.0000 0.00020  0.31030  0.72260  Biso   1.000  H
  C129     1.0000 0.31452  0.16880  0.25625  Biso   1.000  C
  C130     1.0000 0.18548  0.66880  0.24375  Biso   1.000  C
  C131     1.0000 0.68548  0.83120  0.74375  Biso   1.000  C
  C132     1.0000 0.81452  0.33120  0.75625  Biso   1.000  C
  C133     1.0000 0.32040  0.07540  0.22847  Biso   1.000  C
  C134     1.0000 0.17960  0.57540  0.27153  Biso   1.000  C
  C135     1.0000 0.67960  0.92460  0.77153  Biso   1.000  C
  C136     1.0000 0.82040  0.42460  0.72847  Biso   1.000  C
  H105     1.0000 0.35510  0.00590  0.23330  Biso   1.000  H
  H106     1.0000 0.14490  0.50590  0.26670  Biso   1.000  H
  H107     1.0000 0.64490  0.99410  0.76670  Biso   1.000  H
  H108     1.0000 0.85510  0.49410  0.73330  Biso   1.000  H
  C137     1.0000 0.27600  0.08360  0.19402  Biso   1.000  C
  C138     1.0000 0.22400  0.58360  0.30598  Biso   1.000  C
  C139     1.0000 0.72400  0.91640  0.80598  Biso   1.000  C
  C140     1.0000 0.77600  0.41640  0.69402  Biso   1.000  C
  H109     1.0000 0.27880  0.01820  0.17560  Biso   1.000  H
  H110     1.0000 0.22120  0.51820  0.32440  Biso   1.000  H
  H111     1.0000 0.72120  0.98180  0.82440  Biso   1.000  H
  H112     1.0000 0.77880  0.48180  0.67560  Biso   1.000  H
  C141     1.0000 0.22730  0.18710  0.18627  Biso   1.000  C
  C142     1.0000 0.27270  0.68710  0.31373  Biso   1.000  C
  C143     1.0000 0.77270  0.81290  0.81373  Biso   1.000  C
  C144     1.0000 0.72730  0.31290  0.68627  Biso   1.000  C
  H113     1.0000 0.19760  0.19370  0.16240  Biso   1.000  H
  H114     1.0000 0.30240  0.69370  0.33760  Biso   1.000  H
  H115     1.0000 0.80240  0.80630  0.83760  Biso   1.000  H
  H116     1.0000 0.69760  0.30630  0.66240  Biso   1.000  H
  C145     1.0000 0.22240  0.28060  0.21364  Biso   1.000  C
  C146     1.0000 0.27760  0.78060  0.28636  Biso   1.000  C
  C147     1.0000 0.77760  0.71940  0.78636  Biso   1.000  C
  C148     1.0000 0.72240  0.21940  0.71364  Biso   1.000  C
  H117     1.0000 0.18960  0.35200  0.20830  Biso   1.000  H
  H118     1.0000 0.31040  0.85200  0.29170  Biso   1.000  H
  H119     1.0000 0.81040  0.64800  0.79170  Biso   1.000  H
  H120     1.0000 0.68960  0.14800  0.70830  Biso   1.000  H
  C149     1.0000 0.20760  0.51630  0.42936  Biso   1.000  C
  C150     1.0000 0.29240  0.01630  0.07064  Biso   1.000  C
  C151     1.0000 0.79240  0.48370  0.57064  Biso   1.000  C
  C152     1.0000 0.70760  0.98370  0.92936  Biso   1.000  C
  C153     1.0000 0.23080  0.63170  0.41543  Biso   1.000  C
  C154     1.0000 0.26920  0.13170  0.08457  Biso   1.000  C
  C155     1.0000 0.76920  0.36830  0.58457  Biso   1.000  C
  C156     1.0000 0.73080  0.86830  0.91543  Biso   1.000  C
  H121     1.0000 0.27200  0.63550  0.39820  Biso   1.000  H
  H122     1.0000 0.22800  0.13550  0.10180  Biso   1.000  H
  H123     1.0000 0.72800  0.36450  0.60180  Biso   1.000  H
  H124     1.0000 0.77200  0.86450  0.89820  Biso   1.000  H
  C157     1.0000 0.19420  0.74260  0.42654  Biso   1.000  C
  C158     1.0000 0.30580  0.24260  0.07346  Biso   1.000  C
  C159     1.0000 0.80580  0.25740  0.57346  Biso   1.000  C
  C160     1.0000 0.69420  0.75740  0.92654  Biso   1.000  C
  H125     1.0000 0.21050  0.82140  0.41680  Biso   1.000  H
  H126     1.0000 0.28950  0.32140  0.08320  Biso   1.000  H
  H127     1.0000 0.78950  0.17860  0.58320  Biso   1.000  H
  H128     1.0000 0.71050  0.67860  0.91680  Biso   1.000  H
  C161     1.0000 0.13480  0.73830  0.45136  Biso   1.000  C
  C162     1.0000 0.36520  0.23830  0.04864  Biso   1.000  C
  C163     1.0000 0.86520  0.26170  0.54864  Biso   1.000  C
  C164     1.0000 0.63480  0.76170  0.95136  Biso   1.000  C
  H129     1.0000 0.10970  0.81390  0.45870  Biso   1.000  H
  H130     1.0000 0.39030  0.31390  0.04130  Biso   1.000  H
  H131     1.0000 0.89030  0.18610  0.54130  Biso   1.000  H
  H132     1.0000 0.60970  0.68610  0.95870  Biso   1.000  H
  C165     1.0000 0.11140  0.62410  0.46579  Biso   1.000  C
  C166     1.0000 0.38860  0.12410  0.03421  Biso   1.000  C
  C167     1.0000 0.88860  0.37590  0.53421  Biso   1.000  C
  C168     1.0000 0.61140  0.87590  0.96579  Biso   1.000  C
  H133     1.0000 0.07100  0.62150  0.48350  Biso   1.000  H
  H134     1.0000 0.42900  0.12150  0.01650  Biso   1.000  H
  H135     1.0000 0.92900  0.37850  0.51650  Biso   1.000  H
  H136     1.0000 0.57100  0.87850  0.98350  Biso   1.000  H
  C169     1.0000 0.14670  0.51290  0.45457  Biso   1.000  C
  C170     1.0000 0.35330  0.01290  0.04543  Biso   1.000  C
  C171     1.0000 0.85330  0.48710  0.54543  Biso   1.000  C
  C172     1.0000 0.64670  0.98710  0.95457  Biso   1.000  C
  H137     1.0000 0.12940  0.43430  0.46410  Biso   1.000  H
  H138     1.0000 0.37060  0.93430  0.03590  Biso   1.000  H
  H139     1.0000 0.87060  0.56570  0.53590  Biso   1.000  H
  H140     1.0000 0.62940  0.06570  0.96410  Biso   1.000  H
  C173     1.0000 0.65800  0.79770  0.30941  Biso   1.000  C
  C174     1.0000 0.84200  0.29770  0.19059  Biso   1.000  C
  C175     1.0000 0.34200  0.20230  0.69059  Biso   1.000  C
  C176     1.0000 0.15800  0.70230  0.80941  Biso   1.000  C
  H141     1.0000 0.71430  0.80100  0.31240  Biso   1.000  H
  H142     1.0000 0.78570  0.30100  0.18760  Biso   1.000  H
  H143     1.0000 0.28570  0.19900  0.68760  Biso   1.000  H
  H144     1.0000 0.21430  0.69900  0.81240  Biso   1.000  H
  C177     1.0000 0.61580  0.78180  0.34160  Biso   1.000  C
  C178     1.0000 0.88420  0.28180  0.15840  Biso   1.000  C
  C179     1.0000 0.38420  0.21820  0.65840  Biso   1.000  C
  C180     1.0000 0.11580  0.71820  0.84160  Biso   1.000  C
  H145     1.0000 0.64250  0.77370  0.36620  Biso   1.000  H
  H146     1.0000 0.85750  0.27370  0.13380  Biso   1.000  H
  H147     1.0000 0.35750  0.22630  0.63380  Biso   1.000  H
  H148     1.0000 0.14250  0.72630  0.86620  Biso   1.000  H
  C181     1.0000 0.53380  0.77770  0.33728  Biso   1.000  C
  C182     1.0000 0.96620  0.27770  0.16272  Biso   1.000  C
  C183     1.0000 0.46620  0.22230  0.66272  Biso   1.000  C
  C184     1.0000 0.03380  0.72230  0.83728  Biso   1.000  C
  H149     1.0000 0.50320  0.76760  0.35890  Biso   1.000  H
  H150     1.0000 0.99680  0.26760  0.14110  Biso   1.000  H
  H151     1.0000 0.49680  0.23240  0.64110  Biso   1.000  H
  H152     1.0000 0.00320  0.73240  0.85890  Biso   1.000  H
  C185     1.0000 0.49720  0.78870  0.30101  Biso   1.000  C
  C186     1.0000 0.00280  0.28870  0.19899  Biso   1.000  C
  C187     1.0000 0.50280  0.21130  0.69899  Biso   1.000  C
  C188     1.0000 0.99720  0.71130  0.80101  Biso   1.000  C
  H153     1.0000 0.44100  0.78610  0.29750  Biso   1.000  H
  H154     1.0000 0.05900  0.28610  0.20250  Biso   1.000  H
  H155     1.0000 0.55900  0.21390  0.70250  Biso   1.000  H
  H156     1.0000 0.94100  0.71390  0.79750  Biso   1.000  H
  C189     1.0000 0.54310  0.80370  0.26969  Biso   1.000  C
  C190     1.0000 0.95690  0.30370  0.23031  Biso   1.000  C
  C191     1.0000 0.45690  0.19630  0.73031  Biso   1.000  C
  C192     1.0000 0.04310  0.69630  0.76969  Biso   1.000  C
  C193     1.0000 0.51090  0.81630  0.22977  Biso   1.000  C
  C194     1.0000 0.98910  0.31630  0.27023  Biso   1.000  C
  C195     1.0000 0.48910  0.18370  0.77023  Biso   1.000  C
  C196     1.0000 0.01090  0.68370  0.72977  Biso   1.000  C
  C197     1.0000 0.43190  0.79950  0.21759  Biso   1.000  C
  C198     1.0000 0.06810  0.29950  0.28241  Biso   1.000  C
  C199     1.0000 0.56810  0.20050  0.78241  Biso   1.000  C
  C200     1.0000 0.93190  0.70050  0.71759  Biso   1.000  C
  H157     1.0000 0.39390  0.77930  0.23550  Biso   1.000  H
  H158     1.0000 0.10610  0.27930  0.26450  Biso   1.000  H
  H159     1.0000 0.60610  0.22070  0.76450  Biso   1.000  H
  H160     1.0000 0.89390  0.72070  0.73550  Biso   1.000  H
  C201     1.0000 0.40860  0.81220  0.17917  Biso   1.000  C
  C202     1.0000 0.09140  0.31220  0.32083  Biso   1.000  C
  C203     1.0000 0.59140  0.18780  0.82083  Biso   1.000  C
  C204     1.0000 0.90860  0.68780  0.67917  Biso   1.000  C
  H161     1.0000 0.35460  0.80150  0.17050  Biso   1.000  H
  H162     1.0000 0.14540  0.30150  0.32950  Biso   1.000  H
  H163     1.0000 0.64540  0.19850  0.82950  Biso   1.000  H
  H164     1.0000 0.85460  0.69850  0.67050  Biso   1.000  H
  C205     1.0000 0.46520  0.84080  0.15355  Biso   1.000  C
  C206     1.0000 0.03480  0.34080  0.34645  Biso   1.000  C
  C207     1.0000 0.53480  0.15920  0.84645  Biso   1.000  C
  C208     1.0000 0.96520  0.65920  0.65355  Biso   1.000  C
  H165     1.0000 0.45070  0.85090  0.12710  Biso   1.000  H
  H166     1.0000 0.04930  0.35090  0.37290  Biso   1.000  H
  H167     1.0000 0.54930  0.14910  0.87290  Biso   1.000  H
  H168     1.0000 0.95070  0.64910  0.62710  Biso   1.000  H
  C209     1.0000 0.54370  0.85450  0.16742  Biso   1.000  C
  C210     1.0000 0.95630  0.35450  0.33258  Biso   1.000  C
  C211     1.0000 0.45630  0.14550  0.83258  Biso   1.000  C
  C212     1.0000 0.04370  0.64550  0.66742  Biso   1.000  C
  H169     1.0000 0.58280  0.87380  0.14990  Biso   1.000  H
  H170     1.0000 0.91720  0.37380  0.35010  Biso   1.000  H
  H171     1.0000 0.41720  0.12620  0.85010  Biso   1.000  H
  H172     1.0000 0.08280  0.62620  0.64990  Biso   1.000  H
  C213     1.0000 0.26450  0.27130  0.24855  Biso   1.000  C
  C214     1.0000 0.23550  0.77130  0.25145  Biso   1.000  C
  C215     1.0000 0.73550  0.72870  0.75145  Biso   1.000  C
  C216     1.0000 0.76450  0.22870  0.74855  Biso   1.000  C
  H173     1.0000 0.25950  0.33490  0.26740  Biso   1.000  H
  H174     1.0000 0.24050  0.83490  0.23260  Biso   1.000  H
  H175     1.0000 0.74050  0.66510  0.73260  Biso   1.000  H
  H176     1.0000 0.75950  0.16510  0.76740  Biso   1.000  H
  O89      1.0000 0.12100  0.03240  0.51992  Biso   1.000  O
  O90      1.0000 0.37900  0.53240  0.98008  Biso   1.000  O
  O91      1.0000 0.87900  0.96760  0.48008  Biso   1.000  O
  O92      1.0000 0.62100  0.46760  0.01992  Biso   1.000  O
  O93      1.0000 0.44350  0.66190  0.42255  Biso   1.000  O
  O94      1.0000 0.05650  0.16190  0.07745  Biso   1.000  O
  O95      1.0000 0.55650  0.33810  0.57745  Biso   1.000  O
  O96      1.0000 0.94350  0.83810  0.92255  Biso   1.000  O
  O97      1.0000 0.98860  0.15810  0.47130  Biso   1.000  O
  O98      1.0000 0.51140  0.65810  0.02870  Biso   1.000  O
  O99      1.0000 0.01140  0.84190  0.52870  Biso   1.000  O
  O100     1.0000 0.48860  0.34190  0.97130  Biso   1.000  O
  O101     1.0000 0.07580  0.29860  0.52130  Biso   1.000  O
  O102     1.0000 0.42420  0.79860  0.97870  Biso   1.000  O
  O103     1.0000 0.92420  0.70140  0.47870  Biso   1.000  O
  O104     1.0000 0.57580  0.20140  0.02130  Biso   1.000  O
  O105     1.0000 0.96820  0.46140  0.43910  Biso   1.000  O
  O106     1.0000 0.53180  0.96140  0.06090  Biso   1.000  O
  O107     1.0000 0.03180  0.53860  0.56090  Biso   1.000  O
  O108     1.0000 0.46820  0.03860  0.93910  Biso   1.000  O
