data_image0
_cell_length_a       11.272
_cell_length_b       21.7129
_cell_length_c       9.4325
_cell_angle_alpha    90
_cell_angle_beta     123.775
_cell_angle_gamma    90

_symmetry_space_group_name_H-M    "P 1"
_symmetry_int_tables_number       1

loop_
  _symmetry_equiv_pos_as_xyz
  'x, y, z'

loop_
  _atom_site_label
  _atom_site_occupancy
  _atom_site_fract_x
  _atom_site_fract_y
  _atom_site_fract_z
  _atom_site_thermal_displace_type
  _atom_site_B_iso_or_equiv
  _atom_site_type_symbol
  Cu1      1.0000 0.86501  0.64554  0.31310  Biso   1.000  Cu
  Cu2      1.0000 0.86501  0.35446  0.81310  Biso   1.000  Cu
  Cu3      1.0000 0.36501  0.14554  0.31310  Biso   1.000  Cu
  Cu4      1.0000 0.36501  0.85446  0.81310  Biso   1.000  Cu
  V1       1.0000 0.70374  0.55591  0.92605  Biso   1.000  V
  V2       1.0000 0.70374  0.44409  0.42605  Biso   1.000  V
  V3       1.0000 0.20374  0.05591  0.92605  Biso   1.000  V
  V4       1.0000 0.20374  0.94409  0.42605  Biso   1.000  V
  V5       1.0000 0.53372  0.47762  0.03858  Biso   1.000  V
  V6       1.0000 0.53372  0.52238  0.53858  Biso   1.000  V
  V7       1.0000 0.03372  0.97762  0.03858  Biso   1.000  V
  V8       1.0000 0.03372  0.02238  0.53858  Biso   1.000  V
  P1       1.0000 0.59398  0.59501  0.29421  Biso   1.000  P
  P2       1.0000 0.59398  0.40499  0.79421  Biso   1.000  P
  P3       1.0000 0.09398  0.09501  0.29421  Biso   1.000  P
  P4       1.0000 0.09398  0.90499  0.79421  Biso   1.000  P
  P5       1.0000 0.90517  0.49903  0.31986  Biso   1.000  P
  P6       1.0000 0.90517  0.50097  0.81986  Biso   1.000  P
  P7       1.0000 0.40517  0.99903  0.31986  Biso   1.000  P
  P8       1.0000 0.40517  0.00097  0.81986  Biso   1.000  P
  O1       1.0000 0.74271  0.61788  0.03730  Biso   1.000  O
  O2       1.0000 0.74271  0.38212  0.53730  Biso   1.000  O
  O3       1.0000 0.24271  0.11788  0.03730  Biso   1.000  O
  O4       1.0000 0.24271  0.88212  0.53730  Biso   1.000  O
  O5       1.0000 0.72933  0.63343  0.37760  Biso   1.000  O
  O6       1.0000 0.72933  0.36657  0.87760  Biso   1.000  O
  O7       1.0000 0.22933  0.13343  0.37760  Biso   1.000  O
  O8       1.0000 0.22933  0.86657  0.87760  Biso   1.000  O
  O9       1.0000 0.94669  0.56500  0.38070  Biso   1.000  O
  O10      1.0000 0.94669  0.43500  0.88070  Biso   1.000  O
  O11      1.0000 0.44669  0.06500  0.38070  Biso   1.000  O
  O12      1.0000 0.44669  0.93500  0.88070  Biso   1.000  O
  O13      1.0000 0.87621  0.46212  0.43840  Biso   1.000  O
  O14      1.0000 0.87621  0.53788  0.93840  Biso   1.000  O
  O15      1.0000 0.37621  0.96212  0.43840  Biso   1.000  O
  O16      1.0000 0.37621  0.03788  0.93840  Biso   1.000  O
  O17      1.0000 0.61707  0.52973  0.24910  Biso   1.000  O
  O18      1.0000 0.61707  0.47027  0.74910  Biso   1.000  O
  O19      1.0000 0.11707  0.02973  0.24910  Biso   1.000  O
  O20      1.0000 0.11707  0.97027  0.74910  Biso   1.000  O
  O21      1.0000 0.53821  0.59029  0.40930  Biso   1.000  O
  O22      1.0000 0.53821  0.40971  0.90930  Biso   1.000  O
  O23      1.0000 0.03821  0.09029  0.40930  Biso   1.000  O
  O24      1.0000 0.03821  0.90971  0.90930  Biso   1.000  O
  O25      1.0000 0.61810  0.58496  0.72510  Biso   1.000  O
  O26      1.0000 0.61810  0.41504  0.22510  Biso   1.000  O
  O27      1.0000 0.11810  0.08496  0.72510  Biso   1.000  O
  O28      1.0000 0.11810  0.91504  0.22510  Biso   1.000  O
  O29      1.0000 0.77844  0.49309  0.13160  Biso   1.000  O
  O30      1.0000 0.77844  0.50691  0.63160  Biso   1.000  O
  O31      1.0000 0.27844  0.99309  0.13160  Biso   1.000  O
  O32      1.0000 0.27844  0.00691  0.63160  Biso   1.000  O
  O33      1.0000 0.37233  0.47327  0.98420  Biso   1.000  O
  O34      1.0000 0.37233  0.52673  0.48420  Biso   1.000  O
  O35      1.0000 0.87233  0.97327  0.98420  Biso   1.000  O
  O36      1.0000 0.87233  0.02673  0.48420  Biso   1.000  O
  O37      1.0000 0.52957  0.53630  0.91410  Biso   1.000  O
  O38      1.0000 0.52957  0.46370  0.41410  Biso   1.000  O
  O39      1.0000 0.02957  0.03630  0.91410  Biso   1.000  O
  O40      1.0000 0.02957  0.96370  0.41410  Biso   1.000  O
  N1       1.0000 0.81650  0.73521  0.27030  Biso   1.000  N
  N2       1.0000 0.81650  0.26479  0.77030  Biso   1.000  N
  N3       1.0000 0.31650  0.23521  0.27030  Biso   1.000  N
  N4       1.0000 0.31650  0.76479  0.77030  Biso   1.000  N
  N5       1.0000 0.01360  0.67289  0.27180  Biso   1.000  N
  N6       1.0000 0.01360  0.32711  0.77180  Biso   1.000  N
  N7       1.0000 0.51360  0.17289  0.27180  Biso   1.000  N
  N8       1.0000 0.51360  0.82711  0.77180  Biso   1.000  N
  C1       1.0000 0.10930  0.63603  0.27270  Biso   1.000  C
  C2       1.0000 0.10930  0.36397  0.77270  Biso   1.000  C
  C3       1.0000 0.60930  0.13603  0.27270  Biso   1.000  C
  C4       1.0000 0.60930  0.86397  0.77270  Biso   1.000  C
  H1       1.0000 0.11050  0.59350  0.29700  Biso   1.000  H
  H2       1.0000 0.11050  0.40650  0.79700  Biso   1.000  H
  H3       1.0000 0.61050  0.09350  0.29700  Biso   1.000  H
  H4       1.0000 0.61050  0.90650  0.79700  Biso   1.000  H
  C5       1.0000 0.20680  0.65812  0.23920  Biso   1.000  C
  C6       1.0000 0.20680  0.34188  0.73920  Biso   1.000  C
  C7       1.0000 0.70680  0.15812  0.23920  Biso   1.000  C
  C8       1.0000 0.70680  0.84188  0.73920  Biso   1.000  C
  H5       1.0000 0.27330  0.63120  0.23940  Biso   1.000  H
  H6       1.0000 0.27330  0.36880  0.73940  Biso   1.000  H
  H7       1.0000 0.77330  0.13120  0.23940  Biso   1.000  H
  H8       1.0000 0.77330  0.86880  0.73940  Biso   1.000  H
  C9       1.0000 0.20510  0.71982  0.20580  Biso   1.000  C
  C10      1.0000 0.20510  0.28018  0.70580  Biso   1.000  C
  C11      1.0000 0.70510  0.21982  0.20580  Biso   1.000  C
  C12      1.0000 0.70510  0.78018  0.70580  Biso   1.000  C
  H9       1.0000 0.27280  0.73610  0.18590  Biso   1.000  H
  H10      1.0000 0.27280  0.26390  0.68590  Biso   1.000  H
  H11      1.0000 0.77280  0.23610  0.18590  Biso   1.000  H
  H12      1.0000 0.77280  0.76390  0.68590  Biso   1.000  H
  C13      1.0000 0.10470  0.75864  0.20110  Biso   1.000  C
  C14      1.0000 0.10470  0.24136  0.70110  Biso   1.000  C
  C15      1.0000 0.60470  0.25864  0.20110  Biso   1.000  C
  C16      1.0000 0.60470  0.74136  0.70110  Biso   1.000  C
  H13      1.0000 0.10170  0.80120  0.17630  Biso   1.000  H
  H14      1.0000 0.10170  0.19880  0.67630  Biso   1.000  H
  H15      1.0000 0.60170  0.30120  0.17630  Biso   1.000  H
  H16      1.0000 0.60170  0.69880  0.67630  Biso   1.000  H
  C17      1.0000 0.00900  0.73312  0.23370  Biso   1.000  C
  C18      1.0000 0.00900  0.26688  0.73370  Biso   1.000  C
  C19      1.0000 0.50900  0.23312  0.23370  Biso   1.000  C
  C20      1.0000 0.50900  0.76688  0.73370  Biso   1.000  C
  C21      1.0000 0.89410  0.76850  0.22800  Biso   1.000  C
  C22      1.0000 0.89410  0.23150  0.72800  Biso   1.000  C
  C23      1.0000 0.39410  0.26850  0.22800  Biso   1.000  C
  C24      1.0000 0.39410  0.73150  0.72800  Biso   1.000  C
  C25      1.0000 0.86440  0.83005  0.18190  Biso   1.000  C
  C26      1.0000 0.86440  0.16995  0.68190  Biso   1.000  C
  C27      1.0000 0.36440  0.33005  0.18190  Biso   1.000  C
  C28      1.0000 0.36440  0.66995  0.68190  Biso   1.000  C
  H17      1.0000 0.92150  0.85290  0.15540  Biso   1.000  H
  H18      1.0000 0.92150  0.14710  0.65540  Biso   1.000  H
  H19      1.0000 0.42150  0.35290  0.15540  Biso   1.000  H
  H20      1.0000 0.42150  0.64710  0.65540  Biso   1.000  H
  C29      1.0000 0.75080  0.85781  0.17500  Biso   1.000  C
  C30      1.0000 0.75080  0.14219  0.67500  Biso   1.000  C
  C31      1.0000 0.25080  0.35781  0.17500  Biso   1.000  C
  C32      1.0000 0.25080  0.64219  0.67500  Biso   1.000  C
  H21      1.0000 0.72870  0.89990  0.14310  Biso   1.000  H
  H22      1.0000 0.72870  0.10010  0.64310  Biso   1.000  H
  H23      1.0000 0.22870  0.39990  0.14310  Biso   1.000  H
  H24      1.0000 0.22870  0.60010  0.64310  Biso   1.000  H
  C33      1.0000 0.66950  0.82327  0.21550  Biso   1.000  C
  C34      1.0000 0.66950  0.17673  0.71550  Biso   1.000  C
  C35      1.0000 0.16950  0.32327  0.21550  Biso   1.000  C
  C36      1.0000 0.16950  0.67673  0.71550  Biso   1.000  C
  H25      1.0000 0.58990  0.84110  0.20960  Biso   1.000  H
  H26      1.0000 0.58990  0.15890  0.70960  Biso   1.000  H
  H27      1.0000 0.08990  0.34110  0.20960  Biso   1.000  H
  H28      1.0000 0.08990  0.65890  0.70960  Biso   1.000  H
  C37      1.0000 0.70650  0.76269  0.26420  Biso   1.000  C
  C38      1.0000 0.70650  0.23731  0.76420  Biso   1.000  C
  C39      1.0000 0.20650  0.26269  0.26420  Biso   1.000  C
  C40      1.0000 0.20650  0.73731  0.76420  Biso   1.000  C
  H29      1.0000 0.65250  0.73940  0.29460  Biso   1.000  H
  H30      1.0000 0.65250  0.26060  0.79460  Biso   1.000  H
  H31      1.0000 0.15250  0.23940  0.29460  Biso   1.000  H
  H32      1.0000 0.15250  0.76060  0.79460  Biso   1.000  H
  C41      1.0000 0.05920  0.46388  0.34420  Biso   1.000  C
  C42      1.0000 0.05920  0.53612  0.84420  Biso   1.000  C
  C43      1.0000 0.55920  0.96388  0.34420  Biso   1.000  C
  C44      1.0000 0.55920  0.03612  0.84420  Biso   1.000  C
  H33      1.0000 0.14340  0.47300  0.45820  Biso   1.000  H
  H34      1.0000 0.14340  0.52700  0.95820  Biso   1.000  H
  H35      1.0000 0.64340  0.97300  0.45820  Biso   1.000  H
  H36      1.0000 0.64340  0.02700  0.95820  Biso   1.000  H
  H37      1.0000 0.07340  0.48020  0.25780  Biso   1.000  H
  H38      1.0000 0.07340  0.51980  0.75780  Biso   1.000  H
  H39      1.0000 0.57340  0.98020  0.25780  Biso   1.000  H
  H40      1.0000 0.57340  0.01980  0.75780  Biso   1.000  H
  H41      1.0000 0.04520  0.41920  0.33000  Biso   1.000  H
  H42      1.0000 0.04520  0.58080  0.83000  Biso   1.000  H
  H43      1.0000 0.54520  0.91920  0.33000  Biso   1.000  H
  H44      1.0000 0.54520  0.08080  0.83000  Biso   1.000  H
  C45      1.0000 0.45830  0.63212  0.10330  Biso   1.000  C
  C46      1.0000 0.45830  0.36788  0.60330  Biso   1.000  C
  C47      1.0000 0.95830  0.13212  0.10330  Biso   1.000  C
  C48      1.0000 0.95830  0.86788  0.60330  Biso   1.000  C
  H45      1.0000 0.49210  0.63860  0.02860  Biso   1.000  H
  H46      1.0000 0.49210  0.36140  0.52860  Biso   1.000  H
  H47      1.0000 0.99210  0.13860  0.02860  Biso   1.000  H
  H48      1.0000 0.99210  0.86140  0.52860  Biso   1.000  H
  H49      1.0000 0.43540  0.67190  0.13140  Biso   1.000  H
  H50      1.0000 0.43540  0.32810  0.63140  Biso   1.000  H
  H51      1.0000 0.93540  0.17190  0.13140  Biso   1.000  H
  H52      1.0000 0.93540  0.82810  0.63140  Biso   1.000  H
  H53      1.0000 0.37260  0.60620  0.04480  Biso   1.000  H
  H54      1.0000 0.37260  0.39380  0.54480  Biso   1.000  H
  H55      1.0000 0.87260  0.10620  0.04480  Biso   1.000  H
  H56      1.0000 0.87260  0.89380  0.54480  Biso   1.000  H
  O41      1.0000 0.37140  0.83644  0.22550  Biso   1.000  O
  O42      1.0000 0.37140  0.16356  0.72550  Biso   1.000  O
  O43      1.0000 0.87140  0.33644  0.22550  Biso   1.000  O
  O44      1.0000 0.87140  0.66356  0.72550  Biso   1.000  O
  H57      1.0000 0.32300  0.84800  0.31300  Biso   1.000  H
  H58      1.0000 0.32300  0.15200  0.81300  Biso   1.000  H
  H59      1.0000 0.82300  0.34800  0.31300  Biso   1.000  H
  H60      1.0000 0.82300  0.65200  0.81300  Biso   1.000  H
  H61      1.0000 0.43000  0.78100  0.66000  Biso   1.000  H
  H62      1.0000 0.43000  0.21900  0.16000  Biso   1.000  H
  H63      1.0000 0.93000  0.28100  0.66000  Biso   1.000  H
  H64      1.0000 0.93000  0.71900  0.16000  Biso   1.000  H
