data_image0
_cell_length_a       11.48
_cell_length_b       12.8012
_cell_length_c       28.1994
_cell_angle_alpha    90
_cell_angle_beta     90
_cell_angle_gamma    90

_symmetry_space_group_name_H-M    "P 1"
_symmetry_int_tables_number       1

loop_
  _symmetry_equiv_pos_as_xyz
  'x, y, z'

loop_
  _atom_site_label
  _atom_site_occupancy
  _atom_site_fract_x
  _atom_site_fract_y
  _atom_site_fract_z
  _atom_site_thermal_displace_type
  _atom_site_B_iso_or_equiv
  _atom_site_type_symbol
  Cu1      1.0000 0.70998  0.17857  0.26806  Biso   1.000  Cu
  Cu2      1.0000 0.79002  0.82143  0.76806  Biso   1.000  Cu
  Cu3      1.0000 0.29002  0.67857  0.23194  Biso   1.000  Cu
  Cu4      1.0000 0.20998  0.32143  0.73194  Biso   1.000  Cu
  O1       1.0000 0.76920  0.26305  0.31765  Biso   1.000  O
  O2       1.0000 0.73080  0.73695  0.81765  Biso   1.000  O
  O3       1.0000 0.23080  0.76305  0.18235  Biso   1.000  O
  O4       1.0000 0.26920  0.23695  0.68235  Biso   1.000  O
  O5       1.0000 0.67601  0.29993  0.23184  Biso   1.000  O
  O6       1.0000 0.82399  0.70007  0.73184  Biso   1.000  O
  O7       1.0000 0.32399  0.79993  0.26816  Biso   1.000  O
  O8       1.0000 0.17601  0.20007  0.76816  Biso   1.000  O
  O9       1.0000 0.64510  0.80370  0.25241  Biso   1.000  O
  O10      1.0000 0.85490  0.19630  0.75241  Biso   1.000  O
  O11      1.0000 0.35490  0.30370  0.24759  Biso   1.000  O
  O12      1.0000 0.14510  0.69630  0.74759  Biso   1.000  O
  O13      1.0000 0.73960  0.90240  0.16705  Biso   1.000  O
  O14      1.0000 0.76040  0.09760  0.66705  Biso   1.000  O
  O15      1.0000 0.26040  0.40240  0.33295  Biso   1.000  O
  O16      1.0000 0.23960  0.59760  0.83295  Biso   1.000  O
  O17      1.0000 0.13330  0.63780  0.28927  Biso   1.000  O
  O18      1.0000 0.36670  0.36220  0.78927  Biso   1.000  O
  O19      1.0000 0.86670  0.13780  0.21073  Biso   1.000  O
  O20      1.0000 0.63330  0.86220  0.71073  Biso   1.000  O
  O21      1.0000 0.83710  0.79583  0.36879  Biso   1.000  O
  O22      1.0000 0.66290  0.20417  0.86879  Biso   1.000  O
  O23      1.0000 0.16290  0.29583  0.13121  Biso   1.000  O
  O24      1.0000 0.33710  0.70417  0.63121  Biso   1.000  O
  N1       1.0000 0.75810  0.05170  0.30091  Biso   1.000  N
  N2       1.0000 0.74190  0.94830  0.80091  Biso   1.000  N
  N3       1.0000 0.24190  0.55170  0.19909  Biso   1.000  N
  N4       1.0000 0.25810  0.44830  0.69909  Biso   1.000  N
  N5       1.0000 0.61110  0.08785  0.22916  Biso   1.000  N
  N6       1.0000 0.88890  0.91215  0.72916  Biso   1.000  N
  N7       1.0000 0.38890  0.58785  0.27084  Biso   1.000  N
  N8       1.0000 0.11110  0.41215  0.77084  Biso   1.000  N
  N9       1.0000 0.83020  0.79390  0.28777  Biso   1.000  N
  N10      1.0000 0.66980  0.20610  0.78777  Biso   1.000  N
  N11      1.0000 0.16980  0.29390  0.21223  Biso   1.000  N
  N12      1.0000 0.33020  0.70610  0.71223  Biso   1.000  N
  N13      1.0000 0.98820  0.72110  0.32836  Biso   1.000  N
  N14      1.0000 0.51180  0.27890  0.82836  Biso   1.000  N
  N15      1.0000 0.01180  0.22110  0.17164  Biso   1.000  N
  N16      1.0000 0.48820  0.77890  0.67164  Biso   1.000  N
  C1       1.0000 0.82010  0.23620  0.35704  Biso   1.000  C
  C2       1.0000 0.67990  0.76380  0.85704  Biso   1.000  C
  C3       1.0000 0.17990  0.73620  0.14296  Biso   1.000  C
  C4       1.0000 0.32010  0.26380  0.64296  Biso   1.000  C
  C5       1.0000 0.85330  0.31630  0.38978  Biso   1.000  C
  C6       1.0000 0.64670  0.68370  0.88978  Biso   1.000  C
  C7       1.0000 0.14670  0.81630  0.11022  Biso   1.000  C
  C8       1.0000 0.35330  0.18370  0.61022  Biso   1.000  C
  C9       1.0000 0.91260  0.28730  0.43051  Biso   1.000  C
  C10      1.0000 0.58740  0.71270  0.93051  Biso   1.000  C
  C11      1.0000 0.08740  0.78730  0.06949  Biso   1.000  C
  C12      1.0000 0.41260  0.21270  0.56949  Biso   1.000  C
  H1       1.0000 0.93560  0.34110  0.45170  Biso   1.000  H
  H2       1.0000 0.56440  0.65890  0.95170  Biso   1.000  H
  H3       1.0000 0.06440  0.84110  0.04830  Biso   1.000  H
  H4       1.0000 0.43560  0.15890  0.54830  Biso   1.000  H
  C13      1.0000 0.94120  0.18350  0.44279  Biso   1.000  C
  C14      1.0000 0.55880  0.81650  0.94279  Biso   1.000  C
  C15      1.0000 0.05880  0.68350  0.05721  Biso   1.000  C
  C16      1.0000 0.44120  0.31650  0.55721  Biso   1.000  C
  C17      1.0000 0.90610  0.10750  0.41177  Biso   1.000  C
  C18      1.0000 0.59390  0.89250  0.91177  Biso   1.000  C
  C19      1.0000 0.09390  0.60750  0.08823  Biso   1.000  C
  C20      1.0000 0.40610  0.39250  0.58823  Biso   1.000  C
  H5       1.0000 0.92290  0.03660  0.41910  Biso   1.000  H
  H6       1.0000 0.57710  0.96340  0.91910  Biso   1.000  H
  H7       1.0000 0.07710  0.53660  0.08090  Biso   1.000  H
  H8       1.0000 0.42290  0.46340  0.58090  Biso   1.000  H
  C21      1.0000 0.84590  0.13040  0.36928  Biso   1.000  C
  C22      1.0000 0.65410  0.86960  0.86928  Biso   1.000  C
  C23      1.0000 0.15410  0.63040  0.13072  Biso   1.000  C
  C24      1.0000 0.34590  0.36960  0.63072  Biso   1.000  C
  C25      1.0000 0.81320  0.04320  0.34007  Biso   1.000  C
  C26      1.0000 0.68680  0.95680  0.84007  Biso   1.000  C
  C27      1.0000 0.18680  0.54320  0.15993  Biso   1.000  C
  C28      1.0000 0.31320  0.45680  0.65993  Biso   1.000  C
  H9       1.0000 0.83380  0.97510  0.35050  Biso   1.000  H
  H10      1.0000 0.66620  0.02490  0.85050  Biso   1.000  H
  H11      1.0000 0.16620  0.47510  0.14950  Biso   1.000  H
  H12      1.0000 0.33380  0.52490  0.64950  Biso   1.000  H
  C29      1.0000 0.00850  0.16140  0.48877  Biso   1.000  C
  C30      1.0000 0.49150  0.83860  0.98877  Biso   1.000  C
  C31      1.0000 0.99150  0.66140  0.01123  Biso   1.000  C
  C32      1.0000 0.50850  0.33860  0.51123  Biso   1.000  C
  C33      1.0000 0.02640  0.04420  0.49641  Biso   1.000  C
  C34      1.0000 0.47360  0.95580  0.99641  Biso   1.000  C
  C35      1.0000 0.97360  0.54420  0.00359  Biso   1.000  C
  C36      1.0000 0.52640  0.45580  0.50359  Biso   1.000  C
  H13      1.0000 0.06930  0.03280  0.52600  Biso   1.000  H
  H14      1.0000 0.43070  0.96720  0.02600  Biso   1.000  H
  H15      1.0000 0.93070  0.53280  0.97400  Biso   1.000  H
  H16      1.0000 0.56930  0.46720  0.47400  Biso   1.000  H
  H17      1.0000 0.07100  0.01530  0.46980  Biso   1.000  H
  H18      1.0000 0.42900  0.98470  0.96980  Biso   1.000  H
  H19      1.0000 0.92900  0.51530  0.03020  Biso   1.000  H
  H20      1.0000 0.57100  0.48470  0.53020  Biso   1.000  H
  H21      1.0000 0.95050  0.00950  0.49830  Biso   1.000  H
  H22      1.0000 0.54950  0.99050  0.99830  Biso   1.000  H
  H23      1.0000 0.04950  0.50950  0.00170  Biso   1.000  H
  H24      1.0000 0.45050  0.49050  0.50170  Biso   1.000  H
  C37      1.0000 0.94230  0.20790  0.53046  Biso   1.000  C
  C38      1.0000 0.55770  0.79210  0.03046  Biso   1.000  C
  C39      1.0000 0.05770  0.70790  0.96954  Biso   1.000  C
  C40      1.0000 0.44230  0.29210  0.46954  Biso   1.000  C
  H25      1.0000 0.93140  0.28300  0.52530  Biso   1.000  H
  H26      1.0000 0.56860  0.71700  0.02530  Biso   1.000  H
  H27      1.0000 0.06860  0.78300  0.97470  Biso   1.000  H
  H28      1.0000 0.43140  0.21700  0.47470  Biso   1.000  H
  H29      1.0000 0.98670  0.19670  0.55970  Biso   1.000  H
  H30      1.0000 0.51330  0.80330  0.05970  Biso   1.000  H
  H31      1.0000 0.01330  0.69670  0.94030  Biso   1.000  H
  H32      1.0000 0.48670  0.30330  0.44030  Biso   1.000  H
  H33      1.0000 0.86610  0.17390  0.53320  Biso   1.000  H
  H34      1.0000 0.63390  0.82610  0.03320  Biso   1.000  H
  H35      1.0000 0.13390  0.67390  0.96680  Biso   1.000  H
  H36      1.0000 0.36610  0.32610  0.46680  Biso   1.000  H
  C41      1.0000 0.12910  0.21260  0.48596  Biso   1.000  C
  C42      1.0000 0.37090  0.78740  0.98596  Biso   1.000  C
  C43      1.0000 0.87090  0.71260  0.01404  Biso   1.000  C
  C44      1.0000 0.62910  0.28740  0.51404  Biso   1.000  C
  H37      1.0000 0.12020  0.28800  0.48140  Biso   1.000  H
  H38      1.0000 0.37980  0.71200  0.98140  Biso   1.000  H
  H39      1.0000 0.87980  0.78800  0.01860  Biso   1.000  H
  H40      1.0000 0.62020  0.21200  0.51860  Biso   1.000  H
  H41      1.0000 0.17250  0.18300  0.45920  Biso   1.000  H
  H42      1.0000 0.32750  0.81700  0.95920  Biso   1.000  H
  H43      1.0000 0.82750  0.68300  0.04080  Biso   1.000  H
  H44      1.0000 0.67250  0.31700  0.54080  Biso   1.000  H
  H45      1.0000 0.17180  0.19940  0.51550  Biso   1.000  H
  H46      1.0000 0.32820  0.80060  0.01550  Biso   1.000  H
  H47      1.0000 0.82820  0.69940  0.98450  Biso   1.000  H
  H48      1.0000 0.67180  0.30060  0.48450  Biso   1.000  H
  C45      1.0000 0.82330  0.43090  0.37849  Biso   1.000  C
  C46      1.0000 0.67670  0.56910  0.87849  Biso   1.000  C
  C47      1.0000 0.17670  0.93090  0.12151  Biso   1.000  C
  C48      1.0000 0.32330  0.06910  0.62151  Biso   1.000  C
  C49      1.0000 0.88670  0.46530  0.33285  Biso   1.000  C
  C50      1.0000 0.61330  0.53470  0.83285  Biso   1.000  C
  C51      1.0000 0.11330  0.96530  0.16715  Biso   1.000  C
  C52      1.0000 0.38670  0.03470  0.66715  Biso   1.000  C
  H49      1.0000 0.97100  0.45790  0.33720  Biso   1.000  H
  H50      1.0000 0.52900  0.54210  0.83720  Biso   1.000  H
  H51      1.0000 0.02900  0.95790  0.16280  Biso   1.000  H
  H52      1.0000 0.47100  0.04210  0.66280  Biso   1.000  H
  H53      1.0000 0.86800  0.53850  0.32600  Biso   1.000  H
  H54      1.0000 0.63200  0.46150  0.82600  Biso   1.000  H
  H55      1.0000 0.13200  0.03850  0.17400  Biso   1.000  H
  H56      1.0000 0.36800  0.96150  0.67400  Biso   1.000  H
  H57      1.0000 0.86150  0.42130  0.30630  Biso   1.000  H
  H58      1.0000 0.63850  0.57870  0.80630  Biso   1.000  H
  H59      1.0000 0.13850  0.92130  0.19370  Biso   1.000  H
  H60      1.0000 0.36150  0.07870  0.69370  Biso   1.000  H
  C53      1.0000 0.85780  0.50370  0.41897  Biso   1.000  C
  C54      1.0000 0.64220  0.49630  0.91897  Biso   1.000  C
  C55      1.0000 0.14220  0.00370  0.08103  Biso   1.000  C
  C56      1.0000 0.35780  0.99630  0.58103  Biso   1.000  C
  H61      1.0000 0.94170  0.49780  0.42480  Biso   1.000  H
  H62      1.0000 0.55830  0.50220  0.92480  Biso   1.000  H
  H63      1.0000 0.05830  0.99780  0.07520  Biso   1.000  H
  H64      1.0000 0.44170  0.00220  0.57520  Biso   1.000  H
  H65      1.0000 0.81520  0.48400  0.44770  Biso   1.000  H
  H66      1.0000 0.68480  0.51600  0.94770  Biso   1.000  H
  H67      1.0000 0.18480  0.98400  0.05230  Biso   1.000  H
  H68      1.0000 0.31520  0.01600  0.55230  Biso   1.000  H
  H69      1.0000 0.83860  0.57590  0.41040  Biso   1.000  H
  H70      1.0000 0.66140  0.42410  0.91040  Biso   1.000  H
  H71      1.0000 0.16140  0.07590  0.08960  Biso   1.000  H
  H72      1.0000 0.33860  0.92410  0.58960  Biso   1.000  H
  C57      1.0000 0.69060  0.44330  0.37074  Biso   1.000  C
  C58      1.0000 0.80940  0.55670  0.87074  Biso   1.000  C
  C59      1.0000 0.30940  0.94330  0.12926  Biso   1.000  C
  C60      1.0000 0.19060  0.05670  0.62926  Biso   1.000  C
  H73      1.0000 0.64900  0.42190  0.39950  Biso   1.000  H
  H74      1.0000 0.85100  0.57810  0.89950  Biso   1.000  H
  H75      1.0000 0.35100  0.92190  0.10050  Biso   1.000  H
  H76      1.0000 0.14900  0.07810  0.60050  Biso   1.000  H
  H77      1.0000 0.66590  0.39940  0.34410  Biso   1.000  H
  H78      1.0000 0.83410  0.60060  0.84410  Biso   1.000  H
  H79      1.0000 0.33410  0.89940  0.15590  Biso   1.000  H
  H80      1.0000 0.16590  0.10060  0.65590  Biso   1.000  H
  H81      1.0000 0.67260  0.51650  0.36370  Biso   1.000  H
  H82      1.0000 0.82740  0.48350  0.86370  Biso   1.000  H
  H83      1.0000 0.32740  0.01650  0.13630  Biso   1.000  H
  H84      1.0000 0.17260  0.98350  0.63630  Biso   1.000  H
  C61      1.0000 0.62770  0.30370  0.19018  Biso   1.000  C
  C62      1.0000 0.87230  0.69630  0.69018  Biso   1.000  C
  C63      1.0000 0.37230  0.80370  0.30982  Biso   1.000  C
  C64      1.0000 0.12770  0.19630  0.80982  Biso   1.000  C
  C65      1.0000 0.64040  0.39660  0.16141  Biso   1.000  C
  C66      1.0000 0.85960  0.60340  0.66141  Biso   1.000  C
  C67      1.0000 0.35960  0.89660  0.33859  Biso   1.000  C
  C68      1.0000 0.14040  0.10340  0.83859  Biso   1.000  C
  C69      1.0000 0.58020  0.40150  0.11903  Biso   1.000  C
  C70      1.0000 0.91980  0.59850  0.61903  Biso   1.000  C
  C71      1.0000 0.41980  0.90150  0.38097  Biso   1.000  C
  C72      1.0000 0.08020  0.09850  0.88097  Biso   1.000  C
  H85      1.0000 0.58820  0.46320  0.10060  Biso   1.000  H
  H86      1.0000 0.91180  0.53680  0.60060  Biso   1.000  H
  H87      1.0000 0.41180  0.96320  0.39940  Biso   1.000  H
  H88      1.0000 0.08820  0.03680  0.89940  Biso   1.000  H
  C73      1.0000 0.50800  0.32180  0.10120  Biso   1.000  C
  C74      1.0000 0.99200  0.67820  0.60120  Biso   1.000  C
  C75      1.0000 0.49200  0.82180  0.39880  Biso   1.000  C
  C76      1.0000 0.00800  0.17820  0.89880  Biso   1.000  C
  C77      1.0000 0.50100  0.23230  0.12731  Biso   1.000  C
  C78      1.0000 0.99900  0.76770  0.62731  Biso   1.000  C
  C79      1.0000 0.49900  0.73230  0.37269  Biso   1.000  C
  C80      1.0000 0.00100  0.26770  0.87269  Biso   1.000  C
  H89      1.0000 0.45460  0.17640  0.11580  Biso   1.000  H
  H90      1.0000 0.04540  0.82360  0.61580  Biso   1.000  H
  H91      1.0000 0.54540  0.67640  0.38420  Biso   1.000  H
  H92      1.0000 0.95460  0.32360  0.88420  Biso   1.000  H
  C81      1.0000 0.56040  0.21980  0.17104  Biso   1.000  C
  C82      1.0000 0.93960  0.78020  0.67104  Biso   1.000  C
  C83      1.0000 0.43960  0.71980  0.32896  Biso   1.000  C
  C84      1.0000 0.06040  0.28020  0.82896  Biso   1.000  C
  C85      1.0000 0.55280  0.11790  0.19271  Biso   1.000  C
  C86      1.0000 0.94720  0.88210  0.69271  Biso   1.000  C
  C87      1.0000 0.44720  0.61790  0.30729  Biso   1.000  C
  C88      1.0000 0.05280  0.38210  0.80729  Biso   1.000  C
  H93      1.0000 0.50050  0.06910  0.17890  Biso   1.000  H
  H94      1.0000 0.99950  0.93090  0.67890  Biso   1.000  H
  H95      1.0000 0.49950  0.56910  0.32110  Biso   1.000  H
  H96      1.0000 0.00050  0.43090  0.82110  Biso   1.000  H
  C89      1.0000 0.44830  0.33570  0.05242  Biso   1.000  C
  C90      1.0000 0.05170  0.66430  0.55242  Biso   1.000  C
  C91      1.0000 0.55170  0.83570  0.44758  Biso   1.000  C
  C92      1.0000 0.94830  0.16430  0.94758  Biso   1.000  C
  C93      1.0000 0.37380  0.43500  0.05283  Biso   1.000  C
  C94      1.0000 0.12620  0.56500  0.55283  Biso   1.000  C
  C95      1.0000 0.62620  0.93500  0.44717  Biso   1.000  C
  C96      1.0000 0.87380  0.06500  0.94717  Biso   1.000  C
  H97      1.0000 0.33630  0.44370  0.02190  Biso   1.000  H
  H98      1.0000 0.16370  0.55630  0.52190  Biso   1.000  H
  H99      1.0000 0.66370  0.94370  0.47810  Biso   1.000  H
  H100     1.0000 0.83630  0.05630  0.97810  Biso   1.000  H
  H101     1.0000 0.42340  0.49550  0.05940  Biso   1.000  H
  H102     1.0000 0.07660  0.50450  0.55940  Biso   1.000  H
  H103     1.0000 0.57660  0.99550  0.44060  Biso   1.000  H
  H104     1.0000 0.92340  0.00450  0.94060  Biso   1.000  H
  H105     1.0000 0.31400  0.42910  0.07750  Biso   1.000  H
  H106     1.0000 0.18600  0.57090  0.57750  Biso   1.000  H
  H107     1.0000 0.68600  0.92910  0.42250  Biso   1.000  H
  H108     1.0000 0.81400  0.07090  0.92250  Biso   1.000  H
  C97      1.0000 0.54350  0.34370  0.01469  Biso   1.000  C
  C98      1.0000 0.95650  0.65630  0.51469  Biso   1.000  C
  C99      1.0000 0.45650  0.84370  0.48531  Biso   1.000  C
  C100     1.0000 0.04350  0.15630  0.98531  Biso   1.000  C
  H109     1.0000 0.59000  0.27950  0.01470  Biso   1.000  H
  H110     1.0000 0.91000  0.72050  0.51470  Biso   1.000  H
  H111     1.0000 0.41000  0.77950  0.48530  Biso   1.000  H
  H112     1.0000 0.09000  0.22050  0.98530  Biso   1.000  H
  H113     1.0000 0.59390  0.40350  0.02170  Biso   1.000  H
  H114     1.0000 0.90610  0.59650  0.52170  Biso   1.000  H
  H115     1.0000 0.40610  0.90350  0.47830  Biso   1.000  H
  H116     1.0000 0.09390  0.09650  0.97830  Biso   1.000  H
  H117     1.0000 0.50760  0.35320  0.98350  Biso   1.000  H
  H118     1.0000 0.99240  0.64680  0.48350  Biso   1.000  H
  H119     1.0000 0.49240  0.85320  0.51650  Biso   1.000  H
  H120     1.0000 0.00760  0.14680  0.01650  Biso   1.000  H
  C101     1.0000 0.36880  0.24400  0.04030  Biso   1.000  C
  C102     1.0000 0.13120  0.75600  0.54030  Biso   1.000  C
  C103     1.0000 0.63120  0.74400  0.45970  Biso   1.000  C
  C104     1.0000 0.86880  0.25600  0.95970  Biso   1.000  C
  H121     1.0000 0.41480  0.17950  0.03920  Biso   1.000  H
  H122     1.0000 0.08520  0.82050  0.53920  Biso   1.000  H
  H123     1.0000 0.58520  0.67950  0.46080  Biso   1.000  H
  H124     1.0000 0.91480  0.32050  0.96080  Biso   1.000  H
  H125     1.0000 0.33240  0.25600  0.00930  Biso   1.000  H
  H126     1.0000 0.16760  0.74400  0.50930  Biso   1.000  H
  H127     1.0000 0.66760  0.75600  0.49070  Biso   1.000  H
  H128     1.0000 0.83240  0.24400  0.99070  Biso   1.000  H
  H129     1.0000 0.30820  0.23750  0.06460  Biso   1.000  H
  H130     1.0000 0.19180  0.76250  0.56460  Biso   1.000  H
  H131     1.0000 0.69180  0.73750  0.43540  Biso   1.000  H
  H132     1.0000 0.80820  0.26250  0.93540  Biso   1.000  H
  C105     1.0000 0.72230  0.48530  0.17755  Biso   1.000  C
  C106     1.0000 0.77770  0.51470  0.67755  Biso   1.000  C
  C107     1.0000 0.27770  0.98530  0.32245  Biso   1.000  C
  C108     1.0000 0.22230  0.01470  0.82245  Biso   1.000  C
  C109     1.0000 0.84640  0.44240  0.18422  Biso   1.000  C
  C110     1.0000 0.65360  0.55760  0.68422  Biso   1.000  C
  C111     1.0000 0.15360  0.94240  0.31578  Biso   1.000  C
  C112     1.0000 0.34640  0.05760  0.81578  Biso   1.000  C
  H133     1.0000 0.84500  0.38530  0.20740  Biso   1.000  H
  H134     1.0000 0.65500  0.61470  0.70740  Biso   1.000  H
  H135     1.0000 0.15500  0.88530  0.29260  Biso   1.000  H
  H136     1.0000 0.34500  0.11470  0.79260  Biso   1.000  H
  H137     1.0000 0.89740  0.49830  0.19570  Biso   1.000  H
  H138     1.0000 0.60260  0.50170  0.69570  Biso   1.000  H
  H139     1.0000 0.10260  0.99830  0.30430  Biso   1.000  H
  H140     1.0000 0.39740  0.00170  0.80430  Biso   1.000  H
  H141     1.0000 0.87570  0.41630  0.15380  Biso   1.000  H
  H142     1.0000 0.62430  0.58370  0.65380  Biso   1.000  H
  H143     1.0000 0.12430  0.91630  0.34620  Biso   1.000  H
  H144     1.0000 0.37570  0.08370  0.84620  Biso   1.000  H
  C113     1.0000 0.68230  0.53500  0.22461  Biso   1.000  C
  C114     1.0000 0.81770  0.46500  0.72461  Biso   1.000  C
  C115     1.0000 0.31770  0.03500  0.27539  Biso   1.000  C
  C116     1.0000 0.18230  0.96500  0.77539  Biso   1.000  C
  H145     1.0000 0.67680  0.48080  0.24910  Biso   1.000  H
  H146     1.0000 0.82320  0.51920  0.74910  Biso   1.000  H
  H147     1.0000 0.32320  0.98080  0.25090  Biso   1.000  H
  H148     1.0000 0.17680  0.01920  0.75090  Biso   1.000  H
  H149     1.0000 0.60590  0.56760  0.22020  Biso   1.000  H
  H150     1.0000 0.89410  0.43240  0.72020  Biso   1.000  H
  H151     1.0000 0.39410  0.06760  0.27980  Biso   1.000  H
  H152     1.0000 0.10590  0.93240  0.77980  Biso   1.000  H
  H153     1.0000 0.73880  0.58800  0.23450  Biso   1.000  H
  H154     1.0000 0.76120  0.41200  0.73450  Biso   1.000  H
  H155     1.0000 0.26120  0.08800  0.26550  Biso   1.000  H
  H156     1.0000 0.23880  0.91200  0.76550  Biso   1.000  H
  C117     1.0000 0.73000  0.57360  0.14066  Biso   1.000  C
  C118     1.0000 0.77000  0.42640  0.64066  Biso   1.000  C
  C119     1.0000 0.27000  0.07360  0.35934  Biso   1.000  C
  C120     1.0000 0.23000  0.92640  0.85934  Biso   1.000  C
  H157     1.0000 0.75570  0.54470  0.11020  Biso   1.000  H
  H158     1.0000 0.74430  0.45530  0.61020  Biso   1.000  H
  H159     1.0000 0.24430  0.04470  0.38980  Biso   1.000  H
  H160     1.0000 0.25570  0.95530  0.88980  Biso   1.000  H
  H161     1.0000 0.78600  0.62630  0.15140  Biso   1.000  H
  H162     1.0000 0.71400  0.37370  0.65140  Biso   1.000  H
  H163     1.0000 0.21400  0.12630  0.34860  Biso   1.000  H
  H164     1.0000 0.28600  0.87370  0.84860  Biso   1.000  H
  H165     1.0000 0.65320  0.60590  0.13680  Biso   1.000  H
  H166     1.0000 0.84680  0.39410  0.63680  Biso   1.000  H
  H167     1.0000 0.34680  0.10590  0.36320  Biso   1.000  H
  H168     1.0000 0.15320  0.89410  0.86320  Biso   1.000  H
  C121     1.0000 0.71920  0.85230  0.28715  Biso   1.000  C
  C122     1.0000 0.78080  0.14770  0.78715  Biso   1.000  C
  C123     1.0000 0.28080  0.35230  0.21285  Biso   1.000  C
  C124     1.0000 0.21920  0.64770  0.71285  Biso   1.000  C
  H169     1.0000 0.68160  0.85070  0.31910  Biso   1.000  H
  H170     1.0000 0.81840  0.14930  0.81910  Biso   1.000  H
  H171     1.0000 0.31840  0.35070  0.18090  Biso   1.000  H
  H172     1.0000 0.18160  0.64930  0.68090  Biso   1.000  H
  C125     1.0000 0.73120  0.96370  0.26967  Biso   1.000  C
  C126     1.0000 0.76880  0.03630  0.76967  Biso   1.000  C
  C127     1.0000 0.26880  0.46370  0.23033  Biso   1.000  C
  C128     1.0000 0.23120  0.53630  0.73033  Biso   1.000  C
  H173     1.0000 0.78800  0.96430  0.24280  Biso   1.000  H
  H174     1.0000 0.71200  0.03570  0.74280  Biso   1.000  H
  H175     1.0000 0.21200  0.46430  0.25720  Biso   1.000  H
  H176     1.0000 0.28800  0.53570  0.75720  Biso   1.000  H
  C129     1.0000 0.60960  0.98310  0.24962  Biso   1.000  C
  C130     1.0000 0.89040  0.01690  0.74962  Biso   1.000  C
  C131     1.0000 0.39040  0.48310  0.25038  Biso   1.000  C
  C132     1.0000 0.10960  0.51690  0.75038  Biso   1.000  C
  H177     1.0000 0.55530  0.98570  0.27730  Biso   1.000  H
  H178     1.0000 0.94470  0.01430  0.77730  Biso   1.000  H
  H179     1.0000 0.44470  0.48570  0.22270  Biso   1.000  H
  H180     1.0000 0.05530  0.51430  0.72270  Biso   1.000  H
  C133     1.0000 0.58420  0.88070  0.22341  Biso   1.000  C
  C134     1.0000 0.91580  0.11930  0.72341  Biso   1.000  C
  C135     1.0000 0.41580  0.38070  0.27659  Biso   1.000  C
  C136     1.0000 0.08420  0.61930  0.77659  Biso   1.000  C
  H181     1.0000 0.49870  0.86650  0.22530  Biso   1.000  H
  H182     1.0000 0.00130  0.13350  0.72530  Biso   1.000  H
  H183     1.0000 0.50130  0.36650  0.27470  Biso   1.000  H
  H184     1.0000 0.99870  0.63350  0.77470  Biso   1.000  H
  C137     1.0000 0.62160  0.87080  0.17250  Biso   1.000  C
  C138     1.0000 0.87840  0.12920  0.67250  Biso   1.000  C
  C139     1.0000 0.37840  0.37080  0.32750  Biso   1.000  C
  C140     1.0000 0.12160  0.62920  0.82750  Biso   1.000  C
  H185     1.0000 0.61290  0.79740  0.16210  Biso   1.000  H
  H186     1.0000 0.88710  0.20260  0.66210  Biso   1.000  H
  H187     1.0000 0.38710  0.29740  0.33790  Biso   1.000  H
  H188     1.0000 0.11290  0.70260  0.83790  Biso   1.000  H
  H189     1.0000 0.57110  0.91490  0.15230  Biso   1.000  H
  H190     1.0000 0.92890  0.08510  0.65230  Biso   1.000  H
  H191     1.0000 0.42890  0.41490  0.34770  Biso   1.000  H
  H192     1.0000 0.07110  0.58510  0.84770  Biso   1.000  H
  C141     1.0000 0.77610  0.89960  0.11909  Biso   1.000  C
  C142     1.0000 0.72390  0.10040  0.61909  Biso   1.000  C
  C143     1.0000 0.22390  0.39960  0.38091  Biso   1.000  C
  C144     1.0000 0.27610  0.60040  0.88091  Biso   1.000  C
  H193     1.0000 0.85750  0.92230  0.11700  Biso   1.000  H
  H194     1.0000 0.64250  0.07770  0.61700  Biso   1.000  H
  H195     1.0000 0.14250  0.42230  0.38300  Biso   1.000  H
  H196     1.0000 0.35750  0.57770  0.88300  Biso   1.000  H
  H197     1.0000 0.72700  0.94640  0.10020  Biso   1.000  H
  H198     1.0000 0.77300  0.05360  0.60020  Biso   1.000  H
  H199     1.0000 0.27300  0.44640  0.39980  Biso   1.000  H
  H200     1.0000 0.22700  0.55360  0.89980  Biso   1.000  H
  H201     1.0000 0.76910  0.82810  0.10690  Biso   1.000  H
  H202     1.0000 0.73090  0.17190  0.60690  Biso   1.000  H
  H203     1.0000 0.23090  0.32810  0.39310  Biso   1.000  H
  H204     1.0000 0.26910  0.67190  0.89310  Biso   1.000  H
  C145     1.0000 0.88220  0.76860  0.24525  Biso   1.000  C
  C146     1.0000 0.61780  0.23140  0.74525  Biso   1.000  C
  C147     1.0000 0.11780  0.26860  0.25475  Biso   1.000  C
  C148     1.0000 0.38220  0.73140  0.75475  Biso   1.000  C
  H205     1.0000 0.84560  0.78910  0.21650  Biso   1.000  H
  H206     1.0000 0.65440  0.21090  0.71650  Biso   1.000  H
  H207     1.0000 0.15440  0.28910  0.28350  Biso   1.000  H
  H208     1.0000 0.34560  0.71090  0.78350  Biso   1.000  H
  C149     1.0000 0.98290  0.71590  0.24331  Biso   1.000  C
  C150     1.0000 0.51710  0.28410  0.74331  Biso   1.000  C
  C151     1.0000 0.01710  0.21590  0.25669  Biso   1.000  C
  C152     1.0000 0.48290  0.78410  0.75669  Biso   1.000  C
  H209     1.0000 0.01530  0.69750  0.21350  Biso   1.000  H
  H210     1.0000 0.48470  0.30250  0.71350  Biso   1.000  H
  H211     1.0000 0.98470  0.19750  0.28650  Biso   1.000  H
  H212     1.0000 0.51530  0.80250  0.78650  Biso   1.000  H
  C153     1.0000 0.04240  0.68700  0.28652  Biso   1.000  C
  C154     1.0000 0.45760  0.31300  0.78652  Biso   1.000  C
  C155     1.0000 0.95760  0.18700  0.21348  Biso   1.000  C
  C156     1.0000 0.54240  0.81300  0.71348  Biso   1.000  C
  C157     1.0000 0.88150  0.77080  0.33099  Biso   1.000  C
  C158     1.0000 0.61850  0.22920  0.83099  Biso   1.000  C
  C159     1.0000 0.11850  0.27080  0.16901  Biso   1.000  C
  C160     1.0000 0.38150  0.72920  0.66901  Biso   1.000  C
  C161     1.0000 0.05120  0.70290  0.37299  Biso   1.000  C
  C162     1.0000 0.44880  0.29710  0.87299  Biso   1.000  C
  C163     1.0000 0.94880  0.20290  0.12701  Biso   1.000  C
  C164     1.0000 0.55120  0.79710  0.62701  Biso   1.000  C
  H213     1.0000 0.00500  0.72960  0.39960  Biso   1.000  H
  H214     1.0000 0.49500  0.27040  0.89960  Biso   1.000  H
  H215     1.0000 0.99500  0.22960  0.10040  Biso   1.000  H
  H216     1.0000 0.50500  0.77040  0.60040  Biso   1.000  H
  H217     1.0000 0.12640  0.73910  0.37200  Biso   1.000  H
  H218     1.0000 0.37360  0.26090  0.87200  Biso   1.000  H
  H219     1.0000 0.87360  0.23910  0.12800  Biso   1.000  H
  H220     1.0000 0.62640  0.76090  0.62800  Biso   1.000  H
  H221     1.0000 0.06420  0.62780  0.37720  Biso   1.000  H
  H222     1.0000 0.43580  0.37220  0.87720  Biso   1.000  H
  H223     1.0000 0.93580  0.12780  0.12280  Biso   1.000  H
  H224     1.0000 0.56420  0.87220  0.62280  Biso   1.000  H
