data_image0
_cell_length_a       16.801
_cell_length_b       6.951
_cell_length_c       24.335
_cell_angle_alpha    90
_cell_angle_beta     90
_cell_angle_gamma    90

_symmetry_space_group_name_H-M    "P 1"
_symmetry_int_tables_number       1

loop_
  _symmetry_equiv_pos_as_xyz
  'x, y, z'

loop_
  _atom_site_label
  _atom_site_occupancy
  _atom_site_fract_x
  _atom_site_fract_y
  _atom_site_fract_z
  _atom_site_thermal_displace_type
  _atom_site_B_iso_or_equiv
  _atom_site_type_symbol
  Cu1      1.0000 0.26736  0.09700  0.18734  Biso   1.000  Cu
  Cu2      1.0000 0.23264  0.59700  0.18734  Biso   1.000  Cu
  Cu3      1.0000 0.26736  0.40300  0.68734  Biso   1.000  Cu
  Cu4      1.0000 0.76736  0.09700  0.31266  Biso   1.000  Cu
  Cu5      1.0000 0.73264  0.90300  0.81266  Biso   1.000  Cu
  Cu6      1.0000 0.76736  0.40300  0.81266  Biso   1.000  Cu
  Cu7      1.0000 0.73264  0.59700  0.31266  Biso   1.000  Cu
  Cu8      1.0000 0.23264  0.90300  0.68734  Biso   1.000  Cu
  Cl1      1.0000 0.23630  0.85300  0.24839  Biso   1.000  Cl
  Cl2      1.0000 0.26370  0.35300  0.24839  Biso   1.000  Cl
  Cl3      1.0000 0.23630  0.64700  0.74839  Biso   1.000  Cl
  Cl4      1.0000 0.73630  0.85300  0.25161  Biso   1.000  Cl
  Cl5      1.0000 0.76370  0.14700  0.75161  Biso   1.000  Cl
  Cl6      1.0000 0.73630  0.64700  0.75161  Biso   1.000  Cl
  Cl7      1.0000 0.76370  0.35300  0.25161  Biso   1.000  Cl
  Cl8      1.0000 0.26370  0.14700  0.74839  Biso   1.000  Cl
  Cl9      1.0000 0.37720  0.09290  0.13453  Biso   1.000  Cl
  Cl10     1.0000 0.12280  0.59290  0.13453  Biso   1.000  Cl
  Cl11     1.0000 0.37720  0.40710  0.63453  Biso   1.000  Cl
  Cl12     1.0000 0.87720  0.09290  0.36547  Biso   1.000  Cl
  Cl13     1.0000 0.62280  0.90710  0.86547  Biso   1.000  Cl
  Cl14     1.0000 0.87720  0.40710  0.86547  Biso   1.000  Cl
  Cl15     1.0000 0.62280  0.59290  0.36547  Biso   1.000  Cl
  Cl16     1.0000 0.12280  0.90710  0.63453  Biso   1.000  Cl
  S1       1.0000 0.06970  0.03010  0.05502  Biso   1.000  S
  S2       1.0000 0.43030  0.53010  0.05502  Biso   1.000  S
  S3       1.0000 0.06970  0.46990  0.55502  Biso   1.000  S
  S4       1.0000 0.56970  0.03010  0.44498  Biso   1.000  S
  S5       1.0000 0.93030  0.96990  0.94498  Biso   1.000  S
  S6       1.0000 0.56970  0.46990  0.94498  Biso   1.000  S
  S7       1.0000 0.93030  0.53010  0.44498  Biso   1.000  S
  S8       1.0000 0.43030  0.96990  0.55502  Biso   1.000  S
  O1       1.0000 0.14720  0.98170  0.98230  Biso   1.000  O
  O2       1.0000 0.35280  0.48170  0.98230  Biso   1.000  O
  O3       1.0000 0.14720  0.51830  0.48230  Biso   1.000  O
  O4       1.0000 0.64720  0.98170  0.51770  Biso   1.000  O
  O5       1.0000 0.85280  0.01830  0.01770  Biso   1.000  O
  O6       1.0000 0.64720  0.51830  0.01770  Biso   1.000  O
  O7       1.0000 0.85280  0.48170  0.51770  Biso   1.000  O
  O8       1.0000 0.35280  0.01830  0.48230  Biso   1.000  O
  N1       1.0000 0.03260  0.07070  0.12140  Biso   1.000  N
  N2       1.0000 0.46740  0.57070  0.12140  Biso   1.000  N
  N3       1.0000 0.03260  0.42930  0.62140  Biso   1.000  N
  N4       1.0000 0.53260  0.07070  0.37860  Biso   1.000  N
  N5       1.0000 0.96740  0.92930  0.87860  Biso   1.000  N
  N6       1.0000 0.53260  0.42930  0.87860  Biso   1.000  N
  N7       1.0000 0.96740  0.57070  0.37860  Biso   1.000  N
  N8       1.0000 0.46740  0.92930  0.62140  Biso   1.000  N
  N9       1.0000 0.16570  0.09220  0.13870  Biso   1.000  N
  N10      1.0000 0.33430  0.59220  0.13870  Biso   1.000  N
  N11      1.0000 0.16570  0.40780  0.63870  Biso   1.000  N
  N12      1.0000 0.66570  0.09220  0.36130  Biso   1.000  N
  N13      1.0000 0.83430  0.90780  0.86130  Biso   1.000  N
  N14      1.0000 0.66570  0.40780  0.86130  Biso   1.000  N
  N15      1.0000 0.83430  0.59220  0.36130  Biso   1.000  N
  N16      1.0000 0.33430  0.90780  0.63870  Biso   1.000  N
  N17      1.0000 0.23000  0.03670  0.05380  Biso   1.000  N
  N18      1.0000 0.27000  0.53670  0.05380  Biso   1.000  N
  N19      1.0000 0.23000  0.46330  0.55380  Biso   1.000  N
  N20      1.0000 0.73000  0.03670  0.44620  Biso   1.000  N
  N21      1.0000 0.77000  0.96330  0.94620  Biso   1.000  N
  N22      1.0000 0.73000  0.46330  0.94620  Biso   1.000  N
  N23      1.0000 0.77000  0.53670  0.44620  Biso   1.000  N
  N24      1.0000 0.27000  0.96330  0.55380  Biso   1.000  N
  C1       1.0000 0.95370  0.06600  0.13430  Biso   1.000  C
  C2       1.0000 0.54630  0.56600  0.13430  Biso   1.000  C
  C3       1.0000 0.95370  0.43400  0.63430  Biso   1.000  C
  C4       1.0000 0.45370  0.06600  0.36570  Biso   1.000  C
  C5       1.0000 0.04630  0.93400  0.86570  Biso   1.000  C
  C6       1.0000 0.45370  0.43400  0.86570  Biso   1.000  C
  C7       1.0000 0.04630  0.56600  0.36570  Biso   1.000  C
  C8       1.0000 0.54630  0.93400  0.63430  Biso   1.000  C
  C9       1.0000 0.93150  0.09800  0.18700  Biso   1.000  C
  C10      1.0000 0.56850  0.59800  0.18700  Biso   1.000  C
  C11      1.0000 0.93150  0.40200  0.68700  Biso   1.000  C
  C12      1.0000 0.43150  0.09800  0.31300  Biso   1.000  C
  C13      1.0000 0.06850  0.90200  0.81300  Biso   1.000  C
  C14      1.0000 0.43150  0.40200  0.81300  Biso   1.000  C
  C15      1.0000 0.06850  0.59800  0.31300  Biso   1.000  C
  C16      1.0000 0.56850  0.90200  0.68700  Biso   1.000  C
  C17      1.0000 0.99000  0.13500  0.22770  Biso   1.000  C
  C18      1.0000 0.51000  0.63500  0.22770  Biso   1.000  C
  C19      1.0000 0.99000  0.36500  0.72770  Biso   1.000  C
  C20      1.0000 0.49000  0.13500  0.27230  Biso   1.000  C
  C21      1.0000 0.01000  0.86500  0.77230  Biso   1.000  C
  C22      1.0000 0.49000  0.36500  0.77230  Biso   1.000  C
  C23      1.0000 0.01000  0.63500  0.27230  Biso   1.000  C
  C24      1.0000 0.51000  0.86500  0.72770  Biso   1.000  C
  C25      1.0000 0.06770  0.13700  0.21450  Biso   1.000  C
  C26      1.0000 0.43230  0.63700  0.21450  Biso   1.000  C
  C27      1.0000 0.06770  0.36300  0.71450  Biso   1.000  C
  C28      1.0000 0.56770  0.13700  0.28550  Biso   1.000  C
  C29      1.0000 0.93230  0.86300  0.78550  Biso   1.000  C
  C30      1.0000 0.56770  0.36300  0.78550  Biso   1.000  C
  C31      1.0000 0.93230  0.63700  0.28550  Biso   1.000  C
  C32      1.0000 0.43230  0.86300  0.71450  Biso   1.000  C
  C33      1.0000 0.09040  0.10110  0.15930  Biso   1.000  C
  C34      1.0000 0.40960  0.60110  0.15930  Biso   1.000  C
  C35      1.0000 0.09040  0.39890  0.65930  Biso   1.000  C
  C36      1.0000 0.59040  0.10110  0.34070  Biso   1.000  C
  C37      1.0000 0.90960  0.89890  0.84070  Biso   1.000  C
  C38      1.0000 0.59040  0.39890  0.84070  Biso   1.000  C
  C39      1.0000 0.90960  0.60110  0.34070  Biso   1.000  C
  C40      1.0000 0.40960  0.89890  0.65930  Biso   1.000  C
  C41      1.0000 0.16310  0.05690  0.08460  Biso   1.000  C
  C42      1.0000 0.33690  0.55690  0.08460  Biso   1.000  C
  C43      1.0000 0.16310  0.44310  0.58460  Biso   1.000  C
  C44      1.0000 0.66310  0.05690  0.41540  Biso   1.000  C
  C45      1.0000 0.83690  0.94310  0.91540  Biso   1.000  C
  C46      1.0000 0.66310  0.44310  0.91540  Biso   1.000  C
  C47      1.0000 0.83690  0.55690  0.41540  Biso   1.000  C
  C48      1.0000 0.33690  0.94310  0.58460  Biso   1.000  C
  C49      1.0000 0.21650  0.99490  0.99900  Biso   1.000  C
  C50      1.0000 0.28350  0.49490  0.99900  Biso   1.000  C
  C51      1.0000 0.21650  0.50510  0.49900  Biso   1.000  C
  C52      1.0000 0.71650  0.99490  0.50100  Biso   1.000  C
  C53      1.0000 0.78350  0.00510  0.00100  Biso   1.000  C
  C54      1.0000 0.71650  0.50510  0.00100  Biso   1.000  C
  C55      1.0000 0.78350  0.49490  0.50100  Biso   1.000  C
  C56      1.0000 0.28350  0.00510  0.49900  Biso   1.000  C
  C57      1.0000 0.28550  0.96640  0.96270  Biso   1.000  C
  C58      1.0000 0.21450  0.46640  0.96270  Biso   1.000  C
  C59      1.0000 0.28550  0.53360  0.46270  Biso   1.000  C
  C60      1.0000 0.78550  0.96640  0.53730  Biso   1.000  C
  C61      1.0000 0.71450  0.03360  0.03730  Biso   1.000  C
  C62      1.0000 0.78550  0.53360  0.03730  Biso   1.000  C
  C63      1.0000 0.71450  0.46640  0.53730  Biso   1.000  C
  C64      1.0000 0.21450  0.03360  0.46270  Biso   1.000  C
  C65      1.0000 0.36240  0.00600  0.97910  Biso   1.000  C
  C66      1.0000 0.13760  0.50600  0.97910  Biso   1.000  C
  C67      1.0000 0.36240  0.49400  0.47910  Biso   1.000  C
  C68      1.0000 0.86240  0.00600  0.52090  Biso   1.000  C
  C69      1.0000 0.63760  0.99400  0.02090  Biso   1.000  C
  C70      1.0000 0.86240  0.49400  0.02090  Biso   1.000  C
  C71      1.0000 0.63760  0.50600  0.52090  Biso   1.000  C
  C72      1.0000 0.13760  0.99400  0.47910  Biso   1.000  C
  C73      1.0000 0.42530  0.98300  0.94180  Biso   1.000  C
  C74      1.0000 0.07470  0.48300  0.94180  Biso   1.000  C
  C75      1.0000 0.42530  0.51700  0.44180  Biso   1.000  C
  C76      1.0000 0.92530  0.98300  0.55820  Biso   1.000  C
  C77      1.0000 0.57470  0.01700  0.05820  Biso   1.000  C
  C78      1.0000 0.92530  0.51700  0.05820  Biso   1.000  C
  C79      1.0000 0.57470  0.48300  0.55820  Biso   1.000  C
  C80      1.0000 0.07470  0.01700  0.44180  Biso   1.000  C
  C81      1.0000 0.41060  0.92200  0.88850  Biso   1.000  C
  C82      1.0000 0.08940  0.42200  0.88850  Biso   1.000  C
  C83      1.0000 0.41060  0.57800  0.38850  Biso   1.000  C
  C84      1.0000 0.91060  0.92200  0.61150  Biso   1.000  C
  C85      1.0000 0.58940  0.07800  0.11150  Biso   1.000  C
  C86      1.0000 0.91060  0.57800  0.11150  Biso   1.000  C
  C87      1.0000 0.58940  0.42200  0.61150  Biso   1.000  C
  C88      1.0000 0.08940  0.07800  0.38850  Biso   1.000  C
  C89      1.0000 0.33490  0.88200  0.87290  Biso   1.000  C
  C90      1.0000 0.16510  0.38200  0.87290  Biso   1.000  C
  C91      1.0000 0.33490  0.61800  0.37290  Biso   1.000  C
  C92      1.0000 0.83490  0.88200  0.62710  Biso   1.000  C
  C93      1.0000 0.66510  0.11800  0.12710  Biso   1.000  C
  C94      1.0000 0.83490  0.61800  0.12710  Biso   1.000  C
  C95      1.0000 0.66510  0.38200  0.62710  Biso   1.000  C
  C96      1.0000 0.16510  0.11800  0.37290  Biso   1.000  C
  C97      1.0000 0.27280  0.90500  0.90900  Biso   1.000  C
  C98      1.0000 0.22720  0.40500  0.90900  Biso   1.000  C
  C99      1.0000 0.27280  0.59500  0.40900  Biso   1.000  C
  C100     1.0000 0.77280  0.90500  0.59100  Biso   1.000  C
  C101     1.0000 0.72720  0.09500  0.09100  Biso   1.000  C
  C102     1.0000 0.77280  0.59500  0.09100  Biso   1.000  C
  C103     1.0000 0.72720  0.40500  0.59100  Biso   1.000  C
  C104     1.0000 0.22720  0.09500  0.40900  Biso   1.000  C
  H1       1.0000 0.91820  0.04630  0.10550  Biso   1.000  H
  H2       1.0000 0.58180  0.54630  0.10550  Biso   1.000  H
  H3       1.0000 0.91820  0.45370  0.60550  Biso   1.000  H
  H4       1.0000 0.41820  0.04630  0.39450  Biso   1.000  H
  H5       1.0000 0.08180  0.95370  0.89450  Biso   1.000  H
  H6       1.0000 0.41820  0.45370  0.89450  Biso   1.000  H
  H7       1.0000 0.08180  0.54630  0.39450  Biso   1.000  H
  H8       1.0000 0.58180  0.95370  0.60550  Biso   1.000  H
  H9       1.0000 0.87880  0.09550  0.19790  Biso   1.000  H
  H10      1.0000 0.62120  0.59550  0.19790  Biso   1.000  H
  H11      1.0000 0.87880  0.40450  0.69790  Biso   1.000  H
  H12      1.0000 0.37880  0.09550  0.30210  Biso   1.000  H
  H13      1.0000 0.12120  0.90450  0.80210  Biso   1.000  H
  H14      1.0000 0.37880  0.40450  0.80210  Biso   1.000  H
  H15      1.0000 0.12120  0.59550  0.30210  Biso   1.000  H
  H16      1.0000 0.62120  0.90450  0.69790  Biso   1.000  H
  H17      1.0000 0.97090  0.14180  0.26490  Biso   1.000  H
  H18      1.0000 0.52910  0.64180  0.26490  Biso   1.000  H
  H19      1.0000 0.97090  0.35820  0.76490  Biso   1.000  H
  H20      1.0000 0.47090  0.14180  0.23510  Biso   1.000  H
  H21      1.0000 0.02910  0.85820  0.73510  Biso   1.000  H
  H22      1.0000 0.47090  0.35820  0.73510  Biso   1.000  H
  H23      1.0000 0.02910  0.64180  0.23510  Biso   1.000  H
  H24      1.0000 0.52910  0.85820  0.76490  Biso   1.000  H
  H25      1.0000 0.10820  0.15230  0.23620  Biso   1.000  H
  H26      1.0000 0.39180  0.65230  0.23620  Biso   1.000  H
  H27      1.0000 0.10820  0.34770  0.73620  Biso   1.000  H
  H28      1.0000 0.60820  0.15230  0.26380  Biso   1.000  H
  H29      1.0000 0.89180  0.84770  0.76380  Biso   1.000  H
  H30      1.0000 0.60820  0.34770  0.76380  Biso   1.000  H
  H31      1.0000 0.89180  0.65230  0.26380  Biso   1.000  H
  H32      1.0000 0.39180  0.84770  0.73620  Biso   1.000  H
  H33      1.0000 0.37440  0.03340  0.01650  Biso   1.000  H
  H34      1.0000 0.12560  0.53340  0.01650  Biso   1.000  H
  H35      1.0000 0.37440  0.46660  0.51650  Biso   1.000  H
  H36      1.0000 0.87440  0.03340  0.48350  Biso   1.000  H
  H37      1.0000 0.62560  0.96660  0.98350  Biso   1.000  H
  H38      1.0000 0.87440  0.46660  0.98350  Biso   1.000  H
  H39      1.0000 0.62560  0.53340  0.48350  Biso   1.000  H
  H40      1.0000 0.12560  0.96660  0.51650  Biso   1.000  H
  H41      1.0000 0.47090  0.00850  0.94930  Biso   1.000  H
  H42      1.0000 0.02910  0.50850  0.94930  Biso   1.000  H
  H43      1.0000 0.47090  0.49150  0.44930  Biso   1.000  H
  H44      1.0000 0.97090  0.00850  0.55070  Biso   1.000  H
  H45      1.0000 0.52910  0.99150  0.05070  Biso   1.000  H
  H46      1.0000 0.97090  0.49150  0.05070  Biso   1.000  H
  H47      1.0000 0.52910  0.50850  0.55070  Biso   1.000  H
  H48      1.0000 0.02910  0.99150  0.44930  Biso   1.000  H
  H49      1.0000 0.46080  0.90250  0.86220  Biso   1.000  H
  H50      1.0000 0.03920  0.40250  0.86220  Biso   1.000  H
  H51      1.0000 0.46080  0.59750  0.36220  Biso   1.000  H
  H52      1.0000 0.96080  0.90250  0.63780  Biso   1.000  H
  H53      1.0000 0.53920  0.09750  0.13780  Biso   1.000  H
  H54      1.0000 0.96080  0.59750  0.13780  Biso   1.000  H
  H55      1.0000 0.53920  0.40250  0.63780  Biso   1.000  H
  H56      1.0000 0.03920  0.09750  0.36220  Biso   1.000  H
  H57      1.0000 0.32730  0.83990  0.83460  Biso   1.000  H
  H58      1.0000 0.17270  0.33990  0.83460  Biso   1.000  H
  H59      1.0000 0.32730  0.66010  0.33460  Biso   1.000  H
  H60      1.0000 0.82730  0.83990  0.66540  Biso   1.000  H
  H61      1.0000 0.67270  0.16010  0.16540  Biso   1.000  H
  H62      1.0000 0.82730  0.66010  0.16540  Biso   1.000  H
  H63      1.0000 0.67270  0.33990  0.66540  Biso   1.000  H
  H64      1.0000 0.17270  0.16010  0.33460  Biso   1.000  H
  H65      1.0000 0.22940  0.87240  0.90060  Biso   1.000  H
  H66      1.0000 0.27060  0.37240  0.90060  Biso   1.000  H
  H67      1.0000 0.22940  0.62760  0.40060  Biso   1.000  H
  H68      1.0000 0.72940  0.87240  0.59940  Biso   1.000  H
  H69      1.0000 0.77060  0.12760  0.09940  Biso   1.000  H
  H70      1.0000 0.72940  0.62760  0.09940  Biso   1.000  H
  H71      1.0000 0.77060  0.37240  0.59940  Biso   1.000  H
  H72      1.0000 0.27060  0.12760  0.40060  Biso   1.000  H
