data_image0
_cell_length_a       6.964
_cell_length_b       7.159
_cell_length_c       12.18
_cell_angle_alpha    101.904
_cell_angle_beta     91.5
_cell_angle_gamma    94.031

_symmetry_space_group_name_H-M    "P 1"
_symmetry_int_tables_number       1

loop_
  _symmetry_equiv_pos_as_xyz
  'x, y, z'

loop_
  _atom_site_label
  _atom_site_occupancy
  _atom_site_fract_x
  _atom_site_fract_y
  _atom_site_fract_z
  _atom_site_thermal_displace_type
  _atom_site_B_iso_or_equiv
  _atom_site_type_symbol
  Gd1      1.0000 0.24179  0.69593  0.85521  Biso   1.000  Gd
  Gd2      1.0000 0.75821  0.30407  0.14479  Biso   1.000  Gd
  Cu1      1.0000 0.50000  0.00000  0.50000  Biso   1.000  Cu
  O1       1.0000 0.17630  0.80420  0.50410  Biso   1.000  O
  O2       1.0000 0.82370  0.19580  0.49590  Biso   1.000  O
  O3       1.0000 0.95910  0.46850  0.80560  Biso   1.000  O
  O4       1.0000 0.04090  0.53150  0.19440  Biso   1.000  O
  H1       1.0000 0.89140  0.46420  0.86490  Biso   1.000  H
  H2       1.0000 0.10860  0.53580  0.13510  Biso   1.000  H
  H3       1.0000 0.99330  0.35270  0.77840  Biso   1.000  H
  H4       1.0000 0.00670  0.64730  0.22160  Biso   1.000  H
  O5       1.0000 0.19090  0.73100  0.67200  Biso   1.000  O
  O6       1.0000 0.80910  0.26900  0.32800  Biso   1.000  O
  O7       1.0000 0.43890  0.97440  0.83570  Biso   1.000  O
  O8       1.0000 0.56110  0.02560  0.16430  Biso   1.000  O
  H5       1.0000 0.44400  0.03200  0.78400  Biso   1.000  H
  H6       1.0000 0.55600  0.96800  0.21600  Biso   1.000  H
  H7       1.0000 0.52000  0.02100  0.88600  Biso   1.000  H
  H8       1.0000 0.48000  0.97900  0.11400  Biso   1.000  H
  O9       1.0000 0.46940  0.15240  0.65310  Biso   1.000  O
  O10      1.0000 0.53060  0.84760  0.34690  Biso   1.000  O
  O11      1.0000 0.37410  0.42400  0.74910  Biso   1.000  O
  O12      1.0000 0.62590  0.57600  0.25090  Biso   1.000  O
  O13      1.0000 0.96340  0.87610  0.86200  Biso   1.000  O
  O14      1.0000 0.03660  0.12390  0.13800  Biso   1.000  O
  O15      1.0000 0.79180  0.09800  0.96300  Biso   1.000  O
  O16      1.0000 0.20820  0.90200  0.03700  Biso   1.000  O
  O17      1.0000 0.55730  0.68710  0.93280  Biso   1.000  O
  O18      1.0000 0.44270  0.31290  0.06720  Biso   1.000  O
  O19      1.0000 0.75270  0.50990  0.00940  Biso   1.000  O
  O20      1.0000 0.24730  0.49010  0.99060  Biso   1.000  O
  N1       1.0000 0.36100  0.20430  0.45750  Biso   1.000  N
  N2       1.0000 0.63900  0.79570  0.54250  Biso   1.000  N
  N3       1.0000 0.23300  0.43790  0.39620  Biso   1.000  N
  N4       1.0000 0.76700  0.56210  0.60380  Biso   1.000  N
  C1       1.0000 0.29870  0.26280  0.36840  Biso   1.000  C
  C2       1.0000 0.70130  0.73720  0.63160  Biso   1.000  C
  H9       1.0000 0.29400  0.19000  0.29400  Biso   1.000  H
  H10      1.0000 0.70600  0.81000  0.70600  Biso   1.000  H
  C3       1.0000 0.24930  0.49630  0.51170  Biso   1.000  C
  C4       1.0000 0.75070  0.50370  0.48830  Biso   1.000  C
  C5       1.0000 0.19980  0.69130  0.56680  Biso   1.000  C
  C6       1.0000 0.80020  0.30870  0.43320  Biso   1.000  C
  C7       1.0000 0.32970  0.34960  0.54910  Biso   1.000  C
  C8       1.0000 0.67030  0.65040  0.45090  Biso   1.000  C
  C9       1.0000 0.39240  0.30820  0.65950  Biso   1.000  C
  C10      1.0000 0.60760  0.69180  0.34050  Biso   1.000  C
  C11      1.0000 0.92910  0.99120  0.95000  Biso   1.000  C
  C12      1.0000 0.07090  0.00880  0.05000  Biso   1.000  C
  C13      1.0000 0.58940  0.55950  0.98360  Biso   1.000  C
  C14      1.0000 0.41060  0.44050  0.01640  Biso   1.000  C
  O21      1.0000 0.00280  0.12050  0.68930  Biso   1.000  O
  O22      1.0000 0.99720  0.87950  0.31070  Biso   1.000  O
  H11      1.0000 0.07670  0.03240  0.69360  Biso   1.000  H
  H12      1.0000 0.92330  0.96760  0.30640  Biso   1.000  H
  H13      1.0000 0.98110  0.12360  0.62060  Biso   1.000  H
  H14      1.0000 0.01890  0.87640  0.37940  Biso   1.000  H
