data_image0
_cell_length_a       8.431
_cell_length_b       7.319
_cell_length_c       12.079
_cell_angle_alpha    90
_cell_angle_beta     106.92
_cell_angle_gamma    90

_symmetry_space_group_name_H-M    "P 1"
_symmetry_int_tables_number       1

loop_
  _symmetry_equiv_pos_as_xyz
  'x, y, z'

loop_
  _atom_site_label
  _atom_site_occupancy
  _atom_site_fract_x
  _atom_site_fract_y
  _atom_site_fract_z
  _atom_site_thermal_displace_type
  _atom_site_B_iso_or_equiv
  _atom_site_type_symbol
  Cu1      1.0000 0.41363  0.46083  0.85771  Biso   1.000  Cu
  Cu2      1.0000 0.58637  0.96083  0.64229  Biso   1.000  Cu
  Cu3      1.0000 0.58637  0.53917  0.14229  Biso   1.000  Cu
  Cu4      1.0000 0.41363  0.03917  0.35771  Biso   1.000  Cu
  O1       1.0000 0.30300  0.42860  0.59540  Biso   1.000  O
  O2       1.0000 0.69700  0.92860  0.90460  Biso   1.000  O
  O3       1.0000 0.69700  0.57140  0.40460  Biso   1.000  O
  O4       1.0000 0.30300  0.07140  0.09540  Biso   1.000  O
  O5       1.0000 0.19700  0.46500  0.74210  Biso   1.000  O
  O6       1.0000 0.80300  0.96500  0.75790  Biso   1.000  O
  O7       1.0000 0.80300  0.53500  0.25790  Biso   1.000  O
  O8       1.0000 0.19700  0.03500  0.24210  Biso   1.000  O
  C1       1.0000 0.18560  0.45760  0.63560  Biso   1.000  C
  C2       1.0000 0.81440  0.95760  0.86440  Biso   1.000  C
  C3       1.0000 0.81440  0.54240  0.36440  Biso   1.000  C
  C4       1.0000 0.18560  0.04240  0.13560  Biso   1.000  C
  C5       1.0000 0.01520  0.49170  0.55570  Biso   1.000  C
  C6       1.0000 0.98480  0.99170  0.94430  Biso   1.000  C
  C7       1.0000 0.98480  0.50830  0.44430  Biso   1.000  C
  C8       1.0000 0.01520  0.00830  0.05570  Biso   1.000  C
  O9       1.0000 0.64100  0.47480  0.96680  Biso   1.000  O
  O10      1.0000 0.35900  0.97480  0.53320  Biso   1.000  O
  O11      1.0000 0.35900  0.52520  0.03320  Biso   1.000  O
  O12      1.0000 0.64100  0.02520  0.46680  Biso   1.000  O
  O13      1.0000 0.75810  0.44440  0.82590  Biso   1.000  O
  O14      1.0000 0.24190  0.94440  0.67410  Biso   1.000  O
  O15      1.0000 0.24190  0.55560  0.17410  Biso   1.000  O
  O16      1.0000 0.75810  0.05560  0.32590  Biso   1.000  O
  C9       1.0000 0.76710  0.47000  0.92750  Biso   1.000  C
  C10      1.0000 0.23290  0.97000  0.57250  Biso   1.000  C
  C11      1.0000 0.23290  0.53000  0.07250  Biso   1.000  C
  C12      1.0000 0.76710  0.03000  0.42750  Biso   1.000  C
  C13      1.0000 0.93100  0.49740  0.01460  Biso   1.000  C
  C14      1.0000 0.06900  0.99740  0.48540  Biso   1.000  C
  C15      1.0000 0.06900  0.50260  0.98540  Biso   1.000  C
  C16      1.0000 0.93100  0.00260  0.51460  Biso   1.000  C
  O17      1.0000 0.43200  0.71970  0.82870  Biso   1.000  O
  O18      1.0000 0.56800  0.21970  0.67130  Biso   1.000  O
  O19      1.0000 0.56800  0.28030  0.17130  Biso   1.000  O
  O20      1.0000 0.43200  0.78030  0.32870  Biso   1.000  O
  O21      1.0000 0.40100  0.19510  0.88040  Biso   1.000  O
  O22      1.0000 0.59900  0.69510  0.61960  Biso   1.000  O
  O23      1.0000 0.59900  0.80490  0.11960  Biso   1.000  O
  O24      1.0000 0.40100  0.30490  0.38040  Biso   1.000  O
  H1       1.0000 0.92410  0.50390  0.58770  Biso   1.000  H
  H2       1.0000 0.07590  0.00390  0.91230  Biso   1.000  H
  H3       1.0000 0.07590  0.49610  0.41230  Biso   1.000  H
  H4       1.0000 0.92410  0.99610  0.08770  Biso   1.000  H
  H5       1.0000 0.93710  0.50850  0.09640  Biso   1.000  H
  H6       1.0000 0.06290  0.00850  0.40360  Biso   1.000  H
  H7       1.0000 0.06290  0.49150  0.90360  Biso   1.000  H
  H8       1.0000 0.93710  0.99150  0.59640  Biso   1.000  H
  H9       1.0000 0.53250  0.75510  0.85040  Biso   1.000  H
  H10      1.0000 0.46750  0.25510  0.64960  Biso   1.000  H
  H11      1.0000 0.46750  0.24490  0.14960  Biso   1.000  H
  H12      1.0000 0.53250  0.74490  0.35040  Biso   1.000  H
  H13      1.0000 0.38670  0.77680  0.76430  Biso   1.000  H
  H14      1.0000 0.61330  0.27680  0.73570  Biso   1.000  H
  H15      1.0000 0.61330  0.22320  0.23570  Biso   1.000  H
  H16      1.0000 0.38670  0.72320  0.26430  Biso   1.000  H
  H17      1.0000 0.36180  0.14670  0.81570  Biso   1.000  H
  H18      1.0000 0.63820  0.64670  0.68430  Biso   1.000  H
  H19      1.0000 0.63820  0.85330  0.18430  Biso   1.000  H
  H20      1.0000 0.36180  0.35330  0.31570  Biso   1.000  H
  H21      1.0000 0.36060  0.16690  0.93700  Biso   1.000  H
  H22      1.0000 0.63940  0.66690  0.56300  Biso   1.000  H
  H23      1.0000 0.63940  0.83310  0.06300  Biso   1.000  H
  H24      1.0000 0.36060  0.33310  0.43700  Biso   1.000  H
