data_image0
_cell_length_a       8.9218
_cell_length_b       6.5516
_cell_length_c       21.0173
_cell_angle_alpha    90
_cell_angle_beta     98.029
_cell_angle_gamma    90

_symmetry_space_group_name_H-M    "P 1"
_symmetry_int_tables_number       1

loop_
  _symmetry_equiv_pos_as_xyz
  'x, y, z'

loop_
  _atom_site_label
  _atom_site_occupancy
  _atom_site_fract_x
  _atom_site_fract_y
  _atom_site_fract_z
  _atom_site_thermal_displace_type
  _atom_site_B_iso_or_equiv
  _atom_site_type_symbol
  C1       1.0000 0.86010  0.18290  0.57252  Biso   1.000  C
  C2       1.0000 0.13990  0.68290  0.92748  Biso   1.000  C
  C3       1.0000 0.13990  0.81710  0.42748  Biso   1.000  C
  C4       1.0000 0.86010  0.31710  0.07252  Biso   1.000  C
  H1       1.0000 0.91350  0.06260  0.58270  Biso   1.000  H
  H2       1.0000 0.08650  0.56260  0.91730  Biso   1.000  H
  H3       1.0000 0.08650  0.93740  0.41730  Biso   1.000  H
  H4       1.0000 0.91350  0.43740  0.08270  Biso   1.000  H
  C5       1.0000 0.85970  0.26750  0.51234  Biso   1.000  C
  C6       1.0000 0.14030  0.76750  0.98766  Biso   1.000  C
  C7       1.0000 0.14030  0.73250  0.48766  Biso   1.000  C
  C8       1.0000 0.85970  0.23250  0.01234  Biso   1.000  C
  H5       1.0000 0.91130  0.20410  0.48230  Biso   1.000  H
  H6       1.0000 0.08870  0.70410  0.01770  Biso   1.000  H
  H7       1.0000 0.08870  0.79590  0.51770  Biso   1.000  H
  H8       1.0000 0.91130  0.29590  0.98230  Biso   1.000  H
  C9       1.0000 0.78190  0.44750  0.49720  Biso   1.000  C
  C10      1.0000 0.21810  0.94750  0.00280  Biso   1.000  C
  C11      1.0000 0.21810  0.55250  0.50280  Biso   1.000  C
  C12      1.0000 0.78190  0.05250  0.99720  Biso   1.000  C
  H9       1.0000 0.77970  0.50590  0.45670  Biso   1.000  H
  H10      1.0000 0.22030  0.00590  0.04330  Biso   1.000  H
  H11      1.0000 0.22030  0.49410  0.54330  Biso   1.000  H
  H12      1.0000 0.77970  0.99410  0.95670  Biso   1.000  H
  C13      1.0000 0.70710  0.53970  0.54310  Biso   1.000  C
  C14      1.0000 0.29290  0.03970  0.95690  Biso   1.000  C
  C15      1.0000 0.29290  0.46030  0.45690  Biso   1.000  C
  C16      1.0000 0.70710  0.96030  0.04310  Biso   1.000  C
  C17      1.0000 0.71170  0.44470  0.60238  Biso   1.000  C
  C18      1.0000 0.28830  0.94470  0.89762  Biso   1.000  C
  C19      1.0000 0.28830  0.55530  0.39762  Biso   1.000  C
  C20      1.0000 0.71170  0.05530  0.10238  Biso   1.000  C
  H13      1.0000 0.66130  0.50540  0.63330  Biso   1.000  H
  H14      1.0000 0.33870  0.00540  0.86670  Biso   1.000  H
  H15      1.0000 0.33870  0.49460  0.36670  Biso   1.000  H
  H16      1.0000 0.66130  0.99460  0.13330  Biso   1.000  H
  C21      1.0000 0.62030  0.73200  0.52595  Biso   1.000  C
  C22      1.0000 0.37970  0.23200  0.97405  Biso   1.000  C
  C23      1.0000 0.37970  0.26800  0.47405  Biso   1.000  C
  C24      1.0000 0.62030  0.76800  0.02595  Biso   1.000  C
  C25      1.0000 0.51430  0.06160  0.74507  Biso   1.000  C
  C26      1.0000 0.48570  0.56160  0.75493  Biso   1.000  C
  C27      1.0000 0.48570  0.93840  0.25493  Biso   1.000  C
  C28      1.0000 0.51430  0.43840  0.24507  Biso   1.000  C
  C29      1.0000 0.62630  0.06100  0.80688  Biso   1.000  C
  C30      1.0000 0.37370  0.56100  0.69312  Biso   1.000  C
  C31      1.0000 0.37370  0.93900  0.19312  Biso   1.000  C
  C32      1.0000 0.62630  0.43900  0.30688  Biso   1.000  C
  H17      1.0000 0.61580  0.18630  0.83050  Biso   1.000  H
  H18      1.0000 0.38420  0.68630  0.66950  Biso   1.000  H
  H19      1.0000 0.38420  0.81370  0.16950  Biso   1.000  H
  H20      1.0000 0.61580  0.31370  0.33050  Biso   1.000  H
  H21      1.0000 0.60420  0.94740  0.83370  Biso   1.000  H
  H22      1.0000 0.39580  0.44740  0.66630  Biso   1.000  H
  H23      1.0000 0.39580  0.05260  0.16630  Biso   1.000  H
  H24      1.0000 0.60420  0.55260  0.33370  Biso   1.000  H
  C33      1.0000 0.90180  0.14770  0.83608  Biso   1.000  C
  C34      1.0000 0.09820  0.64770  0.66392  Biso   1.000  C
  C35      1.0000 0.09820  0.85230  0.16392  Biso   1.000  C
  C36      1.0000 0.90180  0.35230  0.33608  Biso   1.000  C
  H25      1.0000 0.95600  0.04860  0.86490  Biso   1.000  H
  H26      1.0000 0.04400  0.54860  0.63510  Biso   1.000  H
  H27      1.0000 0.04400  0.95140  0.13510  Biso   1.000  H
  H28      1.0000 0.95600  0.45140  0.36490  Biso   1.000  H
  H29      1.0000 0.85570  0.24610  0.86190  Biso   1.000  H
  H30      1.0000 0.14430  0.74610  0.63810  Biso   1.000  H
  H31      1.0000 0.14430  0.75390  0.13810  Biso   1.000  H
  H32      1.0000 0.85570  0.25390  0.36190  Biso   1.000  H
  C37      1.0000 0.01290  0.25690  0.79895  Biso   1.000  C
  C38      1.0000 0.98710  0.75690  0.70105  Biso   1.000  C
  C39      1.0000 0.98710  0.74310  0.20105  Biso   1.000  C
  C40      1.0000 0.01290  0.24310  0.29895  Biso   1.000  C
  N1       1.0000 0.78258  0.04310  0.79233  Biso   1.000  N
  N2       1.0000 0.21742  0.54310  0.70767  Biso   1.000  N
  N3       1.0000 0.21742  0.95690  0.20767  Biso   1.000  N
  N4       1.0000 0.78258  0.45690  0.29233  Biso   1.000  N
  N5       1.0000 0.78555  0.26930  0.61684  Biso   1.000  N
  N6       1.0000 0.21445  0.76930  0.88316  Biso   1.000  N
  N7       1.0000 0.21445  0.73070  0.38316  Biso   1.000  N
  N8       1.0000 0.78555  0.23070  0.11684  Biso   1.000  N
  N9       1.0000 0.57810  0.84120  0.57358  Biso   1.000  N
  N10      1.0000 0.42190  0.34120  0.92642  Biso   1.000  N
  N11      1.0000 0.42190  0.15880  0.42642  Biso   1.000  N
  N12      1.0000 0.57810  0.65880  0.07358  Biso   1.000  N
  H33      1.0000 0.53170  0.94260  0.55880  Biso   1.000  H
  H34      1.0000 0.46830  0.44260  0.94120  Biso   1.000  H
  H35      1.0000 0.46830  0.05740  0.44120  Biso   1.000  H
  H36      1.0000 0.53170  0.55740  0.05880  Biso   1.000  H
  O1       1.0000 0.58700  0.77920  0.46862  Biso   1.000  O
  O2       1.0000 0.41300  0.27920  0.03138  Biso   1.000  O
  O3       1.0000 0.41300  0.22080  0.53138  Biso   1.000  O
  O4       1.0000 0.58700  0.72080  0.96862  Biso   1.000  O
  O5       1.0000 0.56863  0.08160  0.69217  Biso   1.000  O
  O6       1.0000 0.43137  0.58160  0.80783  Biso   1.000  O
  O7       1.0000 0.43137  0.91840  0.30783  Biso   1.000  O
  O8       1.0000 0.56863  0.41840  0.19217  Biso   1.000  O
  O9       1.0000 0.37759  0.04640  0.74904  Biso   1.000  O
  O10      1.0000 0.62241  0.54640  0.75096  Biso   1.000  O
  O11      1.0000 0.62241  0.95360  0.25096  Biso   1.000  O
  O12      1.0000 0.37759  0.45360  0.24904  Biso   1.000  O
  O13      1.0000 0.98061  0.26660  0.73797  Biso   1.000  O
  O14      1.0000 0.01939  0.76660  0.76203  Biso   1.000  O
  O15      1.0000 0.01939  0.73340  0.26203  Biso   1.000  O
  O16      1.0000 0.98061  0.23340  0.23797  Biso   1.000  O
  O17      1.0000 0.12626  0.33660  0.83034  Biso   1.000  O
  O18      1.0000 0.87374  0.83660  0.66966  Biso   1.000  O
  O19      1.0000 0.87374  0.66340  0.16966  Biso   1.000  O
  O20      1.0000 0.12626  0.16340  0.33034  Biso   1.000  O
  Cu1      1.0000 0.78607  0.14437  0.70365  Biso   1.000  Cu
  Cu2      1.0000 0.21393  0.64437  0.79635  Biso   1.000  Cu
  Cu3      1.0000 0.21393  0.85563  0.29635  Biso   1.000  Cu
  Cu4      1.0000 0.78607  0.35563  0.20365  Biso   1.000  Cu
  H37      1.0000 0.80500  0.91300  0.79060  Biso   1.000  H
  H38      1.0000 0.19500  0.41300  0.70940  Biso   1.000  H
  H39      1.0000 0.19500  0.08700  0.20940  Biso   1.000  H
  H40      1.0000 0.80500  0.58700  0.29060  Biso   1.000  H
  H41      1.0000 0.61700  0.81900  0.61230  Biso   1.000  H
  H42      1.0000 0.38300  0.31900  0.88770  Biso   1.000  H
  H43      1.0000 0.38300  0.18100  0.38770  Biso   1.000  H
  H44      1.0000 0.61700  0.68100  0.11230  Biso   1.000  H
  O21      1.0000 0.21360  0.11610  0.62410  Biso   1.000  O
  O22      1.0000 0.78640  0.61610  0.87590  Biso   1.000  O
  O23      1.0000 0.78640  0.88390  0.37590  Biso   1.000  O
  O24      1.0000 0.21360  0.38390  0.12410  Biso   1.000  O
  H45      1.0000 0.27690  0.13040  0.59770  Biso   1.000  H
  H46      1.0000 0.72310  0.63040  0.90230  Biso   1.000  H
  H47      1.0000 0.72310  0.86960  0.40230  Biso   1.000  H
  H48      1.0000 0.27690  0.36960  0.09770  Biso   1.000  H
  H49      1.0000 0.25700  0.09200  0.65780  Biso   1.000  H
  H50      1.0000 0.74300  0.59200  0.84220  Biso   1.000  H
  H51      1.0000 0.74300  0.90800  0.34220  Biso   1.000  H
  H52      1.0000 0.25700  0.40800  0.15780  Biso   1.000  H
