data_image0
_cell_length_a       23.98
_cell_length_b       11.659
_cell_length_c       19.332
_cell_angle_alpha    90
_cell_angle_beta     125.892
_cell_angle_gamma    90

_symmetry_space_group_name_H-M    "P 1"
_symmetry_int_tables_number       1

loop_
  _symmetry_equiv_pos_as_xyz
  'x, y, z'

loop_
  _atom_site_label
  _atom_site_occupancy
  _atom_site_fract_x
  _atom_site_fract_y
  _atom_site_fract_z
  _atom_site_thermal_displace_type
  _atom_site_B_iso_or_equiv
  _atom_site_type_symbol
  Cu1      1.0000 0.50000  0.50000  0.50000  Biso   1.000  Cu
  Cu2      1.0000 0.00000  0.00000  0.50000  Biso   1.000  Cu
  Cu3      1.0000 0.50000  0.50000  0.00000  Biso   1.000  Cu
  Cu4      1.0000 0.00000  0.00000  0.00000  Biso   1.000  Cu
  N1       1.0000 0.56652  0.83610  0.52692  Biso   1.000  N
  N2       1.0000 0.06652  0.33610  0.52692  Biso   1.000  N
  N3       1.0000 0.43348  0.83610  0.97308  Biso   1.000  N
  N4       1.0000 0.93348  0.33610  0.97308  Biso   1.000  N
  N5       1.0000 0.43348  0.16390  0.47308  Biso   1.000  N
  N6       1.0000 0.93348  0.66390  0.47308  Biso   1.000  N
  N7       1.0000 0.56652  0.16390  0.02692  Biso   1.000  N
  N8       1.0000 0.06652  0.66390  0.02692  Biso   1.000  N
  N9       1.0000 0.50349  0.85000  0.45171  Biso   1.000  N
  N10      1.0000 0.00349  0.35000  0.45171  Biso   1.000  N
  N11      1.0000 0.49651  0.85000  0.04829  Biso   1.000  N
  N12      1.0000 0.99651  0.35000  0.04829  Biso   1.000  N
  N13      1.0000 0.49651  0.15000  0.54829  Biso   1.000  N
  N14      1.0000 0.99651  0.65000  0.54829  Biso   1.000  N
  N15      1.0000 0.50349  0.15000  0.95171  Biso   1.000  N
  N16      1.0000 0.00349  0.65000  0.95171  Biso   1.000  N
  N17      1.0000 0.51766  0.66950  0.49779  Biso   1.000  N
  N18      1.0000 0.01766  0.16950  0.49779  Biso   1.000  N
  N19      1.0000 0.48234  0.66950  0.00221  Biso   1.000  N
  N20      1.0000 0.98234  0.16950  0.00221  Biso   1.000  N
  N21      1.0000 0.48234  0.33050  0.50221  Biso   1.000  N
  N22      1.0000 0.98234  0.83050  0.50221  Biso   1.000  N
  N23      1.0000 0.51766  0.33050  0.99779  Biso   1.000  N
  N24      1.0000 0.01766  0.83050  0.99779  Biso   1.000  N
  N25      1.0000 0.80921  0.06550  0.44712  Biso   1.000  N
  N26      1.0000 0.30921  0.56550  0.44712  Biso   1.000  N
  N27      1.0000 0.19079  0.06550  0.05288  Biso   1.000  N
  N28      1.0000 0.69079  0.56550  0.05288  Biso   1.000  N
  N29      1.0000 0.19079  0.93450  0.55288  Biso   1.000  N
  N30      1.0000 0.69079  0.43450  0.55288  Biso   1.000  N
  N31      1.0000 0.80921  0.93450  0.94712  Biso   1.000  N
  N32      1.0000 0.30921  0.43450  0.94712  Biso   1.000  N
  N33      1.0000 0.84786  0.10310  0.52874  Biso   1.000  N
  N34      1.0000 0.34786  0.60310  0.52874  Biso   1.000  N
  N35      1.0000 0.15214  0.10310  0.97126  Biso   1.000  N
  N36      1.0000 0.65214  0.60310  0.97126  Biso   1.000  N
  N37      1.0000 0.15214  0.89690  0.47126  Biso   1.000  N
  N38      1.0000 0.65214  0.39690  0.47126  Biso   1.000  N
  N39      1.0000 0.84786  0.89690  0.02874  Biso   1.000  N
  N40      1.0000 0.34786  0.39690  0.02874  Biso   1.000  N
  N41      1.0000 0.91425  0.03980  0.49100  Biso   1.000  N
  N42      1.0000 0.41425  0.53980  0.49100  Biso   1.000  N
  N43      1.0000 0.08575  0.03980  0.00900  Biso   1.000  N
  N44      1.0000 0.58575  0.53980  0.00900  Biso   1.000  N
  N45      1.0000 0.08575  0.96020  0.50900  Biso   1.000  N
  N46      1.0000 0.58575  0.46020  0.50900  Biso   1.000  N
  N47      1.0000 0.91425  0.96020  0.99100  Biso   1.000  N
  N48      1.0000 0.41425  0.46020  0.99100  Biso   1.000  N
  N49      1.0000 0.57131  0.50760  0.65800  Biso   1.000  N
  N50      1.0000 0.07131  0.00760  0.65800  Biso   1.000  N
  N51      1.0000 0.42869  0.50760  0.84200  Biso   1.000  N
  N52      1.0000 0.92869  0.00760  0.84200  Biso   1.000  N
  N53      1.0000 0.42869  0.49240  0.34200  Biso   1.000  N
  N54      1.0000 0.92869  0.99240  0.34200  Biso   1.000  N
  N55      1.0000 0.57131  0.49240  0.15800  Biso   1.000  N
  N56      1.0000 0.07131  0.99240  0.15800  Biso   1.000  N
  C1       1.0000 0.64318  0.96720  0.51790  Biso   1.000  C
  C2       1.0000 0.14318  0.46720  0.51790  Biso   1.000  C
  C3       1.0000 0.35682  0.96720  0.98210  Biso   1.000  C
  C4       1.0000 0.85682  0.46720  0.98210  Biso   1.000  C
  C5       1.0000 0.35682  0.03280  0.48210  Biso   1.000  C
  C6       1.0000 0.85682  0.53280  0.48210  Biso   1.000  C
  C7       1.0000 0.64318  0.03280  0.01790  Biso   1.000  C
  C8       1.0000 0.14318  0.53280  0.01790  Biso   1.000  C
  C9       1.0000 0.66927  0.88780  0.49070  Biso   1.000  C
  C10      1.0000 0.16927  0.38780  0.49070  Biso   1.000  C
  C11      1.0000 0.33073  0.88780  0.00930  Biso   1.000  C
  C12      1.0000 0.83073  0.38780  0.00930  Biso   1.000  C
  C13      1.0000 0.33073  0.11220  0.50930  Biso   1.000  C
  C14      1.0000 0.83073  0.61220  0.50930  Biso   1.000  C
  C15      1.0000 0.66927  0.11220  0.99070  Biso   1.000  C
  C16      1.0000 0.16927  0.61220  0.99070  Biso   1.000  C
  H1       1.0000 0.66750  0.80850  0.50050  Biso   1.000  H
  H2       1.0000 0.16750  0.30850  0.50050  Biso   1.000  H
  H3       1.0000 0.33250  0.80850  0.99950  Biso   1.000  H
  H4       1.0000 0.83250  0.30850  0.99950  Biso   1.000  H
  H5       1.0000 0.33250  0.19150  0.49950  Biso   1.000  H
  H6       1.0000 0.83250  0.69150  0.49950  Biso   1.000  H
  H7       1.0000 0.66750  0.19150  0.00050  Biso   1.000  H
  H8       1.0000 0.16750  0.69150  0.00050  Biso   1.000  H
  C17      1.0000 0.69812  0.92220  0.44920  Biso   1.000  C
  C18      1.0000 0.19812  0.42220  0.44920  Biso   1.000  C
  C19      1.0000 0.30188  0.92220  0.05080  Biso   1.000  C
  C20      1.0000 0.80188  0.42220  0.05080  Biso   1.000  C
  C21      1.0000 0.30188  0.07780  0.55080  Biso   1.000  C
  C22      1.0000 0.80188  0.57780  0.55080  Biso   1.000  C
  C23      1.0000 0.69812  0.07780  0.94920  Biso   1.000  C
  C24      1.0000 0.19812  0.57780  0.94920  Biso   1.000  C
  H9       1.0000 0.71530  0.86650  0.43030  Biso   1.000  H
  H10      1.0000 0.21530  0.36650  0.43030  Biso   1.000  H
  H11      1.0000 0.28470  0.86650  0.06970  Biso   1.000  H
  H12      1.0000 0.78470  0.36650  0.06970  Biso   1.000  H
  H13      1.0000 0.28470  0.13350  0.56970  Biso   1.000  H
  H14      1.0000 0.78470  0.63350  0.56970  Biso   1.000  H
  H15      1.0000 0.71530  0.13350  0.93030  Biso   1.000  H
  H16      1.0000 0.21530  0.63350  0.93030  Biso   1.000  H
  C25      1.0000 0.70185  0.03800  0.43550  Biso   1.000  C
  C26      1.0000 0.20185  0.53800  0.43550  Biso   1.000  C
  C27      1.0000 0.29815  0.03800  0.06450  Biso   1.000  C
  C28      1.0000 0.79815  0.53800  0.06450  Biso   1.000  C
  C29      1.0000 0.29815  0.96200  0.56450  Biso   1.000  C
  C30      1.0000 0.79815  0.46200  0.56450  Biso   1.000  C
  C31      1.0000 0.70185  0.96200  0.93550  Biso   1.000  C
  C32      1.0000 0.20185  0.46200  0.93550  Biso   1.000  C
  C33      1.0000 0.67492  0.11720  0.46140  Biso   1.000  C
  C34      1.0000 0.17492  0.61720  0.46140  Biso   1.000  C
  C35      1.0000 0.32508  0.11720  0.03860  Biso   1.000  C
  C36      1.0000 0.82508  0.61720  0.03860  Biso   1.000  C
  C37      1.0000 0.32508  0.88280  0.53860  Biso   1.000  C
  C38      1.0000 0.82508  0.38280  0.53860  Biso   1.000  C
  C39      1.0000 0.67492  0.88280  0.96140  Biso   1.000  C
  C40      1.0000 0.17492  0.38280  0.96140  Biso   1.000  C
  H17      1.0000 0.67650  0.19650  0.45140  Biso   1.000  H
  H18      1.0000 0.17650  0.69650  0.45140  Biso   1.000  H
  H19      1.0000 0.32350  0.19650  0.04860  Biso   1.000  H
  H20      1.0000 0.82350  0.69650  0.04860  Biso   1.000  H
  H21      1.0000 0.32350  0.80350  0.54860  Biso   1.000  H
  H22      1.0000 0.82350  0.30350  0.54860  Biso   1.000  H
  H23      1.0000 0.67650  0.80350  0.95140  Biso   1.000  H
  H24      1.0000 0.17650  0.30350  0.95140  Biso   1.000  H
  C41      1.0000 0.64556  0.08230  0.50210  Biso   1.000  C
  C42      1.0000 0.14556  0.58230  0.50210  Biso   1.000  C
  C43      1.0000 0.35444  0.08230  0.99790  Biso   1.000  C
  C44      1.0000 0.85444  0.58230  0.99790  Biso   1.000  C
  C45      1.0000 0.35444  0.91770  0.49790  Biso   1.000  C
  C46      1.0000 0.85444  0.41770  0.49790  Biso   1.000  C
  C47      1.0000 0.64556  0.91770  0.00210  Biso   1.000  C
  C48      1.0000 0.14556  0.41770  0.00210  Biso   1.000  C
  H25      1.0000 0.62690  0.13790  0.51920  Biso   1.000  H
  H26      1.0000 0.12690  0.63790  0.51920  Biso   1.000  H
  H27      1.0000 0.37310  0.13790  0.98080  Biso   1.000  H
  H28      1.0000 0.87310  0.63790  0.98080  Biso   1.000  H
  H29      1.0000 0.37310  0.86210  0.48080  Biso   1.000  H
  H30      1.0000 0.87310  0.36210  0.48080  Biso   1.000  H
  H31      1.0000 0.62690  0.86210  0.01920  Biso   1.000  H
  H32      1.0000 0.12690  0.36210  0.01920  Biso   1.000  H
  C49      1.0000 0.61511  0.93160  0.56720  Biso   1.000  C
  C50      1.0000 0.11511  0.43160  0.56720  Biso   1.000  C
  C51      1.0000 0.38489  0.93160  0.93280  Biso   1.000  C
  C52      1.0000 0.88489  0.43160  0.93280  Biso   1.000  C
  C53      1.0000 0.38489  0.06840  0.43280  Biso   1.000  C
  C54      1.0000 0.88489  0.56840  0.43280  Biso   1.000  C
  C55      1.0000 0.61511  0.06840  0.06720  Biso   1.000  C
  C56      1.0000 0.11511  0.56840  0.06720  Biso   1.000  C
  H33      1.0000 0.65390  0.90900  0.62570  Biso   1.000  H
  H34      1.0000 0.15390  0.40900  0.62570  Biso   1.000  H
  H35      1.0000 0.34610  0.90900  0.87430  Biso   1.000  H
  H36      1.0000 0.84610  0.40900  0.87430  Biso   1.000  H
  H37      1.0000 0.34610  0.09100  0.37430  Biso   1.000  H
  H38      1.0000 0.84610  0.59100  0.37430  Biso   1.000  H
  H39      1.0000 0.65390  0.09100  0.12570  Biso   1.000  H
  H40      1.0000 0.15390  0.59100  0.12570  Biso   1.000  H
  H41      1.0000 0.59180  0.99800  0.57180  Biso   1.000  H
  H42      1.0000 0.09180  0.49800  0.57180  Biso   1.000  H
  H43      1.0000 0.40820  0.99800  0.92820  Biso   1.000  H
  H44      1.0000 0.90820  0.49800  0.92820  Biso   1.000  H
  H45      1.0000 0.40820  0.00200  0.42820  Biso   1.000  H
  H46      1.0000 0.90820  0.50200  0.42820  Biso   1.000  H
  H47      1.0000 0.59180  0.00200  0.07180  Biso   1.000  H
  H48      1.0000 0.09180  0.50200  0.07180  Biso   1.000  H
  C57      1.0000 0.73369  0.07810  0.39180  Biso   1.000  C
  C58      1.0000 0.23369  0.57810  0.39180  Biso   1.000  C
  C59      1.0000 0.26631  0.07810  0.10820  Biso   1.000  C
  C60      1.0000 0.76631  0.57810  0.10820  Biso   1.000  C
  C61      1.0000 0.26631  0.92190  0.60820  Biso   1.000  C
  C62      1.0000 0.76631  0.42190  0.60820  Biso   1.000  C
  C63      1.0000 0.73369  0.92190  0.89180  Biso   1.000  C
  C64      1.0000 0.23369  0.42190  0.89180  Biso   1.000  C
  H49      1.0000 0.71430  0.03320  0.33890  Biso   1.000  H
  H50      1.0000 0.21430  0.53320  0.33890  Biso   1.000  H
  H51      1.0000 0.28570  0.03320  0.16110  Biso   1.000  H
  H52      1.0000 0.78570  0.53320  0.16110  Biso   1.000  H
  H53      1.0000 0.28570  0.96680  0.66110  Biso   1.000  H
  H54      1.0000 0.78570  0.46680  0.66110  Biso   1.000  H
  H55      1.0000 0.71430  0.96680  0.83890  Biso   1.000  H
  H56      1.0000 0.21430  0.46680  0.83890  Biso   1.000  H
  H57      1.0000 0.72180  0.15970  0.37560  Biso   1.000  H
  H58      1.0000 0.22180  0.65970  0.37560  Biso   1.000  H
  H59      1.0000 0.27820  0.15970  0.12440  Biso   1.000  H
  H60      1.0000 0.77820  0.65970  0.12440  Biso   1.000  H
  H61      1.0000 0.27820  0.84030  0.62440  Biso   1.000  H
  H62      1.0000 0.77820  0.34030  0.62440  Biso   1.000  H
  H63      1.0000 0.72180  0.84030  0.87560  Biso   1.000  H
  H64      1.0000 0.22180  0.34030  0.87560  Biso   1.000  H
  C65      1.0000 0.47651  0.74680  0.43700  Biso   1.000  C
  C66      1.0000 0.97651  0.24680  0.43700  Biso   1.000  C
  C67      1.0000 0.52349  0.74680  0.06300  Biso   1.000  C
  C68      1.0000 0.02349  0.24680  0.06300  Biso   1.000  C
  C69      1.0000 0.52349  0.25320  0.56300  Biso   1.000  C
  C70      1.0000 0.02349  0.75320  0.56300  Biso   1.000  C
  C71      1.0000 0.47651  0.25320  0.93700  Biso   1.000  C
  C72      1.0000 0.97651  0.75320  0.93700  Biso   1.000  C
  H65      1.0000 0.43190  0.72850  0.38780  Biso   1.000  H
  H66      1.0000 0.93190  0.22850  0.38780  Biso   1.000  H
  H67      1.0000 0.56810  0.72850  0.11220  Biso   1.000  H
  H68      1.0000 0.06810  0.22850  0.11220  Biso   1.000  H
  H69      1.0000 0.56810  0.27150  0.61220  Biso   1.000  H
  H70      1.0000 0.06810  0.77150  0.61220  Biso   1.000  H
  H71      1.0000 0.43190  0.27150  0.88780  Biso   1.000  H
  H72      1.0000 0.93190  0.77150  0.88780  Biso   1.000  H
  C73      1.0000 0.57378  0.72930  0.55330  Biso   1.000  C
  C74      1.0000 0.07378  0.22930  0.55330  Biso   1.000  C
  C75      1.0000 0.42622  0.72930  0.94670  Biso   1.000  C
  C76      1.0000 0.92622  0.22930  0.94670  Biso   1.000  C
  C77      1.0000 0.42622  0.27070  0.44670  Biso   1.000  C
  C78      1.0000 0.92622  0.77070  0.44670  Biso   1.000  C
  C79      1.0000 0.57378  0.27070  0.05330  Biso   1.000  C
  C80      1.0000 0.07378  0.77070  0.05330  Biso   1.000  C
  H73      1.0000 0.61350  0.69950  0.60460  Biso   1.000  H
  H74      1.0000 0.11350  0.19950  0.60460  Biso   1.000  H
  H75      1.0000 0.38650  0.69950  0.89540  Biso   1.000  H
  H76      1.0000 0.88650  0.19950  0.89540  Biso   1.000  H
  H77      1.0000 0.38650  0.30050  0.39540  Biso   1.000  H
  H78      1.0000 0.88650  0.80050  0.39540  Biso   1.000  H
  H79      1.0000 0.61350  0.30050  0.10460  Biso   1.000  H
  H80      1.0000 0.11350  0.80050  0.10460  Biso   1.000  H
  C81      1.0000 0.91093  0.08510  0.55300  Biso   1.000  C
  C82      1.0000 0.41093  0.58510  0.55300  Biso   1.000  C
  C83      1.0000 0.08907  0.08510  0.94700  Biso   1.000  C
  C84      1.0000 0.58907  0.58510  0.94700  Biso   1.000  C
  C85      1.0000 0.08907  0.91490  0.44700  Biso   1.000  C
  C86      1.0000 0.58907  0.41490  0.44700  Biso   1.000  C
  C87      1.0000 0.91093  0.91490  0.05300  Biso   1.000  C
  C88      1.0000 0.41093  0.41490  0.05300  Biso   1.000  C
  H81      1.0000 0.95050  0.10220  0.60870  Biso   1.000  H
  H82      1.0000 0.45050  0.60220  0.60870  Biso   1.000  H
  H83      1.0000 0.04950  0.10220  0.89130  Biso   1.000  H
  H84      1.0000 0.54950  0.60220  0.89130  Biso   1.000  H
  H85      1.0000 0.04950  0.89780  0.39130  Biso   1.000  H
  H86      1.0000 0.54950  0.39780  0.39130  Biso   1.000  H
  H87      1.0000 0.95050  0.89780  0.10870  Biso   1.000  H
  H88      1.0000 0.45050  0.39780  0.10870  Biso   1.000  H
  C89      1.0000 0.84887  0.02950  0.42520  Biso   1.000  C
  C90      1.0000 0.34887  0.52950  0.42520  Biso   1.000  C
  C91      1.0000 0.15113  0.02950  0.07480  Biso   1.000  C
  C92      1.0000 0.65113  0.52950  0.07480  Biso   1.000  C
  C93      1.0000 0.15113  0.97050  0.57480  Biso   1.000  C
  C94      1.0000 0.65113  0.47050  0.57480  Biso   1.000  C
  C95      1.0000 0.84887  0.97050  0.92520  Biso   1.000  C
  C96      1.0000 0.34887  0.47050  0.92520  Biso   1.000  C
  H89      1.0000 0.83300  0.00060  0.37060  Biso   1.000  H
  H90      1.0000 0.33300  0.50060  0.37060  Biso   1.000  H
  H91      1.0000 0.16700  0.00060  0.12940  Biso   1.000  H
  H92      1.0000 0.66700  0.50060  0.12940  Biso   1.000  H
  H93      1.0000 0.16700  0.99940  0.62940  Biso   1.000  H
  H94      1.0000 0.66700  0.49940  0.62940  Biso   1.000  H
  H95      1.0000 0.83300  0.99940  0.87060  Biso   1.000  H
  H96      1.0000 0.33300  0.49940  0.87060  Biso   1.000  H
  C97      1.0000 0.66820  0.49630  0.81900  Biso   1.000  C
  C98      1.0000 0.16820  0.99630  0.81900  Biso   1.000  C
  C99      1.0000 0.33180  0.49630  0.68100  Biso   1.000  C
  C100     1.0000 0.83180  0.99630  0.68100  Biso   1.000  C
  C101     1.0000 0.33180  0.50370  0.18100  Biso   1.000  C
  C102     1.0000 0.83180  0.00370  0.18100  Biso   1.000  C
  C103     1.0000 0.66820  0.50370  0.31900  Biso   1.000  C
  C104     1.0000 0.16820  0.00370  0.31900  Biso   1.000  C
  H97      1.0000 0.64890  0.47260  0.84960  Biso   1.000  H
  H98      1.0000 0.14890  0.97260  0.84960  Biso   1.000  H
  H99      1.0000 0.35110  0.47260  0.65040  Biso   1.000  H
  H100     1.0000 0.85110  0.97260  0.65040  Biso   1.000  H
  H101     1.0000 0.35110  0.52740  0.15040  Biso   1.000  H
  H102     1.0000 0.85110  0.02740  0.15040  Biso   1.000  H
  H103     1.0000 0.64890  0.52740  0.34960  Biso   1.000  H
  H104     1.0000 0.14890  0.02740  0.34960  Biso   1.000  H
  H105     1.0000 0.69080  0.57090  0.84060  Biso   1.000  H
  H106     1.0000 0.19080  0.07090  0.84060  Biso   1.000  H
  H107     1.0000 0.30920  0.57090  0.65940  Biso   1.000  H
  H108     1.0000 0.80920  0.07090  0.65940  Biso   1.000  H
  H109     1.0000 0.30920  0.42910  0.15940  Biso   1.000  H
  H110     1.0000 0.80920  0.92910  0.15940  Biso   1.000  H
  H111     1.0000 0.69080  0.42910  0.34060  Biso   1.000  H
  H112     1.0000 0.19080  0.92910  0.34060  Biso   1.000  H
  H113     1.0000 0.70180  0.43930  0.82790  Biso   1.000  H
  H114     1.0000 0.20180  0.93930  0.82790  Biso   1.000  H
  H115     1.0000 0.29820  0.43930  0.67210  Biso   1.000  H
  H116     1.0000 0.79820  0.93930  0.67210  Biso   1.000  H
  H117     1.0000 0.29820  0.56070  0.17210  Biso   1.000  H
  H118     1.0000 0.79820  0.06070  0.17210  Biso   1.000  H
  H119     1.0000 0.70180  0.56070  0.32790  Biso   1.000  H
  H120     1.0000 0.20180  0.06070  0.32790  Biso   1.000  H
  C105     1.0000 0.61320  0.50550  0.72840  Biso   1.000  C
  C106     1.0000 0.11320  0.00550  0.72840  Biso   1.000  C
  C107     1.0000 0.38680  0.50550  0.77160  Biso   1.000  C
  C108     1.0000 0.88680  0.00550  0.77160  Biso   1.000  C
  C109     1.0000 0.38680  0.49450  0.27160  Biso   1.000  C
  C110     1.0000 0.88680  0.99450  0.27160  Biso   1.000  C
  C111     1.0000 0.61320  0.49450  0.22840  Biso   1.000  C
  C112     1.0000 0.11320  0.99450  0.22840  Biso   1.000  C
  Cl1      1.0000 0.77466  0.70274  0.74546  Biso   1.000  Cl
  Cl2      1.0000 0.27466  0.20274  0.74546  Biso   1.000  Cl
  Cl3      1.0000 0.22534  0.70274  0.75454  Biso   1.000  Cl
  Cl4      1.0000 0.72534  0.20274  0.75454  Biso   1.000  Cl
  Cl5      1.0000 0.22534  0.29726  0.25454  Biso   1.000  Cl
  Cl6      1.0000 0.72534  0.79726  0.25454  Biso   1.000  Cl
  Cl7      1.0000 0.77466  0.29726  0.24546  Biso   1.000  Cl
  Cl8      1.0000 0.27466  0.79726  0.24546  Biso   1.000  Cl
  O1       1.0000 0.74016  0.71240  0.65840  Biso   1.000  O
  O2       1.0000 0.24016  0.21240  0.65840  Biso   1.000  O
  O3       1.0000 0.25984  0.71240  0.84160  Biso   1.000  O
  O4       1.0000 0.75984  0.21240  0.84160  Biso   1.000  O
  O5       1.0000 0.25984  0.28760  0.34160  Biso   1.000  O
  O6       1.0000 0.75984  0.78760  0.34160  Biso   1.000  O
  O7       1.0000 0.74016  0.28760  0.15840  Biso   1.000  O
  O8       1.0000 0.24016  0.78760  0.15840  Biso   1.000  O
  O9       1.0000 0.80450  0.78820  0.80080  Biso   1.000  O
  O10      1.0000 0.30450  0.28820  0.80080  Biso   1.000  O
  O11      1.0000 0.19550  0.78820  0.69920  Biso   1.000  O
  O12      1.0000 0.69550  0.28820  0.69920  Biso   1.000  O
  O13      1.0000 0.19550  0.21180  0.19920  Biso   1.000  O
  O14      1.0000 0.69550  0.71180  0.19920  Biso   1.000  O
  O15      1.0000 0.80450  0.21180  0.30080  Biso   1.000  O
  O16      1.0000 0.30450  0.71180  0.30080  Biso   1.000  O
  O17      1.0000 0.80990  0.60640  0.78090  Biso   1.000  O
  O18      1.0000 0.30990  0.10640  0.78090  Biso   1.000  O
  O19      1.0000 0.19010  0.60640  0.71910  Biso   1.000  O
  O20      1.0000 0.69010  0.10640  0.71910  Biso   1.000  O
  O21      1.0000 0.19010  0.39360  0.21910  Biso   1.000  O
  O22      1.0000 0.69010  0.89360  0.21910  Biso   1.000  O
  O23      1.0000 0.80990  0.39360  0.28090  Biso   1.000  O
  O24      1.0000 0.30990  0.89360  0.28090  Biso   1.000  O
  O25      1.0000 0.70900  0.70730  0.74850  Biso   1.000  O
  O26      1.0000 0.20900  0.20730  0.74850  Biso   1.000  O
  O27      1.0000 0.29100  0.70730  0.75150  Biso   1.000  O
  O28      1.0000 0.79100  0.20730  0.75150  Biso   1.000  O
  O29      1.0000 0.29100  0.29270  0.25150  Biso   1.000  O
  O30      1.0000 0.79100  0.79270  0.25150  Biso   1.000  O
  O31      1.0000 0.70900  0.29270  0.24850  Biso   1.000  O
  O32      1.0000 0.20900  0.79270  0.24850  Biso   1.000  O
  O33      1.0000 0.50000  0.31560  0.75000  Biso   1.000  O
  O34      1.0000 0.00000  0.81560  0.75000  Biso   1.000  O
  O35      1.0000 0.50000  0.68440  0.25000  Biso   1.000  O
  O36      1.0000 0.00000  0.18440  0.25000  Biso   1.000  O
  O37      1.0000 0.55490  0.14100  0.21560  Biso   1.000  O
  O38      1.0000 0.05490  0.64100  0.21560  Biso   1.000  O
  O39      1.0000 0.44510  0.14100  0.28440  Biso   1.000  O
  O40      1.0000 0.94510  0.64100  0.28440  Biso   1.000  O
  O41      1.0000 0.44510  0.85900  0.78440  Biso   1.000  O
  O42      1.0000 0.94510  0.35900  0.78440  Biso   1.000  O
  O43      1.0000 0.55490  0.85900  0.71560  Biso   1.000  O
  O44      1.0000 0.05490  0.35900  0.71560  Biso   1.000  O
  O45      1.0000 0.84290  0.70600  0.74390  Biso   1.000  O
  O46      1.0000 0.34290  0.20600  0.74390  Biso   1.000  O
  O47      1.0000 0.15710  0.70600  0.75610  Biso   1.000  O
  O48      1.0000 0.65710  0.20600  0.75610  Biso   1.000  O
  O49      1.0000 0.15710  0.29400  0.25610  Biso   1.000  O
  O50      1.0000 0.65710  0.79400  0.25610  Biso   1.000  O
  O51      1.0000 0.84290  0.29400  0.24390  Biso   1.000  O
  O52      1.0000 0.34290  0.79400  0.24390  Biso   1.000  O
  O53      1.0000 0.76010  0.59120  0.75650  Biso   1.000  O
  O54      1.0000 0.26010  0.09120  0.75650  Biso   1.000  O
  O55      1.0000 0.23990  0.59120  0.74350  Biso   1.000  O
  O56      1.0000 0.73990  0.09120  0.74350  Biso   1.000  O
  O57      1.0000 0.23990  0.40880  0.24350  Biso   1.000  O
  O58      1.0000 0.73990  0.90880  0.24350  Biso   1.000  O
  O59      1.0000 0.76010  0.40880  0.25650  Biso   1.000  O
  O60      1.0000 0.26010  0.90880  0.25650  Biso   1.000  O
