data_image0
_cell_length_a       11.6947
_cell_length_b       13.691
_cell_length_c       14.6761
_cell_angle_alpha    89.021
_cell_angle_beta     74.88
_cell_angle_gamma    82.46

_symmetry_space_group_name_H-M    "P 1"
_symmetry_int_tables_number       1

loop_
  _symmetry_equiv_pos_as_xyz
  'x, y, z'

loop_
  _atom_site_label
  _atom_site_occupancy
  _atom_site_fract_x
  _atom_site_fract_y
  _atom_site_fract_z
  _atom_site_thermal_displace_type
  _atom_site_B_iso_or_equiv
  _atom_site_type_symbol
  Cu1      1.0000 0.23545  0.24694  0.76653  Biso   1.000  Cu
  Cu2      1.0000 0.76455  0.75306  0.23347  Biso   1.000  Cu
  O1       1.0000 0.05710  0.26988  0.88360  Biso   1.000  O
  O2       1.0000 0.94290  0.73012  0.11640  Biso   1.000  O
  H1       1.0000 0.00300  0.26500  0.85900  Biso   1.000  H
  H2       1.0000 0.99700  0.73500  0.14100  Biso   1.000  H
  H3       1.0000 0.04800  0.23300  0.92800  Biso   1.000  H
  H4       1.0000 0.95200  0.76700  0.07200  Biso   1.000  H
  O3       1.0000 0.43260  0.22288  0.64595  Biso   1.000  O
  O4       1.0000 0.56740  0.77712  0.35405  Biso   1.000  O
  H5       1.0000 0.44600  0.26270  0.60400  Biso   1.000  H
  H6       1.0000 0.55400  0.73730  0.39600  Biso   1.000  H
  H7       1.0000 0.48000  0.17410  0.63100  Biso   1.000  H
  H8       1.0000 0.52000  0.82590  0.36900  Biso   1.000  H
  N1       1.0000 0.22570  0.53433  0.85325  Biso   1.000  N
  N2       1.0000 0.77430  0.46567  0.14675  Biso   1.000  N
  N3       1.0000 0.29850  0.54101  0.76508  Biso   1.000  N
  N4       1.0000 0.70150  0.45899  0.23492  Biso   1.000  N
  N5       1.0000 0.25410  0.38724  0.79284  Biso   1.000  N
  N6       1.0000 0.74590  0.61276  0.20716  Biso   1.000  N
  N7       1.0000 0.60260  0.83781  0.01686  Biso   1.000  N
  N8       1.0000 0.39740  0.16219  0.98314  Biso   1.000  N
  N9       1.0000 0.53250  0.90169  0.08505  Biso   1.000  N
  N10      1.0000 0.46750  0.09831  0.91495  Biso   1.000  N
  N11      1.0000 0.67240  0.80818  0.13917  Biso   1.000  N
  N12      1.0000 0.32760  0.19182  0.86083  Biso   1.000  N
  N13      1.0000 0.24530  0.95975  0.67803  Biso   1.000  N
  N14      1.0000 0.75470  0.04025  0.32197  Biso   1.000  N
  N15      1.0000 0.16940  0.95447  0.76482  Biso   1.000  N
  N16      1.0000 0.83060  0.04553  0.23518  Biso   1.000  N
  N17      1.0000 0.21810  0.10679  0.73785  Biso   1.000  N
  N18      1.0000 0.78190  0.89321  0.26215  Biso   1.000  N
  N19      1.0000 0.89400  0.67101  0.46650  Biso   1.000  N
  N20      1.0000 0.10600  0.32899  0.53350  Biso   1.000  N
  N21      1.0000 0.96980  0.60575  0.40173  Biso   1.000  N
  N22      1.0000 0.03020  0.39425  0.59827  Biso   1.000  N
  N23      1.0000 0.84270  0.70000  0.33590  Biso   1.000  N
  N24      1.0000 0.15730  0.30000  0.66410  Biso   1.000  N
  C1       1.0000 0.28510  0.67730  0.91940  Biso   1.000  C
  C2       1.0000 0.71490  0.32270  0.08060  Biso   1.000  C
  C3       1.0000 0.28420  0.77440  0.89290  Biso   1.000  C
  C4       1.0000 0.71580  0.22560  0.10710  Biso   1.000  C
  H9       1.0000 0.21820  0.80680  0.87290  Biso   1.000  H
  H10      1.0000 0.78180  0.19320  0.12710  Biso   1.000  H
  C5       1.0000 0.37830  0.82570  0.89510  Biso   1.000  C
  C6       1.0000 0.62170  0.17430  0.10490  Biso   1.000  C
  H11      1.0000 0.37600  0.89260  0.87660  Biso   1.000  H
  H12      1.0000 0.62400  0.10740  0.12340  Biso   1.000  H
  C7       1.0000 0.47500  0.78040  0.92385  Biso   1.000  C
  C8       1.0000 0.52500  0.21960  0.07615  Biso   1.000  C
  C9       1.0000 0.47660  0.68220  0.95010  Biso   1.000  C
  C10      1.0000 0.52340  0.31780  0.04990  Biso   1.000  C
  H13      1.0000 0.54300  0.64990  0.96960  Biso   1.000  H
  H14      1.0000 0.45700  0.35010  0.03040  Biso   1.000  H
  C11      1.0000 0.38320  0.63130  0.94820  Biso   1.000  C
  C12      1.0000 0.61680  0.36870  0.05180  Biso   1.000  C
  H15      1.0000 0.38570  0.56440  0.96660  Biso   1.000  H
  H16      1.0000 0.61430  0.43560  0.03340  Biso   1.000  H
  C13      1.0000 0.18310  0.62210  0.91620  Biso   1.000  C
  C14      1.0000 0.81690  0.37790  0.08380  Biso   1.000  C
  H17      1.0000 0.14440  0.60140  0.98060  Biso   1.000  H
  H18      1.0000 0.85560  0.39860  0.01940  Biso   1.000  H
  H19      1.0000 0.12280  0.66600  0.89310  Biso   1.000  H
  H20      1.0000 0.87720  0.33400  0.10690  Biso   1.000  H
  C15      1.0000 0.57980  0.83520  0.92280  Biso   1.000  C
  C16      1.0000 0.42020  0.16480  0.07720  Biso   1.000  C
  H21      1.0000 0.65210  0.80260  0.87700  Biso   1.000  H
  H22      1.0000 0.34790  0.19740  0.12300  Biso   1.000  H
  H23      1.0000 0.56320  0.90350  0.90180  Biso   1.000  H
  H24      1.0000 0.43680  0.09650  0.09820  Biso   1.000  H
  C17      1.0000 0.31330  0.45100  0.73110  Biso   1.000  C
  C18      1.0000 0.68670  0.54900  0.26890  Biso   1.000  C
  H25      1.0000 0.36080  0.43190  0.66950  Biso   1.000  H
  H26      1.0000 0.63920  0.56810  0.33050  Biso   1.000  H
  C19      1.0000 0.19980  0.44330  0.86870  Biso   1.000  C
  C20      1.0000 0.80020  0.55670  0.13130  Biso   1.000  C
  H27      1.0000 0.15000  0.42140  0.92520  Biso   1.000  H
  H28      1.0000 0.85000  0.57860  0.07480  Biso   1.000  H
  C21      1.0000 0.57880  0.88090  0.15690  Biso   1.000  C
  C22      1.0000 0.42120  0.11910  0.84310  Biso   1.000  C
  H29      1.0000 0.54890  0.91420  0.21630  Biso   1.000  H
  H30      1.0000 0.45110  0.08580  0.78370  Biso   1.000  H
  C23      1.0000 0.68520  0.78330  0.04970  Biso   1.000  C
  C24      1.0000 0.31480  0.21670  0.95030  Biso   1.000  C
  H31      1.0000 0.74430  0.73400  0.01460  Biso   1.000  H
  H32      1.0000 0.25570  0.26600  0.98540  Biso   1.000  H
  C25      1.0000 0.19270  0.81950  0.60090  Biso   1.000  C
  C26      1.0000 0.80730  0.18050  0.39910  Biso   1.000  C
  C27      1.0000 0.17510  0.72800  0.63810  Biso   1.000  C
  C28      1.0000 0.82490  0.27200  0.36190  Biso   1.000  C
  H33      1.0000 0.22620  0.69720  0.67400  Biso   1.000  H
  H34      1.0000 0.77380  0.30280  0.32600  Biso   1.000  H
  C29      1.0000 0.08390  0.68030  0.62380  Biso   1.000  C
  C30      1.0000 0.91610  0.31970  0.37620  Biso   1.000  C
  H35      1.0000 0.07360  0.61680  0.64930  Biso   1.000  H
  H36      1.0000 0.92640  0.38320  0.35070  Biso   1.000  H
  C31      1.0000 0.00750  0.72390  0.57290  Biso   1.000  C
  C32      1.0000 0.99250  0.27610  0.42710  Biso   1.000  C
  C33      1.0000 0.02540  0.81610  0.53490  Biso   1.000  C
  C34      1.0000 0.97460  0.18390  0.46510  Biso   1.000  C
  H37      1.0000 0.97390  0.84710  0.49940  Biso   1.000  H
  H38      1.0000 0.02610  0.15290  0.50060  Biso   1.000  H
  C35      1.0000 0.11740  0.86290  0.54820  Biso   1.000  C
  C36      1.0000 0.88260  0.13710  0.45180  Biso   1.000  C
  H39      1.0000 0.12940  0.92550  0.52120  Biso   1.000  H
  H40      1.0000 0.87060  0.07450  0.47880  Biso   1.000  H
  C37      1.0000 0.29130  0.87090  0.61780  Biso   1.000  C
  C38      1.0000 0.70870  0.12910  0.38220  Biso   1.000  C
  H41      1.0000 0.34200  0.82480  0.64830  Biso   1.000  H
  H42      1.0000 0.65800  0.17520  0.35170  Biso   1.000  H
  H43      1.0000 0.34180  0.88950  0.55650  Biso   1.000  H
  H44      1.0000 0.65820  0.11050  0.44350  Biso   1.000  H
  C39      1.0000 0.90390  0.67420  0.56380  Biso   1.000  C
  C40      1.0000 0.09610  0.32580  0.43620  Biso   1.000  C
  H45      1.0000 0.91310  0.60600  0.58700  Biso   1.000  H
  H46      1.0000 0.08690  0.39400  0.41300  Biso   1.000  H
  H47      1.0000 0.82910  0.70970  0.60420  Biso   1.000  H
  H48      1.0000 0.17090  0.29030  0.39580  Biso   1.000  H
  C41      1.0000 0.15560  0.04480  0.79840  Biso   1.000  C
  C42      1.0000 0.84440  0.95520  0.20160  Biso   1.000  C
  H49      1.0000 0.10660  0.06480  0.85930  Biso   1.000  H
  H50      1.0000 0.89340  0.93520  0.14070  Biso   1.000  H
  C43      1.0000 0.27350  0.05000  0.66310  Biso   1.000  C
  C44      1.0000 0.72650  0.95000  0.33690  Biso   1.000  C
  H51      1.0000 0.32550  0.07100  0.60720  Biso   1.000  H
  H52      1.0000 0.67450  0.92900  0.39280  Biso   1.000  H
  C45      1.0000 0.93480  0.62670  0.32490  Biso   1.000  C
  C46      1.0000 0.06520  0.37330  0.67510  Biso   1.000  C
  H53      1.0000 0.97120  0.59310  0.26630  Biso   1.000  H
  H54      1.0000 0.02880  0.40690  0.73370  Biso   1.000  H
  C47      1.0000 0.81880  0.72600  0.42670  Biso   1.000  C
  C48      1.0000 0.18120  0.27400  0.57330  Biso   1.000  C
  H55      1.0000 0.75770  0.77600  0.45800  Biso   1.000  H
  H56      1.0000 0.24230  0.22400  0.54200  Biso   1.000  H
  Cl1      1.0000 0.84958  0.57742  0.85365  Biso   1.000  Cl
  Cl2      1.0000 0.15042  0.42258  0.14635  Biso   1.000  Cl
  O5       1.0000 0.74590  0.55850  0.92630  Biso   1.000  O
  O6       1.0000 0.25410  0.44150  0.07370  Biso   1.000  O
  O7       1.0000 0.84690  0.53120  0.76800  Biso   1.000  O
  O8       1.0000 0.15310  0.46880  0.23200  Biso   1.000  O
  O9       1.0000 0.83000  0.68060  0.83480  Biso   1.000  O
  O10      1.0000 0.17000  0.31940  0.16520  Biso   1.000  O
  O11      1.0000 0.95070  0.53370  0.87870  Biso   1.000  O
  O12      1.0000 0.04930  0.46630  0.12130  Biso   1.000  O
  Cl3      1.0000 0.38019  0.06641  0.38324  Biso   1.000  Cl
  Cl4      1.0000 0.61981  0.93359  0.61676  Biso   1.000  Cl
  O13      1.0000 0.41960  0.12270  0.44900  Biso   1.000  O
  O14      1.0000 0.58040  0.87730  0.55100  Biso   1.000  O
  O15      1.0000 0.25380  0.07170  0.42080  Biso   1.000  O
  O16      1.0000 0.74620  0.92830  0.57920  Biso   1.000  O
  O17      1.0000 0.42450  0.96700  0.39350  Biso   1.000  O
  O18      1.0000 0.57550  0.03300  0.60650  Biso   1.000  O
  O19      1.0000 0.42610  0.09020  0.29140  Biso   1.000  O
  O20      1.0000 0.57390  0.90980  0.70860  Biso   1.000  O
  O21      1.0000 0.95120  0.86410  0.97782  Biso   1.000  O
  O22      1.0000 0.04880  0.13590  0.02218  Biso   1.000  O
  N25      1.0000 0.87470  0.94040  0.86490  Biso   1.000  N
  N26      1.0000 0.12530  0.05960  0.13510  Biso   1.000  N
  C49      1.0000 0.94030  0.86900  0.89710  Biso   1.000  C
  C50      1.0000 0.05970  0.13100  0.10290  Biso   1.000  C
  H57      1.0000 0.98240  0.81730  0.85410  Biso   1.000  H
  H58      1.0000 0.01760  0.18270  0.14590  Biso   1.000  H
  C51      1.0000 0.87170  0.94250  0.76670  Biso   1.000  C
  C52      1.0000 0.12830  0.05750  0.23330  Biso   1.000  C
  H59      1.0000 0.91780  0.88230  0.73420  Biso   1.000  H
  H60      1.0000 0.08220  0.11770  0.26580  Biso   1.000  H
  H61      1.0000 0.90650  0.00010  0.73660  Biso   1.000  H
  H62      1.0000 0.09350  0.99990  0.26340  Biso   1.000  H
  H63      1.0000 0.78870  0.94650  0.76310  Biso   1.000  H
  H64      1.0000 0.21130  0.05350  0.23690  Biso   1.000  H
  C53      1.0000 0.81070  0.02220  0.92600  Biso   1.000  C
  C54      1.0000 0.18930  0.97780  0.07400  Biso   1.000  C
  H65      1.0000 0.81980  0.01060  0.99000  Biso   1.000  H
  H66      1.0000 0.18020  0.98940  0.01000  Biso   1.000  H
  H67      1.0000 0.72580  0.02860  0.92740  Biso   1.000  H
  H68      1.0000 0.27420  0.97140  0.07260  Biso   1.000  H
  H69      1.0000 0.84290  0.08300  0.90220  Biso   1.000  H
  H70      1.0000 0.15710  0.91700  0.09780  Biso   1.000  H
  O23      1.0000 0.44980  0.37130  0.52154  Biso   1.000  O
  O24      1.0000 0.55020  0.62870  0.47846  Biso   1.000  O
  N27      1.0000 0.39440  0.41370  0.38780  Biso   1.000  N
  N28      1.0000 0.60560  0.58630  0.61220  Biso   1.000  N
  C55      1.0000 0.45440  0.35770  0.43830  Biso   1.000  C
  C56      1.0000 0.54560  0.64230  0.56170  Biso   1.000  C
  H71      1.0000 0.50570  0.30170  0.40730  Biso   1.000  H
  H72      1.0000 0.49430  0.69830  0.59270  Biso   1.000  H
  C57      1.0000 0.31660  0.50090  0.42990  Biso   1.000  C
  C58      1.0000 0.68340  0.49910  0.57010  Biso   1.000  C
  H73      1.0000 0.31490  0.50540  0.49680  Biso   1.000  H
  H74      1.0000 0.68510  0.49460  0.50320  Biso   1.000  H
  H75      1.0000 0.23570  0.49720  0.42390  Biso   1.000  H
  H76      1.0000 0.76430  0.50280  0.57610  Biso   1.000  H
  H77      1.0000 0.34630  0.55930  0.39740  Biso   1.000  H
  H78      1.0000 0.65370  0.44070  0.60260  Biso   1.000  H
  C59      1.0000 0.41090  0.38990  0.28850  Biso   1.000  C
  C60      1.0000 0.58910  0.61010  0.71150  Biso   1.000  C
  H79      1.0000 0.46650  0.32900  0.27150  Biso   1.000  H
  H80      1.0000 0.53350  0.67100  0.72850  Biso   1.000  H
  H81      1.0000 0.44360  0.44380  0.24980  Biso   1.000  H
  H82      1.0000 0.55640  0.55620  0.75020  Biso   1.000  H
  H83      1.0000 0.33380  0.38090  0.27750  Biso   1.000  H
  H84      1.0000 0.66620  0.61910  0.72250  Biso   1.000  H
  O25      1.0000 0.88770  0.23810  0.79710  Biso   1.000  O
  O26      1.0000 0.11230  0.76190  0.20290  Biso   1.000  O
  N29      1.0000 0.70760  0.28060  0.76790  Biso   1.000  N
  N30      1.0000 0.29240  0.71940  0.23210  Biso   1.000  N
  C61      1.0000 0.79080  0.29010  0.81180  Biso   1.000  C
  C62      1.0000 0.20920  0.70990  0.18820  Biso   1.000  C
  H85      1.0000 0.77430  0.34110  0.85830  Biso   1.000  H
  H86      1.0000 0.22570  0.65890  0.14170  Biso   1.000  H
  C63      1.0000 0.59280  0.34100  0.79340  Biso   1.000  C
  C64      1.0000 0.40720  0.65900  0.20660  Biso   1.000  C
  H87      1.0000 0.59150  0.38840  0.84310  Biso   1.000  H
  H88      1.0000 0.40850  0.61160  0.15690  Biso   1.000  H
  H89      1.0000 0.52990  0.29910  0.81660  Biso   1.000  H
  H90      1.0000 0.47010  0.70090  0.18340  Biso   1.000  H
  H91      1.0000 0.57910  0.37660  0.73800  Biso   1.000  H
  H92      1.0000 0.42090  0.62340  0.26200  Biso   1.000  H
  C65      1.0000 0.72750  0.20710  0.69500  Biso   1.000  C
  C66      1.0000 0.27250  0.79290  0.30500  Biso   1.000  C
  H93      1.0000 0.80810  0.17130  0.68510  Biso   1.000  H
  H94      1.0000 0.19190  0.82870  0.31490  Biso   1.000  H
  H95      1.0000 0.71940  0.23900  0.63630  Biso   1.000  H
  H96      1.0000 0.28060  0.76100  0.36370  Biso   1.000  H
  H97      1.0000 0.66850  0.16090  0.71380  Biso   1.000  H
  H98      1.0000 0.33150  0.83910  0.28620  Biso   1.000  H
  O27      1.0000 0.90230  0.63530  0.92650  Biso   1.000  O
  O28      1.0000 0.09770  0.36470  0.07350  Biso   1.000  O
  O29      1.0000 0.33780  0.16190  0.32920  Biso   1.000  O
  O30      1.0000 0.66220  0.83810  0.67080  Biso   1.000  O
