data_image0
_cell_length_a       11.025
_cell_length_b       8.744
_cell_length_c       9.655
_cell_angle_alpha    90
_cell_angle_beta     110.224
_cell_angle_gamma    90

_symmetry_space_group_name_H-M    "P 1"
_symmetry_int_tables_number       1

loop_
  _symmetry_equiv_pos_as_xyz
  'x, y, z'

loop_
  _atom_site_label
  _atom_site_occupancy
  _atom_site_fract_x
  _atom_site_fract_y
  _atom_site_fract_z
  _atom_site_thermal_displace_type
  _atom_site_B_iso_or_equiv
  _atom_site_type_symbol
  Cu1      1.0000 0.50000  0.00000  0.50000  Biso   1.000  Cu
  Cu2      1.0000 0.50000  0.50000  0.00000  Biso   1.000  Cu
  O1       1.0000 0.55181  0.06820  0.32987  Biso   1.000  O
  O2       1.0000 0.44819  0.56820  0.17013  Biso   1.000  O
  O3       1.0000 0.44819  0.93180  0.67013  Biso   1.000  O
  O4       1.0000 0.55181  0.43180  0.82987  Biso   1.000  O
  H1       1.0000 0.56400  0.99900  0.28200  Biso   1.000  H
  H2       1.0000 0.43600  0.49900  0.21800  Biso   1.000  H
  H3       1.0000 0.43600  0.00100  0.71800  Biso   1.000  H
  H4       1.0000 0.56400  0.50100  0.78200  Biso   1.000  H
  H5       1.0000 0.50500  0.13100  0.27900  Biso   1.000  H
  H6       1.0000 0.49500  0.63100  0.22100  Biso   1.000  H
  H7       1.0000 0.49500  0.86900  0.72100  Biso   1.000  H
  H8       1.0000 0.50500  0.36900  0.77900  Biso   1.000  H
  N1       1.0000 0.84930  0.19940  0.72120  Biso   1.000  N
  N2       1.0000 0.15070  0.69940  0.77880  Biso   1.000  N
  N3       1.0000 0.15070  0.80060  0.27880  Biso   1.000  N
  N4       1.0000 0.84930  0.30060  0.22120  Biso   1.000  N
  N5       1.0000 0.85770  0.09060  0.82570  Biso   1.000  N
  N6       1.0000 0.14230  0.59060  0.67430  Biso   1.000  N
  N7       1.0000 0.14230  0.90940  0.17430  Biso   1.000  N
  N8       1.0000 0.85770  0.40940  0.32570  Biso   1.000  N
  N9       1.0000 0.67232  0.06880  0.63330  Biso   1.000  N
  N10      1.0000 0.32768  0.56880  0.86670  Biso   1.000  N
  N11      1.0000 0.32768  0.93120  0.36670  Biso   1.000  N
  N12      1.0000 0.67232  0.43120  0.13330  Biso   1.000  N
  C1       1.0000 0.74890  0.01480  0.76710  Biso   1.000  C
  C2       1.0000 0.25110  0.51480  0.73290  Biso   1.000  C
  C3       1.0000 0.25110  0.98520  0.23290  Biso   1.000  C
  C4       1.0000 0.74890  0.48520  0.26710  Biso   1.000  C
  H9       1.0000 0.72580  0.92980  0.81410  Biso   1.000  H
  H10      1.0000 0.27420  0.42980  0.68590  Biso   1.000  H
  H11      1.0000 0.27420  0.07020  0.18590  Biso   1.000  H
  H12      1.0000 0.72580  0.57020  0.31410  Biso   1.000  H
  C5       1.0000 0.74010  0.18530  0.60830  Biso   1.000  C
  C6       1.0000 0.25990  0.68530  0.89170  Biso   1.000  C
  C7       1.0000 0.25990  0.81470  0.39170  Biso   1.000  C
  C8       1.0000 0.74010  0.31470  0.10830  Biso   1.000  C
  H13      1.0000 0.71390  0.24820  0.52280  Biso   1.000  H
  H14      1.0000 0.28610  0.74820  0.97720  Biso   1.000  H
  H15      1.0000 0.28610  0.75180  0.47720  Biso   1.000  H
  H16      1.0000 0.71390  0.25180  0.02280  Biso   1.000  H
  C9       1.0000 0.95500  0.30850  0.74090  Biso   1.000  C
  C10      1.0000 0.04500  0.80850  0.75910  Biso   1.000  C
  C11      1.0000 0.04500  0.69150  0.25910  Biso   1.000  C
  C12      1.0000 0.95500  0.19150  0.24090  Biso   1.000  C
  H17      1.0000 0.93400  0.37480  0.65260  Biso   1.000  H
  H18      1.0000 0.06600  0.87480  0.84740  Biso   1.000  H
  H19      1.0000 0.06600  0.62520  0.34740  Biso   1.000  H
  H20      1.0000 0.93400  0.12520  0.15260  Biso   1.000  H
  H21      1.0000 0.03520  0.25180  0.75020  Biso   1.000  H
  H22      1.0000 0.96480  0.75180  0.74980  Biso   1.000  H
  H23      1.0000 0.96480  0.74820  0.24980  Biso   1.000  H
  H24      1.0000 0.03520  0.24820  0.25020  Biso   1.000  H
  C13      1.0000 0.97790  0.40700  0.87610  Biso   1.000  C
  C14      1.0000 0.02210  0.90700  0.62390  Biso   1.000  C
  C15      1.0000 0.02210  0.59300  0.12390  Biso   1.000  C
  C16      1.0000 0.97790  0.09300  0.37610  Biso   1.000  C
  C17      1.0000 0.88240  0.50470  0.88590  Biso   1.000  C
  C18      1.0000 0.11760  0.00470  0.61410  Biso   1.000  C
  C19      1.0000 0.11760  0.49530  0.11410  Biso   1.000  C
  C20      1.0000 0.88240  0.99530  0.38590  Biso   1.000  C
  H25      1.0000 0.80110  0.50790  0.80810  Biso   1.000  H
  H26      1.0000 0.19890  0.00790  0.69190  Biso   1.000  H
  H27      1.0000 0.19890  0.49210  0.19190  Biso   1.000  H
  H28      1.0000 0.80110  0.99210  0.30810  Biso   1.000  H
  C21      1.0000 0.09570  0.40230  0.99190  Biso   1.000  C
  C22      1.0000 0.90430  0.90230  0.50810  Biso   1.000  C
  C23      1.0000 0.90430  0.59770  0.00810  Biso   1.000  C
  C24      1.0000 0.09570  0.09770  0.49190  Biso   1.000  C
  H29      1.0000 0.16160  0.33480  0.98700  Biso   1.000  H
  H30      1.0000 0.83840  0.83480  0.51300  Biso   1.000  H
  H31      1.0000 0.83840  0.66520  0.01300  Biso   1.000  H
  H32      1.0000 0.16160  0.16520  0.48700  Biso   1.000  H
  O5       1.0000 0.41899  0.25090  0.53995  Biso   1.000  O
  O6       1.0000 0.58101  0.75090  0.96005  Biso   1.000  O
  O7       1.0000 0.58101  0.74910  0.46005  Biso   1.000  O
  O8       1.0000 0.41899  0.24910  0.03995  Biso   1.000  O
  O9       1.0000 0.35230  0.47890  0.46580  Biso   1.000  O
  O10      1.0000 0.64770  0.97890  0.03420  Biso   1.000  O
  O11      1.0000 0.64770  0.52110  0.53420  Biso   1.000  O
  O12      1.0000 0.35230  0.02110  0.96580  Biso   1.000  O
  O13      1.0000 0.40520  0.32550  0.32181  Biso   1.000  O
  O14      1.0000 0.59480  0.82550  0.17819  Biso   1.000  O
  O15      1.0000 0.59480  0.67450  0.67819  Biso   1.000  O
  O16      1.0000 0.40520  0.17450  0.82181  Biso   1.000  O
  N13      1.0000 0.39164  0.35250  0.44320  Biso   1.000  N
  N14      1.0000 0.60836  0.85250  0.05680  Biso   1.000  N
  N15      1.0000 0.60836  0.64750  0.55680  Biso   1.000  N
  N16      1.0000 0.39164  0.14750  0.94320  Biso   1.000  N
