data_image0
_cell_length_a       8.934
_cell_length_b       9.067
_cell_length_c       14.698
_cell_angle_alpha    90
_cell_angle_beta     90
_cell_angle_gamma    90

_symmetry_space_group_name_H-M    "P 1"
_symmetry_int_tables_number       1

loop_
  _symmetry_equiv_pos_as_xyz
  'x, y, z'

loop_
  _atom_site_label
  _atom_site_occupancy
  _atom_site_fract_x
  _atom_site_fract_y
  _atom_site_fract_z
  _atom_site_thermal_displace_type
  _atom_site_B_iso_or_equiv
  _atom_site_type_symbol
  C1       1.0000 0.25970  0.24270  0.48050  Biso   1.000  C
  C2       1.0000 0.24030  0.75730  0.98050  Biso   1.000  C
  C3       1.0000 0.74030  0.74270  0.01950  Biso   1.000  C
  C4       1.0000 0.75970  0.25730  0.51950  Biso   1.000  C
  C5       1.0000 0.74030  0.75730  0.51950  Biso   1.000  C
  C6       1.0000 0.75970  0.24270  0.01950  Biso   1.000  C
  C7       1.0000 0.25970  0.25730  0.98050  Biso   1.000  C
  C8       1.0000 0.24030  0.74270  0.48050  Biso   1.000  C
  H1       1.0000 0.23930  0.16880  0.43850  Biso   1.000  H
  H2       1.0000 0.26070  0.83120  0.93850  Biso   1.000  H
  H3       1.0000 0.76070  0.66880  0.06150  Biso   1.000  H
  H4       1.0000 0.73930  0.33120  0.56150  Biso   1.000  H
  H5       1.0000 0.76070  0.83120  0.56150  Biso   1.000  H
  H6       1.0000 0.73930  0.16880  0.06150  Biso   1.000  H
  H7       1.0000 0.23930  0.33120  0.93850  Biso   1.000  H
  H8       1.0000 0.26070  0.66880  0.43850  Biso   1.000  H
  Cu1      1.0000 0.46844  0.63010  0.61717  Biso   1.000  Cu
  Cu2      1.0000 0.03156  0.36990  0.11717  Biso   1.000  Cu
  Cu3      1.0000 0.53156  0.13010  0.88283  Biso   1.000  Cu
  Cu4      1.0000 0.96844  0.86990  0.38283  Biso   1.000  Cu
  Cu5      1.0000 0.53156  0.36990  0.38283  Biso   1.000  Cu
  Cu6      1.0000 0.96844  0.63010  0.88283  Biso   1.000  Cu
  Cu7      1.0000 0.46844  0.86990  0.11717  Biso   1.000  Cu
  Cu8      1.0000 0.03156  0.13010  0.61717  Biso   1.000  Cu
  N1       1.0000 0.29930  0.57360  0.70020  Biso   1.000  N
  N2       1.0000 0.20070  0.42640  0.20020  Biso   1.000  N
  N3       1.0000 0.70070  0.07360  0.79980  Biso   1.000  N
  N4       1.0000 0.79930  0.92640  0.29980  Biso   1.000  N
  N5       1.0000 0.70070  0.42640  0.29980  Biso   1.000  N
  N6       1.0000 0.79930  0.57360  0.79980  Biso   1.000  N
  N7       1.0000 0.29930  0.92640  0.20020  Biso   1.000  N
  N8       1.0000 0.20070  0.07360  0.70020  Biso   1.000  N
  N9       1.0000 0.23920  0.63230  0.77510  Biso   1.000  N
  N10      1.0000 0.26080  0.36770  0.27510  Biso   1.000  N
  N11      1.0000 0.76080  0.13230  0.72490  Biso   1.000  N
  N12      1.0000 0.73920  0.86770  0.22490  Biso   1.000  N
  N13      1.0000 0.76080  0.36770  0.22490  Biso   1.000  N
  N14      1.0000 0.73920  0.63230  0.72490  Biso   1.000  N
  N15      1.0000 0.23920  0.86770  0.27510  Biso   1.000  N
  N16      1.0000 0.26080  0.13230  0.77510  Biso   1.000  N
  N17      1.0000 0.11370  0.55780  0.79240  Biso   1.000  N
  N18      1.0000 0.38630  0.44220  0.29240  Biso   1.000  N
  N19      1.0000 0.88630  0.05780  0.70760  Biso   1.000  N
  N20      1.0000 0.61370  0.94220  0.20760  Biso   1.000  N
  N21      1.0000 0.88630  0.44220  0.20760  Biso   1.000  N
  N22      1.0000 0.61370  0.55780  0.70760  Biso   1.000  N
  N23      1.0000 0.11370  0.94220  0.29240  Biso   1.000  N
  N24      1.0000 0.38630  0.05780  0.79240  Biso   1.000  N
  N25      1.0000 0.17810  0.26800  0.55520  Biso   1.000  N
  N26      1.0000 0.32190  0.73200  0.05520  Biso   1.000  N
  N27      1.0000 0.82190  0.76800  0.94480  Biso   1.000  N
  N28      1.0000 0.67810  0.23200  0.44480  Biso   1.000  N
  N29      1.0000 0.82190  0.73200  0.44480  Biso   1.000  N
  N30      1.0000 0.67810  0.26800  0.94480  Biso   1.000  N
  N31      1.0000 0.17810  0.23200  0.05520  Biso   1.000  N
  N32      1.0000 0.32190  0.76800  0.55520  Biso   1.000  N
  C9       1.0000 0.24690  0.38380  0.59370  Biso   1.000  C
  C10      1.0000 0.25310  0.61620  0.09370  Biso   1.000  C
  C11      1.0000 0.75310  0.88380  0.90630  Biso   1.000  C
  C12      1.0000 0.74690  0.11620  0.40630  Biso   1.000  C
  C13      1.0000 0.75310  0.61620  0.40630  Biso   1.000  C
  C14      1.0000 0.74690  0.38380  0.90630  Biso   1.000  C
  C15      1.0000 0.24690  0.11620  0.09370  Biso   1.000  C
  C16      1.0000 0.25310  0.88380  0.59370  Biso   1.000  C
  N33      1.0000 0.37150  0.33460  0.47390  Biso   1.000  N
  N34      1.0000 0.12850  0.66540  0.97390  Biso   1.000  N
  N35      1.0000 0.62850  0.83460  0.02610  Biso   1.000  N
  N36      1.0000 0.87150  0.16540  0.52610  Biso   1.000  N
  N37      1.0000 0.62850  0.66540  0.52610  Biso   1.000  N
  N38      1.0000 0.87150  0.33460  0.02610  Biso   1.000  N
  N39      1.0000 0.37150  0.16540  0.97390  Biso   1.000  N
  N40      1.0000 0.12850  0.83460  0.47390  Biso   1.000  N
  N41      1.0000 0.36560  0.42550  0.54680  Biso   1.000  N
  N42      1.0000 0.13440  0.57450  0.04680  Biso   1.000  N
  N43      1.0000 0.63440  0.92550  0.95320  Biso   1.000  N
  N44      1.0000 0.86560  0.07450  0.45320  Biso   1.000  N
  N45      1.0000 0.63440  0.57450  0.45320  Biso   1.000  N
  N46      1.0000 0.86560  0.42550  0.95320  Biso   1.000  N
  N47      1.0000 0.36560  0.07450  0.04680  Biso   1.000  N
  N48      1.0000 0.13440  0.92550  0.54680  Biso   1.000  N
  N49      1.0000 0.09250  0.44890  0.72960  Biso   1.000  N
  N50      1.0000 0.40750  0.55110  0.22960  Biso   1.000  N
  N51      1.0000 0.90750  0.94890  0.77040  Biso   1.000  N
  N52      1.0000 0.59250  0.05110  0.27040  Biso   1.000  N
  N53      1.0000 0.90750  0.55110  0.27040  Biso   1.000  N
  N54      1.0000 0.59250  0.44890  0.77040  Biso   1.000  N
  N55      1.0000 0.09250  0.05110  0.22960  Biso   1.000  N
  N56      1.0000 0.40750  0.94890  0.72960  Biso   1.000  N
  C17      1.0000 0.20920  0.46450  0.67540  Biso   1.000  C
  C18      1.0000 0.29080  0.53550  0.17540  Biso   1.000  C
  C19      1.0000 0.79080  0.96450  0.82460  Biso   1.000  C
  C20      1.0000 0.70920  0.03550  0.32460  Biso   1.000  C
  C21      1.0000 0.79080  0.53550  0.32460  Biso   1.000  C
  C22      1.0000 0.70920  0.46450  0.82460  Biso   1.000  C
  C23      1.0000 0.20920  0.03550  0.17540  Biso   1.000  C
  C24      1.0000 0.29080  0.96450  0.67540  Biso   1.000  C
