data_image0
_cell_length_a       7.8307
_cell_length_b       12.39
_cell_length_c       15.4824
_cell_angle_alpha    90
_cell_angle_beta     90
_cell_angle_gamma    90

_symmetry_space_group_name_H-M    "P 1"
_symmetry_int_tables_number       1

loop_
  _symmetry_equiv_pos_as_xyz
  'x, y, z'

loop_
  _atom_site_label
  _atom_site_occupancy
  _atom_site_fract_x
  _atom_site_fract_y
  _atom_site_fract_z
  _atom_site_thermal_displace_type
  _atom_site_B_iso_or_equiv
  _atom_site_type_symbol
  Cu1      1.0000 0.00000  0.00000  0.50000  Biso   1.000  Cu
  Cu2      1.0000 0.50000  0.00000  0.00000  Biso   1.000  Cu
  Cu3      1.0000 0.00000  0.50000  0.00000  Biso   1.000  Cu
  Cu4      1.0000 0.50000  0.50000  0.50000  Biso   1.000  Cu
  O1       1.0000 0.60650  0.16935  0.52058  Biso   1.000  O
  O2       1.0000 0.89350  0.83065  0.02058  Biso   1.000  O
  O3       1.0000 0.39350  0.66935  0.97942  Biso   1.000  O
  O4       1.0000 0.10650  0.33065  0.47942  Biso   1.000  O
  O5       1.0000 0.39350  0.83065  0.47942  Biso   1.000  O
  O6       1.0000 0.10650  0.16935  0.97942  Biso   1.000  O
  O7       1.0000 0.60650  0.33065  0.02058  Biso   1.000  O
  O8       1.0000 0.89350  0.66935  0.52058  Biso   1.000  O
  O9       1.0000 0.76840  0.92986  0.48411  Biso   1.000  O
  O10      1.0000 0.73160  0.07014  0.98411  Biso   1.000  O
  O11      1.0000 0.23160  0.42986  0.01589  Biso   1.000  O
  O12      1.0000 0.26840  0.57014  0.51589  Biso   1.000  O
  O13      1.0000 0.23160  0.07014  0.51589  Biso   1.000  O
  O14      1.0000 0.26840  0.92986  0.01589  Biso   1.000  O
  O15      1.0000 0.76840  0.57014  0.98411  Biso   1.000  O
  O16      1.0000 0.73160  0.42986  0.48411  Biso   1.000  O
  N1       1.0000 0.06770  0.94512  0.38282  Biso   1.000  N
  N2       1.0000 0.43230  0.05488  0.88282  Biso   1.000  N
  N3       1.0000 0.93230  0.44512  0.11718  Biso   1.000  N
  N4       1.0000 0.56770  0.55488  0.61718  Biso   1.000  N
  N5       1.0000 0.93230  0.05488  0.61718  Biso   1.000  N
  N6       1.0000 0.56770  0.94512  0.11718  Biso   1.000  N
  N7       1.0000 0.06770  0.55488  0.88282  Biso   1.000  N
  N8       1.0000 0.43230  0.44512  0.38282  Biso   1.000  N
  C1       1.0000 0.54810  0.07700  0.50965  Biso   1.000  C
  C2       1.0000 0.95190  0.92300  0.00965  Biso   1.000  C
  C3       1.0000 0.45190  0.57700  0.99035  Biso   1.000  C
  C4       1.0000 0.04810  0.42300  0.49035  Biso   1.000  C
  C5       1.0000 0.45190  0.92300  0.49035  Biso   1.000  C
  C6       1.0000 0.04810  0.07700  0.99035  Biso   1.000  C
  C7       1.0000 0.54810  0.42300  0.00965  Biso   1.000  C
  C8       1.0000 0.95190  0.57700  0.50965  Biso   1.000  C
  C9       1.0000 0.07990  0.80400  0.27860  Biso   1.000  C
  C10      1.0000 0.42010  0.19600  0.77860  Biso   1.000  C
  C11      1.0000 0.92010  0.30400  0.22140  Biso   1.000  C
  C12      1.0000 0.57990  0.69600  0.72140  Biso   1.000  C
  C13      1.0000 0.92010  0.19600  0.72140  Biso   1.000  C
  C14      1.0000 0.57990  0.80400  0.22140  Biso   1.000  C
  C15      1.0000 0.07990  0.69600  0.77860  Biso   1.000  C
  C16      1.0000 0.42010  0.30400  0.27860  Biso   1.000  C
  H1       1.0000 0.05960  0.73220  0.26450  Biso   1.000  H
  H2       1.0000 0.44040  0.26780  0.76450  Biso   1.000  H
  H3       1.0000 0.94040  0.23220  0.23550  Biso   1.000  H
  H4       1.0000 0.55960  0.76780  0.73550  Biso   1.000  H
  H5       1.0000 0.94040  0.26780  0.73550  Biso   1.000  H
  H6       1.0000 0.55960  0.73220  0.23550  Biso   1.000  H
  H7       1.0000 0.05960  0.76780  0.76450  Biso   1.000  H
  H8       1.0000 0.44040  0.23220  0.26450  Biso   1.000  H
  C17      1.0000 0.62220  0.96980  0.49304  Biso   1.000  C
  C18      1.0000 0.87780  0.03020  0.99304  Biso   1.000  C
  C19      1.0000 0.37780  0.46980  0.00696  Biso   1.000  C
  C20      1.0000 0.12220  0.53020  0.50696  Biso   1.000  C
  C21      1.0000 0.37780  0.03020  0.50696  Biso   1.000  C
  C22      1.0000 0.12220  0.96980  0.00696  Biso   1.000  C
  C23      1.0000 0.62220  0.53020  0.99304  Biso   1.000  C
  C24      1.0000 0.87780  0.46980  0.49304  Biso   1.000  C
  C25      1.0000 0.04160  0.84240  0.36020  Biso   1.000  C
  C26      1.0000 0.45840  0.15760  0.86020  Biso   1.000  C
  C27      1.0000 0.95840  0.34240  0.13980  Biso   1.000  C
  C28      1.0000 0.54160  0.65760  0.63980  Biso   1.000  C
  C29      1.0000 0.95840  0.15760  0.63980  Biso   1.000  C
  C30      1.0000 0.54160  0.84240  0.13980  Biso   1.000  C
  C31      1.0000 0.04160  0.65760  0.86020  Biso   1.000  C
  C32      1.0000 0.45840  0.34240  0.36020  Biso   1.000  C
  H9       1.0000 0.99610  0.79510  0.40070  Biso   1.000  H
  H10      1.0000 0.50390  0.20490  0.90070  Biso   1.000  H
  H11      1.0000 0.00390  0.29510  0.09930  Biso   1.000  H
  H12      1.0000 0.49610  0.70490  0.59930  Biso   1.000  H
  H13      1.0000 0.00390  0.20490  0.59930  Biso   1.000  H
  H14      1.0000 0.49610  0.79510  0.09930  Biso   1.000  H
  H15      1.0000 0.99610  0.70490  0.90070  Biso   1.000  H
  H16      1.0000 0.50390  0.29510  0.40070  Biso   1.000  H
  C33      1.0000 0.13720  0.01200  0.32420  Biso   1.000  C
  C34      1.0000 0.36280  0.98800  0.82420  Biso   1.000  C
  C35      1.0000 0.86280  0.51200  0.17580  Biso   1.000  C
  C36      1.0000 0.63720  0.48800  0.67580  Biso   1.000  C
  C37      1.0000 0.86280  0.98800  0.67580  Biso   1.000  C
  C38      1.0000 0.63720  0.01200  0.17580  Biso   1.000  C
  C39      1.0000 0.13720  0.48800  0.82420  Biso   1.000  C
  C40      1.0000 0.36280  0.51200  0.32420  Biso   1.000  C
  H17      1.0000 0.15770  0.08340  0.33960  Biso   1.000  H
  H18      1.0000 0.34230  0.91660  0.83960  Biso   1.000  H
  H19      1.0000 0.84230  0.58340  0.16040  Biso   1.000  H
  H20      1.0000 0.65770  0.41660  0.66040  Biso   1.000  H
  H21      1.0000 0.84230  0.91660  0.66040  Biso   1.000  H
  H22      1.0000 0.65770  0.08340  0.16040  Biso   1.000  H
  H23      1.0000 0.15770  0.41660  0.83960  Biso   1.000  H
  H24      1.0000 0.34230  0.58340  0.33960  Biso   1.000  H
  C41      1.0000 0.17910  0.97850  0.24190  Biso   1.000  C
  C42      1.0000 0.32090  0.02150  0.74190  Biso   1.000  C
  C43      1.0000 0.82090  0.47850  0.25810  Biso   1.000  C
  C44      1.0000 0.67910  0.52150  0.75810  Biso   1.000  C
  C45      1.0000 0.82090  0.02150  0.75810  Biso   1.000  C
  C46      1.0000 0.67910  0.97850  0.25810  Biso   1.000  C
  C47      1.0000 0.17910  0.52150  0.74190  Biso   1.000  C
  C48      1.0000 0.32090  0.47850  0.24190  Biso   1.000  C
  H25      1.0000 0.22740  0.02650  0.20270  Biso   1.000  H
  H26      1.0000 0.27260  0.97350  0.70270  Biso   1.000  H
  H27      1.0000 0.77260  0.52650  0.29730  Biso   1.000  H
  H28      1.0000 0.72740  0.47350  0.79730  Biso   1.000  H
  H29      1.0000 0.77260  0.97350  0.79730  Biso   1.000  H
  H30      1.0000 0.72740  0.02650  0.29730  Biso   1.000  H
  H31      1.0000 0.22740  0.47350  0.70270  Biso   1.000  H
  H32      1.0000 0.27260  0.52650  0.20270  Biso   1.000  H
  C49      1.0000 0.14870  0.87350  0.21860  Biso   1.000  C
  C50      1.0000 0.35130  0.12650  0.71860  Biso   1.000  C
  C51      1.0000 0.85130  0.37350  0.28140  Biso   1.000  C
  C52      1.0000 0.64870  0.62650  0.78140  Biso   1.000  C
  C53      1.0000 0.85130  0.12650  0.78140  Biso   1.000  C
  C54      1.0000 0.64870  0.87350  0.28140  Biso   1.000  C
  C55      1.0000 0.14870  0.62650  0.71860  Biso   1.000  C
  C56      1.0000 0.35130  0.37350  0.21860  Biso   1.000  C
  H33      1.0000 0.17400  0.84960  0.16310  Biso   1.000  H
  H34      1.0000 0.32600  0.15040  0.66310  Biso   1.000  H
  H35      1.0000 0.82600  0.34960  0.33690  Biso   1.000  H
  H36      1.0000 0.67400  0.65040  0.83690  Biso   1.000  H
  H37      1.0000 0.82600  0.15040  0.83690  Biso   1.000  H
  H38      1.0000 0.67400  0.84960  0.33690  Biso   1.000  H
  H39      1.0000 0.17400  0.65040  0.66310  Biso   1.000  H
  H40      1.0000 0.32600  0.34960  0.16310  Biso   1.000  H
  O17      1.0000 0.90540  0.16047  0.43017  Biso   1.000  O
  O18      1.0000 0.59460  0.83953  0.93017  Biso   1.000  O
  O19      1.0000 0.09460  0.66047  0.06983  Biso   1.000  O
  O20      1.0000 0.40540  0.33953  0.56983  Biso   1.000  O
  O21      1.0000 0.09460  0.83953  0.56983  Biso   1.000  O
  O22      1.0000 0.40540  0.16047  0.06983  Biso   1.000  O
  O23      1.0000 0.90540  0.33953  0.93017  Biso   1.000  O
  O24      1.0000 0.59460  0.66047  0.43017  Biso   1.000  O
  H41      1.0000 0.96400  0.21400  0.44000  Biso   1.000  H
  H42      1.0000 0.53600  0.78600  0.94000  Biso   1.000  H
  H43      1.0000 0.03600  0.71400  0.06000  Biso   1.000  H
  H44      1.0000 0.46400  0.28600  0.56000  Biso   1.000  H
  H45      1.0000 0.03600  0.78600  0.56000  Biso   1.000  H
  H46      1.0000 0.46400  0.21400  0.06000  Biso   1.000  H
  H47      1.0000 0.96400  0.28600  0.94000  Biso   1.000  H
  H48      1.0000 0.53600  0.71400  0.44000  Biso   1.000  H
  H49      1.0000 0.83200  0.17100  0.45100  Biso   1.000  H
  H50      1.0000 0.66800  0.82900  0.95100  Biso   1.000  H
  H51      1.0000 0.16800  0.67100  0.04900  Biso   1.000  H
  H52      1.0000 0.33200  0.32900  0.54900  Biso   1.000  H
  H53      1.0000 0.16800  0.82900  0.54900  Biso   1.000  H
  H54      1.0000 0.33200  0.17100  0.04900  Biso   1.000  H
  H55      1.0000 0.83200  0.32900  0.95100  Biso   1.000  H
  H56      1.0000 0.66800  0.67100  0.45100  Biso   1.000  H
