data_image0
_cell_length_a       18.375
_cell_length_b       10.674
_cell_length_c       15.025
_cell_angle_alpha    90
_cell_angle_beta     90
_cell_angle_gamma    90

_symmetry_space_group_name_H-M    "P 1"
_symmetry_int_tables_number       1

loop_
  _symmetry_equiv_pos_as_xyz
  'x, y, z'

loop_
  _atom_site_label
  _atom_site_occupancy
  _atom_site_fract_x
  _atom_site_fract_y
  _atom_site_fract_z
  _atom_site_thermal_displace_type
  _atom_site_B_iso_or_equiv
  _atom_site_type_symbol
  Cu1      1.0000 0.37949  0.72216  0.08901  Biso   1.000  Cu
  Cu2      1.0000 0.12051  0.27784  0.08901  Biso   1.000  Cu
  Cu3      1.0000 0.62051  0.72216  0.41099  Biso   1.000  Cu
  Cu4      1.0000 0.87949  0.27784  0.41099  Biso   1.000  Cu
  Cu5      1.0000 0.62051  0.27784  0.91099  Biso   1.000  Cu
  Cu6      1.0000 0.87949  0.72216  0.91099  Biso   1.000  Cu
  Cu7      1.0000 0.37949  0.27784  0.58901  Biso   1.000  Cu
  Cu8      1.0000 0.12051  0.72216  0.58901  Biso   1.000  Cu
  Cl1      1.0000 0.37640  0.50701  0.04563  Biso   1.000  Cl
  Cl2      1.0000 0.12360  0.49299  0.04563  Biso   1.000  Cl
  Cl3      1.0000 0.62360  0.50701  0.45437  Biso   1.000  Cl
  Cl4      1.0000 0.87640  0.49299  0.45437  Biso   1.000  Cl
  Cl5      1.0000 0.62360  0.49299  0.95437  Biso   1.000  Cl
  Cl6      1.0000 0.87640  0.50701  0.95437  Biso   1.000  Cl
  Cl7      1.0000 0.37640  0.49299  0.54563  Biso   1.000  Cl
  Cl8      1.0000 0.12360  0.50701  0.54563  Biso   1.000  Cl
  N1       1.0000 0.46783  0.77440  0.01865  Biso   1.000  N
  N2       1.0000 0.03217  0.22560  0.01865  Biso   1.000  N
  N3       1.0000 0.53217  0.77440  0.48135  Biso   1.000  N
  N4       1.0000 0.96783  0.22560  0.48135  Biso   1.000  N
  N5       1.0000 0.53217  0.22560  0.98135  Biso   1.000  N
  N6       1.0000 0.96783  0.77440  0.98135  Biso   1.000  N
  N7       1.0000 0.46783  0.22560  0.51865  Biso   1.000  N
  N8       1.0000 0.03217  0.77440  0.51865  Biso   1.000  N
  N9       1.0000 0.68553  0.70260  0.30521  Biso   1.000  N
  N10      1.0000 0.81447  0.29740  0.30521  Biso   1.000  N
  N11      1.0000 0.31447  0.70260  0.19479  Biso   1.000  N
  N12      1.0000 0.18553  0.29740  0.19479  Biso   1.000  N
  N13      1.0000 0.31447  0.29740  0.69479  Biso   1.000  N
  N14      1.0000 0.18553  0.70260  0.69479  Biso   1.000  N
  N15      1.0000 0.68553  0.29740  0.80521  Biso   1.000  N
  N16      1.0000 0.81447  0.70260  0.80521  Biso   1.000  N
  N17      1.0000 0.45099  0.74320  0.18646  Biso   1.000  N
  N18      1.0000 0.04901  0.25680  0.18646  Biso   1.000  N
  N19      1.0000 0.54901  0.74320  0.31354  Biso   1.000  N
  N20      1.0000 0.95099  0.25680  0.31354  Biso   1.000  N
  N21      1.0000 0.54901  0.25680  0.81354  Biso   1.000  N
  N22      1.0000 0.95099  0.74320  0.81354  Biso   1.000  N
  N23      1.0000 0.45099  0.25680  0.68646  Biso   1.000  N
  N24      1.0000 0.04901  0.74320  0.68646  Biso   1.000  N
  C1       1.0000 0.65241  0.70330  0.22440  Biso   1.000  C
  C2       1.0000 0.84759  0.29670  0.22440  Biso   1.000  C
  C3       1.0000 0.34759  0.70330  0.27560  Biso   1.000  C
  C4       1.0000 0.15241  0.29670  0.27560  Biso   1.000  C
  C5       1.0000 0.34759  0.29670  0.77560  Biso   1.000  C
  C6       1.0000 0.15241  0.70330  0.77560  Biso   1.000  C
  C7       1.0000 0.65241  0.29670  0.72440  Biso   1.000  C
  C8       1.0000 0.84759  0.70330  0.72440  Biso   1.000  C
  C9       1.0000 0.57330  0.73570  0.22960  Biso   1.000  C
  C10      1.0000 0.92670  0.26430  0.22960  Biso   1.000  C
  C11      1.0000 0.42670  0.73570  0.27040  Biso   1.000  C
  C12      1.0000 0.07330  0.26430  0.27040  Biso   1.000  C
  C13      1.0000 0.42670  0.26430  0.77040  Biso   1.000  C
  C14      1.0000 0.07330  0.73570  0.77040  Biso   1.000  C
  C15      1.0000 0.57330  0.26430  0.72960  Biso   1.000  C
  C16      1.0000 0.92670  0.73570  0.72960  Biso   1.000  C
  C17      1.0000 0.52121  0.75480  0.16260  Biso   1.000  C
  C18      1.0000 0.97879  0.24520  0.16260  Biso   1.000  C
  C19      1.0000 0.47879  0.75480  0.33740  Biso   1.000  C
  C20      1.0000 0.02121  0.24520  0.33740  Biso   1.000  C
  C21      1.0000 0.47879  0.24520  0.83740  Biso   1.000  C
  C22      1.0000 0.02121  0.75480  0.83740  Biso   1.000  C
  C23      1.0000 0.52121  0.24520  0.66260  Biso   1.000  C
  C24      1.0000 0.97879  0.75480  0.66260  Biso   1.000  C
  C25      1.0000 0.52922  0.79110  0.06760  Biso   1.000  C
  C26      1.0000 0.97078  0.20890  0.06760  Biso   1.000  C
  C27      1.0000 0.47078  0.79110  0.43240  Biso   1.000  C
  C28      1.0000 0.02922  0.20890  0.43240  Biso   1.000  C
  C29      1.0000 0.47078  0.20890  0.93240  Biso   1.000  C
  C30      1.0000 0.02922  0.79110  0.93240  Biso   1.000  C
  C31      1.0000 0.52922  0.20890  0.56760  Biso   1.000  C
  C32      1.0000 0.97078  0.79110  0.56760  Biso   1.000  C
  N25      1.0000 0.30878  0.82020  0.01610  Biso   1.000  N
  N26      1.0000 0.19122  0.17980  0.01610  Biso   1.000  N
  N27      1.0000 0.69122  0.82020  0.48390  Biso   1.000  N
  N28      1.0000 0.80878  0.17980  0.48390  Biso   1.000  N
  N29      1.0000 0.69122  0.17980  0.98390  Biso   1.000  N
  N30      1.0000 0.80878  0.82020  0.98390  Biso   1.000  N
  N31      1.0000 0.30878  0.17980  0.51610  Biso   1.000  N
  N32      1.0000 0.19122  0.82020  0.51610  Biso   1.000  N
  C33      1.0000 0.28107  0.90720  0.98880  Biso   1.000  C
  C34      1.0000 0.21893  0.09280  0.98880  Biso   1.000  C
  C35      1.0000 0.71893  0.90720  0.51120  Biso   1.000  C
  C36      1.0000 0.78107  0.09280  0.51120  Biso   1.000  C
  C37      1.0000 0.71893  0.09280  0.01120  Biso   1.000  C
  C38      1.0000 0.78107  0.90720  0.01120  Biso   1.000  C
  C39      1.0000 0.28107  0.09280  0.48880  Biso   1.000  C
  C40      1.0000 0.21893  0.90720  0.48880  Biso   1.000  C
  C41      1.0000 0.75674  0.67560  0.31020  Biso   1.000  C
  C42      1.0000 0.74326  0.32440  0.31020  Biso   1.000  C
  C43      1.0000 0.24326  0.67560  0.18980  Biso   1.000  C
  C44      1.0000 0.25674  0.32440  0.18980  Biso   1.000  C
  C45      1.0000 0.24326  0.32440  0.68980  Biso   1.000  C
  C46      1.0000 0.25674  0.67560  0.68980  Biso   1.000  C
  C47      1.0000 0.75674  0.32440  0.81020  Biso   1.000  C
  C48      1.0000 0.74326  0.67560  0.81020  Biso   1.000  C
  H1       1.0000 0.77902  0.67470  0.36580  Biso   1.000  H
  H2       1.0000 0.72098  0.32530  0.36580  Biso   1.000  H
  H3       1.0000 0.22098  0.67470  0.13420  Biso   1.000  H
  H4       1.0000 0.27902  0.32530  0.13420  Biso   1.000  H
  H5       1.0000 0.22098  0.32530  0.63420  Biso   1.000  H
  H6       1.0000 0.27902  0.67470  0.63420  Biso   1.000  H
  H7       1.0000 0.77902  0.32530  0.86580  Biso   1.000  H
  H8       1.0000 0.72098  0.67470  0.86580  Biso   1.000  H
  C49      1.0000 0.76423  0.64500  0.15380  Biso   1.000  C
  C50      1.0000 0.73577  0.35500  0.15380  Biso   1.000  C
  C51      1.0000 0.23577  0.64500  0.34620  Biso   1.000  C
  C52      1.0000 0.26423  0.35500  0.34620  Biso   1.000  C
  C53      1.0000 0.23577  0.35500  0.84620  Biso   1.000  C
  C54      1.0000 0.26423  0.64500  0.84620  Biso   1.000  C
  C55      1.0000 0.76423  0.35500  0.65380  Biso   1.000  C
  C56      1.0000 0.73577  0.64500  0.65380  Biso   1.000  C
  H9       1.0000 0.79056  0.62520  0.10280  Biso   1.000  H
  H10      1.0000 0.70944  0.37480  0.10280  Biso   1.000  H
  H11      1.0000 0.20944  0.62520  0.39720  Biso   1.000  H
  H12      1.0000 0.29056  0.37480  0.39720  Biso   1.000  H
  H13      1.0000 0.20944  0.37480  0.89720  Biso   1.000  H
  H14      1.0000 0.29056  0.62520  0.89720  Biso   1.000  H
  H15      1.0000 0.79056  0.37480  0.60280  Biso   1.000  H
  H16      1.0000 0.70944  0.62520  0.60280  Biso   1.000  H
  C57      1.0000 0.69005  0.67080  0.14840  Biso   1.000  C
  C58      1.0000 0.80995  0.32920  0.14840  Biso   1.000  C
  C59      1.0000 0.30995  0.67080  0.35160  Biso   1.000  C
  C60      1.0000 0.19005  0.32920  0.35160  Biso   1.000  C
  C61      1.0000 0.30995  0.32920  0.85160  Biso   1.000  C
  C62      1.0000 0.19005  0.67080  0.85160  Biso   1.000  C
  C63      1.0000 0.69005  0.32920  0.64840  Biso   1.000  C
  C64      1.0000 0.80995  0.67080  0.64840  Biso   1.000  C
  H17      1.0000 0.66609  0.66610  0.09400  Biso   1.000  H
  H18      1.0000 0.83391  0.33390  0.09400  Biso   1.000  H
  H19      1.0000 0.33391  0.66610  0.40600  Biso   1.000  H
  H20      1.0000 0.16609  0.33390  0.40600  Biso   1.000  H
  H21      1.0000 0.33391  0.33390  0.90600  Biso   1.000  H
  H22      1.0000 0.16609  0.66610  0.90600  Biso   1.000  H
  H23      1.0000 0.66609  0.33390  0.59400  Biso   1.000  H
  H24      1.0000 0.83391  0.66610  0.59400  Biso   1.000  H
  C65      1.0000 0.79818  0.64910  0.23570  Biso   1.000  C
  C66      1.0000 0.70182  0.35090  0.23570  Biso   1.000  C
  C67      1.0000 0.20182  0.64910  0.26430  Biso   1.000  C
  C68      1.0000 0.29818  0.35090  0.26430  Biso   1.000  C
  C69      1.0000 0.20182  0.35090  0.76430  Biso   1.000  C
  C70      1.0000 0.29818  0.64910  0.76430  Biso   1.000  C
  C71      1.0000 0.79818  0.35090  0.73570  Biso   1.000  C
  C72      1.0000 0.70182  0.64910  0.73570  Biso   1.000  C
  H25      1.0000 0.84790  0.63440  0.24060  Biso   1.000  H
  H26      1.0000 0.65210  0.36560  0.24060  Biso   1.000  H
  H27      1.0000 0.15210  0.63440  0.25940  Biso   1.000  H
  H28      1.0000 0.34790  0.36560  0.25940  Biso   1.000  H
  H29      1.0000 0.15210  0.36560  0.75940  Biso   1.000  H
  H30      1.0000 0.34790  0.63440  0.75940  Biso   1.000  H
  H31      1.0000 0.84790  0.36560  0.74060  Biso   1.000  H
  H32      1.0000 0.65210  0.63440  0.74060  Biso   1.000  H
  N33      1.0000 0.25000  0.00000  0.94750  Biso   1.000  N
  N34      1.0000 0.75000  0.00000  0.55250  Biso   1.000  N
  N35      1.0000 0.75000  0.00000  0.05250  Biso   1.000  N
  N36      1.0000 0.25000  0.00000  0.44750  Biso   1.000  N
  C73      1.0000 0.52810  0.86250  0.89280  Biso   1.000  C
  C74      1.0000 0.97190  0.13750  0.89280  Biso   1.000  C
  C75      1.0000 0.47190  0.86250  0.60720  Biso   1.000  C
  C76      1.0000 0.02810  0.13750  0.60720  Biso   1.000  C
  C77      1.0000 0.47190  0.13750  0.10720  Biso   1.000  C
  C78      1.0000 0.02810  0.86250  0.10720  Biso   1.000  C
  C79      1.0000 0.52810  0.13750  0.39280  Biso   1.000  C
  C80      1.0000 0.97190  0.86250  0.39280  Biso   1.000  C
  H33      1.0000 0.52720  0.88390  0.83280  Biso   1.000  H
  H34      1.0000 0.97280  0.11610  0.83280  Biso   1.000  H
  H35      1.0000 0.47280  0.88390  0.66720  Biso   1.000  H
  H36      1.0000 0.02720  0.11610  0.66720  Biso   1.000  H
  H37      1.0000 0.47280  0.11610  0.16720  Biso   1.000  H
  H38      1.0000 0.02720  0.88390  0.16720  Biso   1.000  H
  H39      1.0000 0.52720  0.11610  0.33280  Biso   1.000  H
  H40      1.0000 0.97280  0.88390  0.33280  Biso   1.000  H
  C81      1.0000 0.46810  0.80880  0.93280  Biso   1.000  C
  C82      1.0000 0.03190  0.19120  0.93280  Biso   1.000  C
  C83      1.0000 0.53190  0.80880  0.56720  Biso   1.000  C
  C84      1.0000 0.96810  0.19120  0.56720  Biso   1.000  C
  C85      1.0000 0.53190  0.19120  0.06720  Biso   1.000  C
  C86      1.0000 0.96810  0.80880  0.06720  Biso   1.000  C
  C87      1.0000 0.46810  0.19120  0.43280  Biso   1.000  C
  C88      1.0000 0.03190  0.80880  0.43280  Biso   1.000  C
  H41      1.0000 0.42630  0.79610  0.89900  Biso   1.000  H
  H42      1.0000 0.07370  0.20390  0.89900  Biso   1.000  H
  H43      1.0000 0.57370  0.79610  0.60100  Biso   1.000  H
  H44      1.0000 0.92630  0.20390  0.60100  Biso   1.000  H
  H45      1.0000 0.57370  0.20390  0.10100  Biso   1.000  H
  H46      1.0000 0.92630  0.79610  0.10100  Biso   1.000  H
  H47      1.0000 0.42630  0.20390  0.39900  Biso   1.000  H
  H48      1.0000 0.07370  0.79610  0.39900  Biso   1.000  H
  C89      1.0000 0.58987  0.84930  0.03230  Biso   1.000  C
  C90      1.0000 0.91013  0.15070  0.03230  Biso   1.000  C
  C91      1.0000 0.41013  0.84930  0.46770  Biso   1.000  C
  C92      1.0000 0.08987  0.15070  0.46770  Biso   1.000  C
  C93      1.0000 0.41013  0.15070  0.96770  Biso   1.000  C
  C94      1.0000 0.08987  0.84930  0.96770  Biso   1.000  C
  C95      1.0000 0.58987  0.15070  0.53230  Biso   1.000  C
  C96      1.0000 0.91013  0.84930  0.53230  Biso   1.000  C
  H49      1.0000 0.63040  0.86500  0.06770  Biso   1.000  H
  H50      1.0000 0.86960  0.13500  0.06770  Biso   1.000  H
  H51      1.0000 0.36960  0.86500  0.43230  Biso   1.000  H
  H52      1.0000 0.13040  0.13500  0.43230  Biso   1.000  H
  H53      1.0000 0.36960  0.13500  0.93230  Biso   1.000  H
  H54      1.0000 0.13040  0.86500  0.93230  Biso   1.000  H
  H55      1.0000 0.63040  0.13500  0.56770  Biso   1.000  H
  H56      1.0000 0.86960  0.86500  0.56770  Biso   1.000  H
  C97      1.0000 0.58940  0.88380  0.94340  Biso   1.000  C
  C98      1.0000 0.91060  0.11620  0.94340  Biso   1.000  C
  C99      1.0000 0.41060  0.88380  0.55660  Biso   1.000  C
  C100     1.0000 0.08940  0.11620  0.55660  Biso   1.000  C
  C101     1.0000 0.41060  0.11620  0.05660  Biso   1.000  C
  C102     1.0000 0.08940  0.88380  0.05660  Biso   1.000  C
  C103     1.0000 0.58940  0.11620  0.44340  Biso   1.000  C
  C104     1.0000 0.91060  0.88380  0.44340  Biso   1.000  C
  H57      1.0000 0.63010  0.92110  0.91800  Biso   1.000  H
  H58      1.0000 0.86990  0.07890  0.91800  Biso   1.000  H
  H59      1.0000 0.36990  0.92110  0.58200  Biso   1.000  H
  H60      1.0000 0.13010  0.07890  0.58200  Biso   1.000  H
  H61      1.0000 0.36990  0.07890  0.08200  Biso   1.000  H
  H62      1.0000 0.13010  0.92110  0.08200  Biso   1.000  H
  H63      1.0000 0.63010  0.07890  0.41800  Biso   1.000  H
  H64      1.0000 0.86990  0.92110  0.41800  Biso   1.000  H
  N37      1.0000 0.75000  0.00000  0.79490  Biso   1.000  N
  N38      1.0000 0.25000  0.00000  0.70510  Biso   1.000  N
  N39      1.0000 0.25000  0.00000  0.20510  Biso   1.000  N
  N40      1.0000 0.75000  0.00000  0.29490  Biso   1.000  N
  N41      1.0000 0.62890  0.98440  0.72490  Biso   1.000  N
  N42      1.0000 0.87110  0.01560  0.72490  Biso   1.000  N
  N43      1.0000 0.37110  0.98440  0.77510  Biso   1.000  N
  N44      1.0000 0.12890  0.01560  0.77510  Biso   1.000  N
  N45      1.0000 0.37110  0.01560  0.27510  Biso   1.000  N
  N46      1.0000 0.12890  0.98440  0.27510  Biso   1.000  N
  N47      1.0000 0.62890  0.01560  0.22490  Biso   1.000  N
  N48      1.0000 0.87110  0.98440  0.22490  Biso   1.000  N
  C105     1.0000 0.68730  0.99170  0.75300  Biso   1.000  C
  C106     1.0000 0.81270  0.00830  0.75300  Biso   1.000  C
  C107     1.0000 0.31270  0.99170  0.74700  Biso   1.000  C
  C108     1.0000 0.18730  0.00830  0.74700  Biso   1.000  C
  C109     1.0000 0.31270  0.00830  0.24700  Biso   1.000  C
  C110     1.0000 0.18730  0.99170  0.24700  Biso   1.000  C
  C111     1.0000 0.68730  0.00830  0.25300  Biso   1.000  C
  C112     1.0000 0.81270  0.99170  0.25300  Biso   1.000  C
  O1       1.0000 0.53570  0.46870  0.14560  Biso   1.000  O
  O2       1.0000 0.96430  0.53130  0.14560  Biso   1.000  O
  O3       1.0000 0.46430  0.46870  0.35440  Biso   1.000  O
  O4       1.0000 0.03570  0.53130  0.35440  Biso   1.000  O
  O5       1.0000 0.46430  0.53130  0.85440  Biso   1.000  O
  O6       1.0000 0.03570  0.46870  0.85440  Biso   1.000  O
  O7       1.0000 0.53570  0.53130  0.64560  Biso   1.000  O
  O8       1.0000 0.96430  0.46870  0.64560  Biso   1.000  O
  H65      1.0000 0.51250  0.45140  0.20660  Biso   1.000  H
  H66      1.0000 0.98750  0.54860  0.20660  Biso   1.000  H
  H67      1.0000 0.48750  0.45140  0.29340  Biso   1.000  H
  H68      1.0000 0.01250  0.54860  0.29340  Biso   1.000  H
  H69      1.0000 0.48750  0.54860  0.79340  Biso   1.000  H
  H70      1.0000 0.01250  0.45140  0.79340  Biso   1.000  H
  H71      1.0000 0.51250  0.54860  0.70660  Biso   1.000  H
  H72      1.0000 0.98750  0.45140  0.70660  Biso   1.000  H
  H73      1.0000 0.48840  0.42600  0.15150  Biso   1.000  H
  H74      1.0000 0.01160  0.57400  0.15150  Biso   1.000  H
  H75      1.0000 0.51160  0.42600  0.34850  Biso   1.000  H
  H76      1.0000 0.98840  0.57400  0.34850  Biso   1.000  H
  H77      1.0000 0.51160  0.57400  0.84850  Biso   1.000  H
  H78      1.0000 0.98840  0.42600  0.84850  Biso   1.000  H
  H79      1.0000 0.48840  0.57400  0.65150  Biso   1.000  H
  H80      1.0000 0.01160  0.42600  0.65150  Biso   1.000  H
