data_image0
_cell_length_a       13.1663
_cell_length_b       6.8831
_cell_length_c       10.2366
_cell_angle_alpha    90
_cell_angle_beta     108.112
_cell_angle_gamma    90

_symmetry_space_group_name_H-M    "P 1"
_symmetry_int_tables_number       1

loop_
  _symmetry_equiv_pos_as_xyz
  'x, y, z'

loop_
  _atom_site_label
  _atom_site_occupancy
  _atom_site_fract_x
  _atom_site_fract_y
  _atom_site_fract_z
  _atom_site_thermal_displace_type
  _atom_site_B_iso_or_equiv
  _atom_site_type_symbol
  Br1      1.0000 0.86332  0.50000  0.87320  Biso   1.000  Br
  Br2      1.0000 0.36332  0.00000  0.87320  Biso   1.000  Br
  Br3      1.0000 0.13668  0.50000  0.12680  Biso   1.000  Br
  Br4      1.0000 0.63668  0.00000  0.12680  Biso   1.000  Br
  Br5      1.0000 0.18160  0.50000  0.73923  Biso   1.000  Br
  Br6      1.0000 0.68160  0.00000  0.73923  Biso   1.000  Br
  Br7      1.0000 0.81840  0.50000  0.26077  Biso   1.000  Br
  Br8      1.0000 0.31840  0.00000  0.26077  Biso   1.000  Br
  Cu1      1.0000 0.03608  0.50000  0.83124  Biso   1.000  Cu
  Cu2      1.0000 0.53608  0.00000  0.83124  Biso   1.000  Cu
  Cu3      1.0000 0.96392  0.50000  0.16876  Biso   1.000  Cu
  Cu4      1.0000 0.46392  0.00000  0.16876  Biso   1.000  Cu
  C1       1.0000 0.10110  0.09980  0.92020  Biso   1.000  C
  C2       1.0000 0.60110  0.59980  0.92020  Biso   1.000  C
  C3       1.0000 0.89890  0.09980  0.07980  Biso   1.000  C
  C4       1.0000 0.39890  0.59980  0.07980  Biso   1.000  C
  C5       1.0000 0.89890  0.90020  0.07980  Biso   1.000  C
  C6       1.0000 0.39890  0.40020  0.07980  Biso   1.000  C
  C7       1.0000 0.10110  0.90020  0.92020  Biso   1.000  C
  C8       1.0000 0.60110  0.40020  0.92020  Biso   1.000  C
  H1       1.0000 0.14940  0.16570  0.99240  Biso   1.000  H
  H2       1.0000 0.64940  0.66570  0.99240  Biso   1.000  H
  H3       1.0000 0.85060  0.16570  0.00760  Biso   1.000  H
  H4       1.0000 0.35060  0.66570  0.00760  Biso   1.000  H
  H5       1.0000 0.85060  0.83430  0.00760  Biso   1.000  H
  H6       1.0000 0.35060  0.33430  0.00760  Biso   1.000  H
  H7       1.0000 0.14940  0.83430  0.99240  Biso   1.000  H
  H8       1.0000 0.64940  0.33430  0.99240  Biso   1.000  H
  N1       1.0000 0.03300  0.20170  0.81870  Biso   1.000  N
  N2       1.0000 0.53300  0.70170  0.81870  Biso   1.000  N
  N3       1.0000 0.96700  0.20170  0.18130  Biso   1.000  N
  N4       1.0000 0.46700  0.70170  0.18130  Biso   1.000  N
  N5       1.0000 0.96700  0.79830  0.18130  Biso   1.000  N
  N6       1.0000 0.46700  0.29830  0.18130  Biso   1.000  N
  N7       1.0000 0.03300  0.79830  0.81870  Biso   1.000  N
  N8       1.0000 0.53300  0.29830  0.81870  Biso   1.000  N
  C9       1.0000 0.96760  0.10290  0.71280  Biso   1.000  C
  C10      1.0000 0.46760  0.60290  0.71280  Biso   1.000  C
  C11      1.0000 0.03240  0.10290  0.28720  Biso   1.000  C
  C12      1.0000 0.53240  0.60290  0.28720  Biso   1.000  C
  C13      1.0000 0.03240  0.89710  0.28720  Biso   1.000  C
  C14      1.0000 0.53240  0.39710  0.28720  Biso   1.000  C
  C15      1.0000 0.96760  0.89710  0.71280  Biso   1.000  C
  C16      1.0000 0.46760  0.39710  0.71280  Biso   1.000  C
  C17      1.0000 0.89520  0.21450  0.59700  Biso   1.000  C
  C18      1.0000 0.39520  0.71450  0.59700  Biso   1.000  C
  C19      1.0000 0.10480  0.21450  0.40300  Biso   1.000  C
  C20      1.0000 0.60480  0.71450  0.40300  Biso   1.000  C
  C21      1.0000 0.10480  0.78550  0.40300  Biso   1.000  C
  C22      1.0000 0.60480  0.28550  0.40300  Biso   1.000  C
  C23      1.0000 0.89520  0.78550  0.59700  Biso   1.000  C
  C24      1.0000 0.39520  0.28550  0.59700  Biso   1.000  C
  H9       1.0000 0.89610  0.15840  0.51150  Biso   1.000  H
  H10      1.0000 0.39610  0.65840  0.51150  Biso   1.000  H
  H11      1.0000 0.10390  0.15840  0.48850  Biso   1.000  H
  H12      1.0000 0.60390  0.65840  0.48850  Biso   1.000  H
  H13      1.0000 0.10390  0.84160  0.48850  Biso   1.000  H
  H14      1.0000 0.60390  0.34160  0.48850  Biso   1.000  H
  H15      1.0000 0.89610  0.84160  0.51150  Biso   1.000  H
  H16      1.0000 0.39610  0.34160  0.51150  Biso   1.000  H
  H17      1.0000 0.91890  0.34700  0.60180  Biso   1.000  H
  H18      1.0000 0.41890  0.84700  0.60180  Biso   1.000  H
  H19      1.0000 0.08110  0.34700  0.39820  Biso   1.000  H
  H20      1.0000 0.58110  0.84700  0.39820  Biso   1.000  H
  H21      1.0000 0.08110  0.65300  0.39820  Biso   1.000  H
  H22      1.0000 0.58110  0.15300  0.39820  Biso   1.000  H
  H23      1.0000 0.91890  0.65300  0.60180  Biso   1.000  H
  H24      1.0000 0.41890  0.15300  0.60180  Biso   1.000  H
  H25      1.0000 0.82390  0.21030  0.60280  Biso   1.000  H
  H26      1.0000 0.32390  0.71030  0.60280  Biso   1.000  H
  H27      1.0000 0.17610  0.21030  0.39720  Biso   1.000  H
  H28      1.0000 0.67610  0.71030  0.39720  Biso   1.000  H
  H29      1.0000 0.17610  0.78970  0.39720  Biso   1.000  H
  H30      1.0000 0.67610  0.28970  0.39720  Biso   1.000  H
  H31      1.0000 0.82390  0.78970  0.60280  Biso   1.000  H
  H32      1.0000 0.32390  0.28970  0.60280  Biso   1.000  H
