data_image0
_cell_length_a       20.78
_cell_length_b       7.2367
_cell_length_c       15.495
_cell_angle_alpha    90
_cell_angle_beta     90
_cell_angle_gamma    90

_symmetry_space_group_name_H-M    "P 1"
_symmetry_int_tables_number       1

loop_
  _symmetry_equiv_pos_as_xyz
  'x, y, z'

loop_
  _atom_site_label
  _atom_site_occupancy
  _atom_site_fract_x
  _atom_site_fract_y
  _atom_site_fract_z
  _atom_site_thermal_displace_type
  _atom_site_B_iso_or_equiv
  _atom_site_type_symbol
  Br1      1.0000 0.50000  0.75000  0.36090  Biso   1.000  Br
  Br2      1.0000 0.50000  0.25000  0.63910  Biso   1.000  Br
  Br3      1.0000 0.00000  0.25000  0.86090  Biso   1.000  Br
  Br4      1.0000 0.00000  0.75000  0.13910  Biso   1.000  Br
  Cu1      1.0000 0.50000  0.00000  0.50000  Biso   1.000  Cu
  Cu2      1.0000 0.50000  0.50000  0.50000  Biso   1.000  Cu
  Cu3      1.0000 0.00000  0.50000  0.00000  Biso   1.000  Cu
  Cu4      1.0000 0.00000  0.00000  0.00000  Biso   1.000  Cu
  N1       1.0000 0.43220  0.14780  0.44140  Biso   1.000  N
  N2       1.0000 0.56780  0.35220  0.44140  Biso   1.000  N
  N3       1.0000 0.43220  0.85220  0.55860  Biso   1.000  N
  N4       1.0000 0.56780  0.64780  0.55860  Biso   1.000  N
  N5       1.0000 0.93220  0.64780  0.94140  Biso   1.000  N
  N6       1.0000 0.06780  0.85220  0.94140  Biso   1.000  N
  N7       1.0000 0.93220  0.35220  0.05860  Biso   1.000  N
  N8       1.0000 0.06780  0.14780  0.05860  Biso   1.000  N
  N9       1.0000 0.56780  0.85220  0.55860  Biso   1.000  N
  N10      1.0000 0.43220  0.64780  0.55860  Biso   1.000  N
  N11      1.0000 0.56780  0.14780  0.44140  Biso   1.000  N
  N12      1.0000 0.43220  0.35220  0.44140  Biso   1.000  N
  N13      1.0000 0.06780  0.35220  0.05860  Biso   1.000  N
  N14      1.0000 0.93220  0.14780  0.05860  Biso   1.000  N
  N15      1.0000 0.06780  0.64780  0.94140  Biso   1.000  N
  N16      1.0000 0.93220  0.85220  0.94140  Biso   1.000  N
  N17      1.0000 0.35840  0.25000  0.35740  Biso   1.000  N
  N18      1.0000 0.64160  0.25000  0.35740  Biso   1.000  N
  N19      1.0000 0.35840  0.75000  0.64260  Biso   1.000  N
  N20      1.0000 0.64160  0.75000  0.64260  Biso   1.000  N
  N21      1.0000 0.85840  0.75000  0.85740  Biso   1.000  N
  N22      1.0000 0.14160  0.75000  0.85740  Biso   1.000  N
  N23      1.0000 0.85840  0.25000  0.14260  Biso   1.000  N
  N24      1.0000 0.14160  0.25000  0.14260  Biso   1.000  N
  C1       1.0000 0.38680  0.09100  0.39260  Biso   1.000  C
  C2       1.0000 0.61320  0.40900  0.39260  Biso   1.000  C
  C3       1.0000 0.38680  0.90900  0.60740  Biso   1.000  C
  C4       1.0000 0.61320  0.59100  0.60740  Biso   1.000  C
  C5       1.0000 0.88680  0.59100  0.89260  Biso   1.000  C
  C6       1.0000 0.11320  0.90900  0.89260  Biso   1.000  C
  C7       1.0000 0.88680  0.40900  0.10740  Biso   1.000  C
  C8       1.0000 0.11320  0.09100  0.10740  Biso   1.000  C
  C9       1.0000 0.61320  0.90900  0.60740  Biso   1.000  C
  C10      1.0000 0.38680  0.59100  0.60740  Biso   1.000  C
  C11      1.0000 0.61320  0.09100  0.39260  Biso   1.000  C
  C12      1.0000 0.38680  0.40900  0.39260  Biso   1.000  C
  C13      1.0000 0.11320  0.40900  0.10740  Biso   1.000  C
  C14      1.0000 0.88680  0.09100  0.10740  Biso   1.000  C
  C15      1.0000 0.11320  0.59100  0.89260  Biso   1.000  C
  C16      1.0000 0.88680  0.90900  0.89260  Biso   1.000  C
  H1       1.0000 0.37500  0.96940  0.38230  Biso   1.000  H
  H2       1.0000 0.62500  0.53060  0.38230  Biso   1.000  H
  H3       1.0000 0.37500  0.03060  0.61770  Biso   1.000  H
  H4       1.0000 0.62500  0.46940  0.61770  Biso   1.000  H
  H5       1.0000 0.87500  0.46940  0.88230  Biso   1.000  H
  H6       1.0000 0.12500  0.03060  0.88230  Biso   1.000  H
  H7       1.0000 0.87500  0.53060  0.11770  Biso   1.000  H
  H8       1.0000 0.12500  0.96940  0.11770  Biso   1.000  H
  H9       1.0000 0.62500  0.03060  0.61770  Biso   1.000  H
  H10      1.0000 0.37500  0.46940  0.61770  Biso   1.000  H
  H11      1.0000 0.62500  0.96940  0.38230  Biso   1.000  H
  H12      1.0000 0.37500  0.53060  0.38230  Biso   1.000  H
  H13      1.0000 0.12500  0.53060  0.11770  Biso   1.000  H
  H14      1.0000 0.87500  0.96940  0.11770  Biso   1.000  H
  H15      1.0000 0.12500  0.46940  0.88230  Biso   1.000  H
  H16      1.0000 0.87500  0.03060  0.88230  Biso   1.000  H
  C17      1.0000 0.30180  0.25000  0.30110  Biso   1.000  C
  C18      1.0000 0.69820  0.25000  0.30110  Biso   1.000  C
  C19      1.0000 0.30180  0.75000  0.69890  Biso   1.000  C
  C20      1.0000 0.69820  0.75000  0.69890  Biso   1.000  C
  C21      1.0000 0.80180  0.75000  0.80110  Biso   1.000  C
  C22      1.0000 0.19820  0.75000  0.80110  Biso   1.000  C
  C23      1.0000 0.80180  0.25000  0.19890  Biso   1.000  C
  C24      1.0000 0.19820  0.25000  0.19890  Biso   1.000  C
  C25      1.0000 0.26670  0.12500  0.28400  Biso   1.000  C
  C26      1.0000 0.73330  0.37500  0.28400  Biso   1.000  C
  C27      1.0000 0.26670  0.87500  0.71600  Biso   1.000  C
  C28      1.0000 0.73330  0.62500  0.71600  Biso   1.000  C
  C29      1.0000 0.76670  0.62500  0.78400  Biso   1.000  C
  C30      1.0000 0.23330  0.87500  0.78400  Biso   1.000  C
  C31      1.0000 0.76670  0.37500  0.21600  Biso   1.000  C
  C32      1.0000 0.23330  0.12500  0.21600  Biso   1.000  C
  C33      1.0000 0.73330  0.87500  0.71600  Biso   1.000  C
  C34      1.0000 0.26670  0.62500  0.71600  Biso   1.000  C
  C35      1.0000 0.73330  0.12500  0.28400  Biso   1.000  C
  C36      1.0000 0.26670  0.37500  0.28400  Biso   1.000  C
  C37      1.0000 0.23330  0.37500  0.21600  Biso   1.000  C
  C38      1.0000 0.76670  0.12500  0.21600  Biso   1.000  C
  C39      1.0000 0.23330  0.62500  0.78400  Biso   1.000  C
  C40      1.0000 0.76670  0.87500  0.78400  Biso   1.000  C
  H17      1.0000 0.28830  0.00820  0.28780  Biso   1.000  H
  H18      1.0000 0.71170  0.49180  0.28780  Biso   1.000  H
  H19      1.0000 0.28830  0.99180  0.71220  Biso   1.000  H
  H20      1.0000 0.71170  0.50820  0.71220  Biso   1.000  H
  H21      1.0000 0.78830  0.50820  0.78780  Biso   1.000  H
  H22      1.0000 0.21170  0.99180  0.78780  Biso   1.000  H
  H23      1.0000 0.78830  0.49180  0.21220  Biso   1.000  H
  H24      1.0000 0.21170  0.00820  0.21220  Biso   1.000  H
  H25      1.0000 0.71170  0.99180  0.71220  Biso   1.000  H
  H26      1.0000 0.28830  0.50820  0.71220  Biso   1.000  H
  H27      1.0000 0.71170  0.00820  0.28780  Biso   1.000  H
  H28      1.0000 0.28830  0.49180  0.28780  Biso   1.000  H
  H29      1.0000 0.21170  0.49180  0.21220  Biso   1.000  H
  H30      1.0000 0.78830  0.00820  0.21220  Biso   1.000  H
  H31      1.0000 0.21170  0.50820  0.78780  Biso   1.000  H
  H32      1.0000 0.78830  0.99180  0.78780  Biso   1.000  H
  Br5      1.0000 0.27210  0.25000  0.53260  Biso   1.000  Br
  Br6      1.0000 0.72790  0.25000  0.53260  Biso   1.000  Br
  Br7      1.0000 0.27210  0.75000  0.46740  Biso   1.000  Br
  Br8      1.0000 0.72790  0.75000  0.46740  Biso   1.000  Br
  Br9      1.0000 0.77210  0.75000  0.03260  Biso   1.000  Br
  Br10     1.0000 0.22790  0.75000  0.03260  Biso   1.000  Br
  Br11     1.0000 0.77210  0.25000  0.96740  Biso   1.000  Br
  Br12     1.0000 0.22790  0.25000  0.96740  Biso   1.000  Br
  C41      1.0000 0.30140  0.09900  0.23800  Biso   1.000  C
  C42      1.0000 0.69860  0.40100  0.23800  Biso   1.000  C
  C43      1.0000 0.30140  0.90100  0.76200  Biso   1.000  C
  C44      1.0000 0.69860  0.59900  0.76200  Biso   1.000  C
  C45      1.0000 0.80140  0.59900  0.73800  Biso   1.000  C
  C46      1.0000 0.19860  0.90100  0.73800  Biso   1.000  C
  C47      1.0000 0.80140  0.40100  0.26200  Biso   1.000  C
  C48      1.0000 0.19860  0.09900  0.26200  Biso   1.000  C
  C49      1.0000 0.69860  0.90100  0.76200  Biso   1.000  C
  C50      1.0000 0.30140  0.59900  0.76200  Biso   1.000  C
  C51      1.0000 0.69860  0.09900  0.23800  Biso   1.000  C
  C52      1.0000 0.30140  0.40100  0.23800  Biso   1.000  C
  C53      1.0000 0.19860  0.40100  0.26200  Biso   1.000  C
  C54      1.0000 0.80140  0.09900  0.26200  Biso   1.000  C
  C55      1.0000 0.19860  0.59900  0.73800  Biso   1.000  C
  C56      1.0000 0.80140  0.90100  0.73800  Biso   1.000  C
  H33      1.0000 0.33010  0.99640  0.23080  Biso   1.000  H
  H34      1.0000 0.66990  0.50360  0.23080  Biso   1.000  H
  H35      1.0000 0.33010  0.00360  0.76920  Biso   1.000  H
  H36      1.0000 0.66990  0.49640  0.76920  Biso   1.000  H
  H37      1.0000 0.83010  0.49640  0.73080  Biso   1.000  H
  H38      1.0000 0.16990  0.00360  0.73080  Biso   1.000  H
  H39      1.0000 0.83010  0.50360  0.26920  Biso   1.000  H
  H40      1.0000 0.16990  0.99640  0.26920  Biso   1.000  H
  H41      1.0000 0.66990  0.00360  0.76920  Biso   1.000  H
  H42      1.0000 0.33010  0.49640  0.76920  Biso   1.000  H
  H43      1.0000 0.66990  0.99640  0.23080  Biso   1.000  H
  H44      1.0000 0.33010  0.50360  0.23080  Biso   1.000  H
  H45      1.0000 0.16990  0.50360  0.26920  Biso   1.000  H
  H46      1.0000 0.83010  0.99640  0.26920  Biso   1.000  H
  H47      1.0000 0.16990  0.49640  0.73080  Biso   1.000  H
  H48      1.0000 0.83010  0.00360  0.73080  Biso   1.000  H
