data_image0
_cell_length_a       11.774
_cell_length_b       13.892
_cell_length_c       35.1467
_cell_angle_alpha    90
_cell_angle_beta     90
_cell_angle_gamma    90

_symmetry_space_group_name_H-M    "P 1"
_symmetry_int_tables_number       1

loop_
  _symmetry_equiv_pos_as_xyz
  'x, y, z'

loop_
  _atom_site_label
  _atom_site_occupancy
  _atom_site_fract_x
  _atom_site_fract_y
  _atom_site_fract_z
  _atom_site_thermal_displace_type
  _atom_site_B_iso_or_equiv
  _atom_site_type_symbol
  Cu1      1.0000 0.13917  0.12493  0.36189  Biso   1.000  Cu
  Cu2      1.0000 0.36083  0.87507  0.86189  Biso   1.000  Cu
  Cu3      1.0000 0.86083  0.62493  0.13811  Biso   1.000  Cu
  Cu4      1.0000 0.63917  0.37507  0.63811  Biso   1.000  Cu
  Cu5      1.0000 0.86083  0.87507  0.63811  Biso   1.000  Cu
  Cu6      1.0000 0.63917  0.12493  0.13811  Biso   1.000  Cu
  Cu7      1.0000 0.13917  0.37507  0.86189  Biso   1.000  Cu
  Cu8      1.0000 0.36083  0.62493  0.36189  Biso   1.000  Cu
  Cu9      1.0000 0.53785  0.31288  0.37489  Biso   1.000  Cu
  Cu10     1.0000 0.96215  0.68712  0.87489  Biso   1.000  Cu
  Cu11     1.0000 0.46215  0.81288  0.12511  Biso   1.000  Cu
  Cu12     1.0000 0.03785  0.18712  0.62511  Biso   1.000  Cu
  Cu13     1.0000 0.46215  0.68712  0.62511  Biso   1.000  Cu
  Cu14     1.0000 0.03785  0.31288  0.12511  Biso   1.000  Cu
  Cu15     1.0000 0.53785  0.18712  0.87489  Biso   1.000  Cu
  Cu16     1.0000 0.96215  0.81288  0.37489  Biso   1.000  Cu
  O1       1.0000 0.25364  0.06051  0.32719  Biso   1.000  O
  O2       1.0000 0.24636  0.93949  0.82719  Biso   1.000  O
  O3       1.0000 0.74636  0.56051  0.17281  Biso   1.000  O
  O4       1.0000 0.75364  0.43949  0.67281  Biso   1.000  O
  O5       1.0000 0.74636  0.93949  0.67281  Biso   1.000  O
  O6       1.0000 0.75364  0.06051  0.17281  Biso   1.000  O
  O7       1.0000 0.25364  0.43949  0.82719  Biso   1.000  O
  O8       1.0000 0.24636  0.56051  0.32719  Biso   1.000  O
  O9       1.0000 0.42345  0.24292  0.34254  Biso   1.000  O
  O10      1.0000 0.07655  0.75708  0.84254  Biso   1.000  O
  O11      1.0000 0.57655  0.74292  0.15746  Biso   1.000  O
  O12      1.0000 0.92345  0.25708  0.65746  Biso   1.000  O
  O13      1.0000 0.57655  0.75708  0.65746  Biso   1.000  O
  O14      1.0000 0.92345  0.24292  0.15746  Biso   1.000  O
  O15      1.0000 0.42345  0.25708  0.84254  Biso   1.000  O
  O16      1.0000 0.07655  0.74292  0.34254  Biso   1.000  O
  O17      1.0000 0.63317  0.10150  0.34940  Biso   1.000  O
  O18      1.0000 0.86683  0.89850  0.84940  Biso   1.000  O
  O19      1.0000 0.36683  0.60150  0.15060  Biso   1.000  O
  O20      1.0000 0.13317  0.39850  0.65060  Biso   1.000  O
  O21      1.0000 0.36683  0.89850  0.65060  Biso   1.000  O
  O22      1.0000 0.13317  0.10150  0.15060  Biso   1.000  O
  O23      1.0000 0.63317  0.39850  0.84940  Biso   1.000  O
  O24      1.0000 0.86683  0.60150  0.34940  Biso   1.000  O
  O25      1.0000 0.46969  0.91612  0.33323  Biso   1.000  O
  O26      1.0000 0.03031  0.08388  0.83323  Biso   1.000  O
  O27      1.0000 0.53031  0.41612  0.16677  Biso   1.000  O
  O28      1.0000 0.96969  0.58388  0.66677  Biso   1.000  O
  O29      1.0000 0.53031  0.08388  0.66677  Biso   1.000  O
  O30      1.0000 0.96969  0.91612  0.16677  Biso   1.000  O
  O31      1.0000 0.46969  0.58388  0.83323  Biso   1.000  O
  O32      1.0000 0.03031  0.41612  0.33323  Biso   1.000  O
  O33      1.0000 0.24853  0.09956  0.40253  Biso   1.000  O
  O34      1.0000 0.25147  0.90044  0.90253  Biso   1.000  O
  O35      1.0000 0.75147  0.59956  0.09747  Biso   1.000  O
  O36      1.0000 0.74853  0.40044  0.59747  Biso   1.000  O
  O37      1.0000 0.75147  0.90044  0.59747  Biso   1.000  O
  O38      1.0000 0.74853  0.09956  0.09747  Biso   1.000  O
  O39      1.0000 0.24853  0.40044  0.90253  Biso   1.000  O
  O40      1.0000 0.25147  0.59956  0.40253  Biso   1.000  O
  O41      1.0000 0.08055  0.93027  0.38496  Biso   1.000  O
  O42      1.0000 0.41945  0.06973  0.88496  Biso   1.000  O
  O43      1.0000 0.91945  0.43027  0.11504  Biso   1.000  O
  O44      1.0000 0.58055  0.56973  0.61504  Biso   1.000  O
  O45      1.0000 0.91945  0.06973  0.61504  Biso   1.000  O
  O46      1.0000 0.58055  0.93027  0.11504  Biso   1.000  O
  O47      1.0000 0.08055  0.56973  0.88496  Biso   1.000  O
  O48      1.0000 0.41945  0.43027  0.38496  Biso   1.000  O
  O49      1.0000 0.20494  0.79554  0.45054  Biso   1.000  O
  O50      1.0000 0.29506  0.20446  0.95054  Biso   1.000  O
  O51      1.0000 0.79506  0.29554  0.04946  Biso   1.000  O
  O52      1.0000 0.70494  0.70446  0.54946  Biso   1.000  O
  O53      1.0000 0.79506  0.20446  0.54946  Biso   1.000  O
  O54      1.0000 0.70494  0.79554  0.04946  Biso   1.000  O
  O55      1.0000 0.20494  0.70446  0.95054  Biso   1.000  O
  O56      1.0000 0.29506  0.29554  0.45054  Biso   1.000  O
  O57      1.0000 0.38254  0.96796  0.46541  Biso   1.000  O
  O58      1.0000 0.11746  0.03204  0.96541  Biso   1.000  O
  O59      1.0000 0.61746  0.46796  0.03459  Biso   1.000  O
  O60      1.0000 0.88254  0.53204  0.53459  Biso   1.000  O
  O61      1.0000 0.61746  0.03204  0.53459  Biso   1.000  O
  O62      1.0000 0.88254  0.96796  0.03459  Biso   1.000  O
  O63      1.0000 0.38254  0.53204  0.96541  Biso   1.000  O
  O64      1.0000 0.11746  0.46796  0.46541  Biso   1.000  O
  O65      1.0000 0.19465  0.27804  0.35414  Biso   1.000  O
  O66      1.0000 0.30535  0.72196  0.85414  Biso   1.000  O
  O67      1.0000 0.80535  0.77804  0.14586  Biso   1.000  O
  O68      1.0000 0.69465  0.22196  0.64586  Biso   1.000  O
  O69      1.0000 0.80535  0.72196  0.64586  Biso   1.000  O
  O70      1.0000 0.69465  0.27804  0.14586  Biso   1.000  O
  O71      1.0000 0.19465  0.22196  0.85414  Biso   1.000  O
  O72      1.0000 0.30535  0.77804  0.35414  Biso   1.000  O
  H1       1.0000 0.15500  0.32400  0.34650  Biso   1.000  H
  H2       1.0000 0.34500  0.67600  0.84650  Biso   1.000  H
  H3       1.0000 0.84500  0.82400  0.15350  Biso   1.000  H
  H4       1.0000 0.65500  0.17600  0.65350  Biso   1.000  H
  H5       1.0000 0.84500  0.67600  0.65350  Biso   1.000  H
  H6       1.0000 0.65500  0.32400  0.15350  Biso   1.000  H
  H7       1.0000 0.15500  0.17600  0.84650  Biso   1.000  H
  H8       1.0000 0.34500  0.82400  0.34650  Biso   1.000  H
  H9       1.0000 0.25650  0.29900  0.34780  Biso   1.000  H
  H10      1.0000 0.24350  0.70100  0.84780  Biso   1.000  H
  H11      1.0000 0.74350  0.79900  0.15220  Biso   1.000  H
  H12      1.0000 0.75650  0.20100  0.65220  Biso   1.000  H
  H13      1.0000 0.74350  0.70100  0.65220  Biso   1.000  H
  H14      1.0000 0.75650  0.29900  0.15220  Biso   1.000  H
  H15      1.0000 0.25650  0.20100  0.84780  Biso   1.000  H
  H16      1.0000 0.24350  0.79900  0.34780  Biso   1.000  H
  O73      1.0000 0.48173  0.23220  0.41637  Biso   1.000  O
  O74      1.0000 0.01827  0.76780  0.91637  Biso   1.000  O
  O75      1.0000 0.51827  0.73220  0.08363  Biso   1.000  O
  O76      1.0000 0.98173  0.26780  0.58363  Biso   1.000  O
  O77      1.0000 0.51827  0.76780  0.58363  Biso   1.000  O
  O78      1.0000 0.98173  0.23220  0.08363  Biso   1.000  O
  O79      1.0000 0.48173  0.26780  0.91637  Biso   1.000  O
  O80      1.0000 0.01827  0.73220  0.41637  Biso   1.000  O
  H17      1.0000 0.43000  0.25000  0.42700  Biso   1.000  H
  H18      1.0000 0.07000  0.75000  0.92700  Biso   1.000  H
  H19      1.0000 0.57000  0.75000  0.07300  Biso   1.000  H
  H20      1.0000 0.93000  0.25000  0.57300  Biso   1.000  H
  H21      1.0000 0.57000  0.75000  0.57300  Biso   1.000  H
  H22      1.0000 0.93000  0.25000  0.07300  Biso   1.000  H
  H23      1.0000 0.43000  0.25000  0.92700  Biso   1.000  H
  H24      1.0000 0.07000  0.75000  0.42700  Biso   1.000  H
  H25      1.0000 0.51000  0.19600  0.43520  Biso   1.000  H
  H26      1.0000 0.99000  0.80400  0.93520  Biso   1.000  H
  H27      1.0000 0.49000  0.69600  0.06480  Biso   1.000  H
  H28      1.0000 0.01000  0.30400  0.56480  Biso   1.000  H
  H29      1.0000 0.49000  0.80400  0.56480  Biso   1.000  H
  H30      1.0000 0.01000  0.19600  0.06480  Biso   1.000  H
  H31      1.0000 0.51000  0.30400  0.93520  Biso   1.000  H
  H32      1.0000 0.99000  0.69600  0.43520  Biso   1.000  H
  N1       1.0000 0.03115  0.14094  0.31901  Biso   1.000  N
  N2       1.0000 0.46885  0.85906  0.81901  Biso   1.000  N
  N3       1.0000 0.96885  0.64094  0.18099  Biso   1.000  N
  N4       1.0000 0.53115  0.35906  0.68099  Biso   1.000  N
  N5       1.0000 0.96885  0.85906  0.68099  Biso   1.000  N
  N6       1.0000 0.53115  0.14094  0.18099  Biso   1.000  N
  N7       1.0000 0.03115  0.35906  0.81901  Biso   1.000  N
  N8       1.0000 0.46885  0.64094  0.31901  Biso   1.000  N
  N9       1.0000 0.86776  0.11259  0.35604  Biso   1.000  N
  N10      1.0000 0.63224  0.88741  0.85604  Biso   1.000  N
  N11      1.0000 0.13224  0.61259  0.14396  Biso   1.000  N
  N12      1.0000 0.36776  0.38741  0.64396  Biso   1.000  N
  N13      1.0000 0.13224  0.88741  0.64396  Biso   1.000  N
  N14      1.0000 0.36776  0.11259  0.14396  Biso   1.000  N
  N15      1.0000 0.86776  0.38741  0.85604  Biso   1.000  N
  N16      1.0000 0.63224  0.61259  0.35604  Biso   1.000  N
  H33      1.0000 0.80390  0.08300  0.35410  Biso   1.000  H
  H34      1.0000 0.69610  0.91700  0.85410  Biso   1.000  H
  H35      1.0000 0.19610  0.58300  0.14590  Biso   1.000  H
  H36      1.0000 0.30390  0.41700  0.64590  Biso   1.000  H
  H37      1.0000 0.19610  0.91700  0.64590  Biso   1.000  H
  H38      1.0000 0.30390  0.08300  0.14590  Biso   1.000  H
  H39      1.0000 0.80390  0.41700  0.85410  Biso   1.000  H
  H40      1.0000 0.69610  0.58300  0.35410  Biso   1.000  H
  N17      1.0000 0.01416  0.15139  0.39959  Biso   1.000  N
  N18      1.0000 0.48584  0.84861  0.89959  Biso   1.000  N
  N19      1.0000 0.98584  0.65139  0.10041  Biso   1.000  N
  N20      1.0000 0.51416  0.34861  0.60041  Biso   1.000  N
  N21      1.0000 0.98584  0.84861  0.60041  Biso   1.000  N
  N22      1.0000 0.51416  0.15139  0.10041  Biso   1.000  N
  N23      1.0000 0.01416  0.34861  0.89959  Biso   1.000  N
  N24      1.0000 0.48584  0.65139  0.39959  Biso   1.000  N
  N25      1.0000 0.60710  0.37246  0.32909  Biso   1.000  N
  N26      1.0000 0.89290  0.62754  0.82909  Biso   1.000  N
  N27      1.0000 0.39290  0.87246  0.17091  Biso   1.000  N
  N28      1.0000 0.10710  0.12754  0.67091  Biso   1.000  N
  N29      1.0000 0.39290  0.62754  0.67091  Biso   1.000  N
  N30      1.0000 0.10710  0.37246  0.17091  Biso   1.000  N
  N31      1.0000 0.60710  0.12754  0.82909  Biso   1.000  N
  N32      1.0000 0.89290  0.87246  0.32909  Biso   1.000  N
  N33      1.0000 0.79402  0.36187  0.35258  Biso   1.000  N
  N34      1.0000 0.70598  0.63813  0.85258  Biso   1.000  N
  N35      1.0000 0.20598  0.86187  0.14742  Biso   1.000  N
  N36      1.0000 0.29402  0.13813  0.64742  Biso   1.000  N
  N37      1.0000 0.20598  0.63813  0.64742  Biso   1.000  N
  N38      1.0000 0.29402  0.36187  0.14742  Biso   1.000  N
  N39      1.0000 0.79402  0.13813  0.85258  Biso   1.000  N
  N40      1.0000 0.70598  0.86187  0.35258  Biso   1.000  N
  H41      1.0000 0.86140  0.34520  0.34580  Biso   1.000  H
  H42      1.0000 0.63860  0.65480  0.84580  Biso   1.000  H
  H43      1.0000 0.13860  0.84520  0.15420  Biso   1.000  H
  H44      1.0000 0.36140  0.15480  0.65420  Biso   1.000  H
  H45      1.0000 0.13860  0.65480  0.65420  Biso   1.000  H
  H46      1.0000 0.36140  0.34520  0.15420  Biso   1.000  H
  H47      1.0000 0.86140  0.15480  0.84580  Biso   1.000  H
  H48      1.0000 0.63860  0.84520  0.34580  Biso   1.000  H
  N41      1.0000 0.66999  0.35780  0.40545  Biso   1.000  N
  N42      1.0000 0.83001  0.64220  0.90545  Biso   1.000  N
  N43      1.0000 0.33001  0.85780  0.09455  Biso   1.000  N
  N44      1.0000 0.16999  0.14220  0.59455  Biso   1.000  N
  N45      1.0000 0.33001  0.64220  0.59455  Biso   1.000  N
  N46      1.0000 0.16999  0.35780  0.09455  Biso   1.000  N
  N47      1.0000 0.66999  0.14220  0.90545  Biso   1.000  N
  N48      1.0000 0.83001  0.85780  0.40545  Biso   1.000  N
  C1       1.0000 0.07560  0.16350  0.28450  Biso   1.000  C
  C2       1.0000 0.42440  0.83650  0.78450  Biso   1.000  C
  C3       1.0000 0.92440  0.66350  0.21550  Biso   1.000  C
  C4       1.0000 0.57560  0.33650  0.71550  Biso   1.000  C
  C5       1.0000 0.92440  0.83650  0.71550  Biso   1.000  C
  C6       1.0000 0.57560  0.16350  0.21550  Biso   1.000  C
  C7       1.0000 0.07560  0.33650  0.78450  Biso   1.000  C
  C8       1.0000 0.42440  0.66350  0.28450  Biso   1.000  C
  H49      1.0000 0.15420  0.16620  0.28220  Biso   1.000  H
  H50      1.0000 0.34580  0.83380  0.78220  Biso   1.000  H
  H51      1.0000 0.84580  0.66620  0.21780  Biso   1.000  H
  H52      1.0000 0.65420  0.33380  0.71780  Biso   1.000  H
  H53      1.0000 0.84580  0.83380  0.71780  Biso   1.000  H
  H54      1.0000 0.65420  0.16620  0.21780  Biso   1.000  H
  H55      1.0000 0.15420  0.33380  0.78220  Biso   1.000  H
  H56      1.0000 0.34580  0.66620  0.28220  Biso   1.000  H
  C9       1.0000 0.01180  0.18250  0.25306  Biso   1.000  C
  C10      1.0000 0.48820  0.81750  0.75306  Biso   1.000  C
  C11      1.0000 0.98820  0.68250  0.24694  Biso   1.000  C
  C12      1.0000 0.51180  0.31750  0.74694  Biso   1.000  C
  C13      1.0000 0.98820  0.81750  0.74694  Biso   1.000  C
  C14      1.0000 0.51180  0.18250  0.24694  Biso   1.000  C
  C15      1.0000 0.01180  0.31750  0.75306  Biso   1.000  C
  C16      1.0000 0.48820  0.68250  0.25306  Biso   1.000  C
  H57      1.0000 0.04580  0.19680  0.22990  Biso   1.000  H
  H58      1.0000 0.45420  0.80320  0.72990  Biso   1.000  H
  H59      1.0000 0.95420  0.69680  0.27010  Biso   1.000  H
  H60      1.0000 0.54580  0.30320  0.77010  Biso   1.000  H
  H61      1.0000 0.95420  0.80320  0.77010  Biso   1.000  H
  H62      1.0000 0.54580  0.19680  0.27010  Biso   1.000  H
  H63      1.0000 0.04580  0.30320  0.72990  Biso   1.000  H
  H64      1.0000 0.45420  0.69680  0.22990  Biso   1.000  H
  C17      1.0000 0.89430  0.18000  0.25666  Biso   1.000  C
  C18      1.0000 0.60570  0.82000  0.75666  Biso   1.000  C
  C19      1.0000 0.10570  0.68000  0.24334  Biso   1.000  C
  C20      1.0000 0.39430  0.32000  0.74334  Biso   1.000  C
  C21      1.0000 0.10570  0.82000  0.74334  Biso   1.000  C
  C22      1.0000 0.39430  0.18000  0.24334  Biso   1.000  C
  C23      1.0000 0.89430  0.32000  0.75666  Biso   1.000  C
  C24      1.0000 0.60570  0.68000  0.25666  Biso   1.000  C
  H65      1.0000 0.84820  0.19380  0.23590  Biso   1.000  H
  H66      1.0000 0.65180  0.80620  0.73590  Biso   1.000  H
  H67      1.0000 0.15180  0.69380  0.26410  Biso   1.000  H
  H68      1.0000 0.34820  0.30620  0.76410  Biso   1.000  H
  H69      1.0000 0.15180  0.80620  0.76410  Biso   1.000  H
  H70      1.0000 0.34820  0.19380  0.26410  Biso   1.000  H
  H71      1.0000 0.84820  0.30620  0.73590  Biso   1.000  H
  H72      1.0000 0.65180  0.69380  0.23590  Biso   1.000  H
  C25      1.0000 0.84730  0.15710  0.29093  Biso   1.000  C
  C26      1.0000 0.65270  0.84290  0.79093  Biso   1.000  C
  C27      1.0000 0.15270  0.65710  0.20907  Biso   1.000  C
  C28      1.0000 0.34730  0.34290  0.70907  Biso   1.000  C
  C29      1.0000 0.15270  0.84290  0.70907  Biso   1.000  C
  C30      1.0000 0.34730  0.15710  0.20907  Biso   1.000  C
  C31      1.0000 0.84730  0.34290  0.79093  Biso   1.000  C
  C32      1.0000 0.65270  0.65710  0.29093  Biso   1.000  C
  H73      1.0000 0.76880  0.15480  0.29360  Biso   1.000  H
  H74      1.0000 0.73120  0.84520  0.79360  Biso   1.000  H
  H75      1.0000 0.23120  0.65480  0.20640  Biso   1.000  H
  H76      1.0000 0.26880  0.34520  0.70640  Biso   1.000  H
  H77      1.0000 0.23120  0.84520  0.70640  Biso   1.000  H
  H78      1.0000 0.26880  0.15480  0.20640  Biso   1.000  H
  H79      1.0000 0.76880  0.34520  0.79360  Biso   1.000  H
  H80      1.0000 0.73120  0.65480  0.29360  Biso   1.000  H
  C33      1.0000 0.91760  0.13713  0.32215  Biso   1.000  C
  C34      1.0000 0.58240  0.86287  0.82215  Biso   1.000  C
  C35      1.0000 0.08240  0.63713  0.17785  Biso   1.000  C
  C36      1.0000 0.41760  0.36287  0.67785  Biso   1.000  C
  C37      1.0000 0.08240  0.86287  0.67785  Biso   1.000  C
  C38      1.0000 0.41760  0.13713  0.17785  Biso   1.000  C
  C39      1.0000 0.91760  0.36287  0.82215  Biso   1.000  C
  C40      1.0000 0.58240  0.63713  0.32215  Biso   1.000  C
  C41      1.0000 0.90515  0.12847  0.39296  Biso   1.000  C
  C42      1.0000 0.59485  0.87153  0.89296  Biso   1.000  C
  C43      1.0000 0.09485  0.62847  0.10704  Biso   1.000  C
  C44      1.0000 0.40515  0.37153  0.60704  Biso   1.000  C
  C45      1.0000 0.09485  0.87153  0.60704  Biso   1.000  C
  C46      1.0000 0.40515  0.12847  0.10704  Biso   1.000  C
  C47      1.0000 0.90515  0.37153  0.89296  Biso   1.000  C
  C48      1.0000 0.59485  0.62847  0.39296  Biso   1.000  C
  C49      1.0000 0.82510  0.12240  0.42205  Biso   1.000  C
  C50      1.0000 0.67490  0.87760  0.92205  Biso   1.000  C
  C51      1.0000 0.17490  0.62240  0.07795  Biso   1.000  C
  C52      1.0000 0.32510  0.37760  0.57795  Biso   1.000  C
  C53      1.0000 0.17490  0.87760  0.57795  Biso   1.000  C
  C54      1.0000 0.32510  0.12240  0.07795  Biso   1.000  C
  C55      1.0000 0.82510  0.37760  0.92205  Biso   1.000  C
  C56      1.0000 0.67490  0.62240  0.42205  Biso   1.000  C
  H81      1.0000 0.75090  0.10350  0.41680  Biso   1.000  H
  H82      1.0000 0.74910  0.89650  0.91680  Biso   1.000  H
  H83      1.0000 0.24910  0.60350  0.08320  Biso   1.000  H
  H84      1.0000 0.25090  0.39650  0.58320  Biso   1.000  H
  H85      1.0000 0.24910  0.89650  0.58320  Biso   1.000  H
  H86      1.0000 0.25090  0.10350  0.08320  Biso   1.000  H
  H87      1.0000 0.75090  0.39650  0.91680  Biso   1.000  H
  H88      1.0000 0.74910  0.60350  0.41680  Biso   1.000  H
  C57      1.0000 0.85720  0.14460  0.45837  Biso   1.000  C
  C58      1.0000 0.64280  0.85540  0.95837  Biso   1.000  C
  C59      1.0000 0.14280  0.64460  0.04163  Biso   1.000  C
  C60      1.0000 0.35720  0.35540  0.54163  Biso   1.000  C
  C61      1.0000 0.14280  0.85540  0.54163  Biso   1.000  C
  C62      1.0000 0.35720  0.14460  0.04163  Biso   1.000  C
  C63      1.0000 0.85720  0.35540  0.95837  Biso   1.000  C
  C64      1.0000 0.64280  0.64460  0.45837  Biso   1.000  C
  H89      1.0000 0.80550  0.13980  0.47830  Biso   1.000  H
  H90      1.0000 0.69450  0.86020  0.97830  Biso   1.000  H
  H91      1.0000 0.19450  0.63980  0.02170  Biso   1.000  H
  H92      1.0000 0.30550  0.36020  0.52170  Biso   1.000  H
  H93      1.0000 0.19450  0.86020  0.52170  Biso   1.000  H
  H94      1.0000 0.30550  0.13980  0.02170  Biso   1.000  H
  H95      1.0000 0.80550  0.36020  0.97830  Biso   1.000  H
  H96      1.0000 0.69450  0.63980  0.47830  Biso   1.000  H
  C65      1.0000 0.96810  0.17430  0.46519  Biso   1.000  C
  C66      1.0000 0.53190  0.82570  0.96519  Biso   1.000  C
  C67      1.0000 0.03190  0.67430  0.03481  Biso   1.000  C
  C68      1.0000 0.46810  0.32570  0.53481  Biso   1.000  C
  C69      1.0000 0.03190  0.82570  0.53481  Biso   1.000  C
  C70      1.0000 0.46810  0.17430  0.03481  Biso   1.000  C
  C71      1.0000 0.96810  0.32570  0.96519  Biso   1.000  C
  C72      1.0000 0.53190  0.67430  0.46519  Biso   1.000  C
  H97      1.0000 0.99070  0.19250  0.48950  Biso   1.000  H
  H98      1.0000 0.50930  0.80750  0.98950  Biso   1.000  H
  H99      1.0000 0.00930  0.69250  0.01050  Biso   1.000  H
  H100     1.0000 0.49070  0.30750  0.51050  Biso   1.000  H
  H101     1.0000 0.00930  0.80750  0.51050  Biso   1.000  H
  H102     1.0000 0.49070  0.19250  0.01050  Biso   1.000  H
  H103     1.0000 0.99070  0.30750  0.98950  Biso   1.000  H
  H104     1.0000 0.50930  0.69250  0.48950  Biso   1.000  H
  C73      1.0000 0.04310  0.17620  0.43564  Biso   1.000  C
  C74      1.0000 0.45690  0.82380  0.93564  Biso   1.000  C
  C75      1.0000 0.95690  0.67620  0.06436  Biso   1.000  C
  C76      1.0000 0.54310  0.32380  0.56436  Biso   1.000  C
  C77      1.0000 0.95690  0.82380  0.56436  Biso   1.000  C
  C78      1.0000 0.54310  0.17620  0.06436  Biso   1.000  C
  C79      1.0000 0.04310  0.32380  0.93564  Biso   1.000  C
  C80      1.0000 0.45690  0.67620  0.43564  Biso   1.000  C
  H105     1.0000 0.11740  0.19540  0.44040  Biso   1.000  H
  H106     1.0000 0.38260  0.80460  0.94040  Biso   1.000  H
  H107     1.0000 0.88260  0.69540  0.05960  Biso   1.000  H
  H108     1.0000 0.61740  0.30460  0.55960  Biso   1.000  H
  H109     1.0000 0.88260  0.80460  0.55960  Biso   1.000  H
  H110     1.0000 0.61740  0.19540  0.05960  Biso   1.000  H
  H111     1.0000 0.11740  0.30460  0.94040  Biso   1.000  H
  H112     1.0000 0.38260  0.69540  0.44040  Biso   1.000  H
  C81      1.0000 0.53730  0.39770  0.29995  Biso   1.000  C
  C82      1.0000 0.96270  0.60230  0.79995  Biso   1.000  C
  C83      1.0000 0.46270  0.89770  0.20005  Biso   1.000  C
  C84      1.0000 0.03730  0.10230  0.70005  Biso   1.000  C
  C85      1.0000 0.46270  0.60230  0.70005  Biso   1.000  C
  C86      1.0000 0.03730  0.39770  0.20005  Biso   1.000  C
  C87      1.0000 0.53730  0.10230  0.79995  Biso   1.000  C
  C88      1.0000 0.96270  0.89770  0.29995  Biso   1.000  C
  H113     1.0000 0.45930  0.39650  0.30410  Biso   1.000  H
  H114     1.0000 0.04070  0.60350  0.80410  Biso   1.000  H
  H115     1.0000 0.54070  0.89650  0.19590  Biso   1.000  H
  H116     1.0000 0.95930  0.10350  0.69590  Biso   1.000  H
  H117     1.0000 0.54070  0.60350  0.69590  Biso   1.000  H
  H118     1.0000 0.95930  0.39650  0.19590  Biso   1.000  H
  H119     1.0000 0.45930  0.10350  0.80410  Biso   1.000  H
  H120     1.0000 0.04070  0.89650  0.30410  Biso   1.000  H
  C89      1.0000 0.57520  0.42460  0.26524  Biso   1.000  C
  C90      1.0000 0.92480  0.57540  0.76524  Biso   1.000  C
  C91      1.0000 0.42480  0.92460  0.23476  Biso   1.000  C
  C92      1.0000 0.07520  0.07540  0.73476  Biso   1.000  C
  C93      1.0000 0.42480  0.57540  0.73476  Biso   1.000  C
  C94      1.0000 0.07520  0.42460  0.23476  Biso   1.000  C
  C95      1.0000 0.57520  0.07540  0.76524  Biso   1.000  C
  C96      1.0000 0.92480  0.92460  0.26524  Biso   1.000  C
  H121     1.0000 0.52440  0.44190  0.24610  Biso   1.000  H
  H122     1.0000 0.97560  0.55810  0.74610  Biso   1.000  H
  H123     1.0000 0.47560  0.94190  0.25390  Biso   1.000  H
  H124     1.0000 0.02440  0.05810  0.75390  Biso   1.000  H
  H125     1.0000 0.47560  0.55810  0.75390  Biso   1.000  H
  H126     1.0000 0.02440  0.44190  0.25390  Biso   1.000  H
  H127     1.0000 0.52440  0.05810  0.74610  Biso   1.000  H
  H128     1.0000 0.97560  0.94190  0.24610  Biso   1.000  H
  C97      1.0000 0.69160  0.42600  0.25868  Biso   1.000  C
  C98      1.0000 0.80840  0.57400  0.75868  Biso   1.000  C
  C99      1.0000 0.30840  0.92600  0.24132  Biso   1.000  C
  C100     1.0000 0.19160  0.07400  0.74132  Biso   1.000  C
  C101     1.0000 0.30840  0.57400  0.74132  Biso   1.000  C
  C102     1.0000 0.19160  0.42600  0.24132  Biso   1.000  C
  C103     1.0000 0.69160  0.07400  0.75868  Biso   1.000  C
  C104     1.0000 0.80840  0.92600  0.25868  Biso   1.000  C
  H129     1.0000 0.71990  0.44160  0.23480  Biso   1.000  H
  H130     1.0000 0.78010  0.55840  0.73480  Biso   1.000  H
  H131     1.0000 0.28010  0.94160  0.26520  Biso   1.000  H
  H132     1.0000 0.21990  0.05840  0.76520  Biso   1.000  H
  H133     1.0000 0.28010  0.55840  0.76520  Biso   1.000  H
  H134     1.0000 0.21990  0.44160  0.26520  Biso   1.000  H
  H135     1.0000 0.71990  0.05840  0.73480  Biso   1.000  H
  H136     1.0000 0.78010  0.94160  0.23480  Biso   1.000  H
  C105     1.0000 0.76340  0.40430  0.28762  Biso   1.000  C
  C106     1.0000 0.73660  0.59570  0.78762  Biso   1.000  C
  C107     1.0000 0.23660  0.90430  0.21238  Biso   1.000  C
  C108     1.0000 0.26340  0.09570  0.71238  Biso   1.000  C
  C109     1.0000 0.23660  0.59570  0.71238  Biso   1.000  C
  C110     1.0000 0.26340  0.40430  0.21238  Biso   1.000  C
  C111     1.0000 0.76340  0.09570  0.78762  Biso   1.000  C
  C112     1.0000 0.73660  0.90430  0.28762  Biso   1.000  C
  H137     1.0000 0.84150  0.40590  0.28370  Biso   1.000  H
  H138     1.0000 0.65850  0.59410  0.78370  Biso   1.000  H
  H139     1.0000 0.15850  0.90590  0.21630  Biso   1.000  H
  H140     1.0000 0.34150  0.09410  0.71630  Biso   1.000  H
  H141     1.0000 0.15850  0.59410  0.71630  Biso   1.000  H
  H142     1.0000 0.34150  0.40590  0.21630  Biso   1.000  H
  H143     1.0000 0.84150  0.09410  0.78370  Biso   1.000  H
  H144     1.0000 0.65850  0.90590  0.28370  Biso   1.000  H
  C113     1.0000 0.71940  0.37948  0.32353  Biso   1.000  C
  C114     1.0000 0.78060  0.62052  0.82353  Biso   1.000  C
  C115     1.0000 0.28060  0.87948  0.17647  Biso   1.000  C
  C116     1.0000 0.21940  0.12052  0.67647  Biso   1.000  C
  C117     1.0000 0.28060  0.62052  0.67647  Biso   1.000  C
  C118     1.0000 0.21940  0.37948  0.17647  Biso   1.000  C
  C119     1.0000 0.71940  0.12052  0.82353  Biso   1.000  C
  C120     1.0000 0.78060  0.87948  0.32353  Biso   1.000  C
  C121     1.0000 0.77530  0.36734  0.39153  Biso   1.000  C
  C122     1.0000 0.72470  0.63266  0.89153  Biso   1.000  C
  C123     1.0000 0.22470  0.86734  0.10847  Biso   1.000  C
  C124     1.0000 0.27530  0.13266  0.60847  Biso   1.000  C
  C125     1.0000 0.22470  0.63266  0.60847  Biso   1.000  C
  C126     1.0000 0.27530  0.36734  0.10847  Biso   1.000  C
  C127     1.0000 0.77530  0.13266  0.89153  Biso   1.000  C
  C128     1.0000 0.72470  0.86734  0.39153  Biso   1.000  C
  C129     1.0000 0.86840  0.38300  0.41551  Biso   1.000  C
  C130     1.0000 0.63160  0.61700  0.91551  Biso   1.000  C
  C131     1.0000 0.13160  0.88300  0.08449  Biso   1.000  C
  C132     1.0000 0.36840  0.11700  0.58449  Biso   1.000  C
  C133     1.0000 0.13160  0.61700  0.58449  Biso   1.000  C
  C134     1.0000 0.36840  0.38300  0.08449  Biso   1.000  C
  C135     1.0000 0.86840  0.11700  0.91551  Biso   1.000  C
  C136     1.0000 0.63160  0.88300  0.41551  Biso   1.000  C
  H145     1.0000 0.94120  0.38840  0.40550  Biso   1.000  H
  H146     1.0000 0.55880  0.61160  0.90550  Biso   1.000  H
  H147     1.0000 0.05880  0.88840  0.09450  Biso   1.000  H
  H148     1.0000 0.44120  0.11160  0.59450  Biso   1.000  H
  H149     1.0000 0.05880  0.61160  0.59450  Biso   1.000  H
  H150     1.0000 0.44120  0.38840  0.09450  Biso   1.000  H
  H151     1.0000 0.94120  0.11160  0.90550  Biso   1.000  H
  H152     1.0000 0.55880  0.88840  0.40550  Biso   1.000  H
  C137     1.0000 0.85120  0.39010  0.45373  Biso   1.000  C
  C138     1.0000 0.64880  0.60990  0.95373  Biso   1.000  C
  C139     1.0000 0.14880  0.89010  0.04627  Biso   1.000  C
  C140     1.0000 0.35120  0.10990  0.54627  Biso   1.000  C
  C141     1.0000 0.14880  0.60990  0.54627  Biso   1.000  C
  C142     1.0000 0.35120  0.39010  0.04627  Biso   1.000  C
  C143     1.0000 0.85120  0.10990  0.95373  Biso   1.000  C
  C144     1.0000 0.64880  0.89010  0.45373  Biso   1.000  C
  H153     1.0000 0.91250  0.39890  0.47000  Biso   1.000  H
  H154     1.0000 0.58750  0.60110  0.97000  Biso   1.000  H
  H155     1.0000 0.08750  0.89890  0.03000  Biso   1.000  H
  H156     1.0000 0.41250  0.10110  0.53000  Biso   1.000  H
  H157     1.0000 0.08750  0.60110  0.53000  Biso   1.000  H
  H158     1.0000 0.41250  0.39890  0.03000  Biso   1.000  H
  H159     1.0000 0.91250  0.10110  0.97000  Biso   1.000  H
  H160     1.0000 0.58750  0.89890  0.47000  Biso   1.000  H
  C145     1.0000 0.74250  0.38430  0.46819  Biso   1.000  C
  C146     1.0000 0.75750  0.61570  0.96819  Biso   1.000  C
  C147     1.0000 0.25750  0.88430  0.03181  Biso   1.000  C
  C148     1.0000 0.24250  0.11570  0.53181  Biso   1.000  C
  C149     1.0000 0.25750  0.61570  0.53181  Biso   1.000  C
  C150     1.0000 0.24250  0.38430  0.03181  Biso   1.000  C
  C151     1.0000 0.74250  0.11570  0.96819  Biso   1.000  C
  C152     1.0000 0.75750  0.88430  0.46819  Biso   1.000  C
  H161     1.0000 0.72910  0.39040  0.49420  Biso   1.000  H
  H162     1.0000 0.77090  0.60960  0.99420  Biso   1.000  H
  H163     1.0000 0.27090  0.89040  0.00580  Biso   1.000  H
  H164     1.0000 0.22910  0.10960  0.50580  Biso   1.000  H
  H165     1.0000 0.27090  0.60960  0.50580  Biso   1.000  H
  H166     1.0000 0.22910  0.39040  0.00580  Biso   1.000  H
  H167     1.0000 0.72910  0.10960  0.99420  Biso   1.000  H
  H168     1.0000 0.77090  0.89040  0.49420  Biso   1.000  H
  C153     1.0000 0.65500  0.36910  0.44333  Biso   1.000  C
  C154     1.0000 0.84500  0.63090  0.94333  Biso   1.000  C
  C155     1.0000 0.34500  0.86910  0.05667  Biso   1.000  C
  C156     1.0000 0.15500  0.13090  0.55667  Biso   1.000  C
  C157     1.0000 0.34500  0.63090  0.55667  Biso   1.000  C
  C158     1.0000 0.15500  0.36910  0.05667  Biso   1.000  C
  C159     1.0000 0.65500  0.13090  0.94333  Biso   1.000  C
  C160     1.0000 0.84500  0.86910  0.44333  Biso   1.000  C
  H169     1.0000 0.58150  0.36650  0.45290  Biso   1.000  H
  H170     1.0000 0.91850  0.63350  0.95290  Biso   1.000  H
  H171     1.0000 0.41850  0.86650  0.04710  Biso   1.000  H
  H172     1.0000 0.08150  0.13350  0.54710  Biso   1.000  H
  H173     1.0000 0.41850  0.63350  0.54710  Biso   1.000  H
  H174     1.0000 0.08150  0.36650  0.04710  Biso   1.000  H
  H175     1.0000 0.58150  0.13350  0.95290  Biso   1.000  H
  H176     1.0000 0.91850  0.86650  0.45290  Biso   1.000  H
  C161     1.0000 0.35942  0.07139  0.33350  Biso   1.000  C
  C162     1.0000 0.14058  0.92861  0.83350  Biso   1.000  C
  C163     1.0000 0.64058  0.57139  0.16650  Biso   1.000  C
  C164     1.0000 0.85942  0.42861  0.66650  Biso   1.000  C
  C165     1.0000 0.64058  0.92861  0.66650  Biso   1.000  C
  C166     1.0000 0.85942  0.07139  0.16650  Biso   1.000  C
  C167     1.0000 0.35942  0.42861  0.83350  Biso   1.000  C
  C168     1.0000 0.14058  0.57139  0.33350  Biso   1.000  C
  C169     1.0000 0.43410  0.15196  0.34047  Biso   1.000  C
  C170     1.0000 0.06590  0.84804  0.84047  Biso   1.000  C
  C171     1.0000 0.56590  0.65196  0.15953  Biso   1.000  C
  C172     1.0000 0.93410  0.34804  0.65953  Biso   1.000  C
  C173     1.0000 0.56590  0.84804  0.65953  Biso   1.000  C
  C174     1.0000 0.93410  0.15196  0.15953  Biso   1.000  C
  C175     1.0000 0.43410  0.34804  0.84047  Biso   1.000  C
  C176     1.0000 0.06590  0.65196  0.34047  Biso   1.000  C
  C177     1.0000 0.53097  0.08805  0.34328  Biso   1.000  C
  C178     1.0000 0.96903  0.91195  0.84328  Biso   1.000  C
  C179     1.0000 0.46903  0.58805  0.15672  Biso   1.000  C
  C180     1.0000 0.03097  0.41195  0.65672  Biso   1.000  C
  C181     1.0000 0.46903  0.91195  0.65672  Biso   1.000  C
  C182     1.0000 0.03097  0.08805  0.15672  Biso   1.000  C
  C183     1.0000 0.53097  0.41195  0.84328  Biso   1.000  C
  C184     1.0000 0.96903  0.58805  0.34328  Biso   1.000  C
  C185     1.0000 0.45571  0.00500  0.33593  Biso   1.000  C
  C186     1.0000 0.04429  0.99500  0.83593  Biso   1.000  C
  C187     1.0000 0.54429  0.50500  0.16407  Biso   1.000  C
  C188     1.0000 0.95571  0.49500  0.66407  Biso   1.000  C
  C189     1.0000 0.54429  0.99500  0.66407  Biso   1.000  C
  C190     1.0000 0.95571  0.00500  0.16407  Biso   1.000  C
  C191     1.0000 0.45571  0.49500  0.83593  Biso   1.000  C
  C192     1.0000 0.04429  0.50500  0.33593  Biso   1.000  C
  C193     1.0000 0.23958  0.01500  0.41590  Biso   1.000  C
  C194     1.0000 0.26042  0.98500  0.91590  Biso   1.000  C
  C195     1.0000 0.76042  0.51500  0.08410  Biso   1.000  C
  C196     1.0000 0.73958  0.48500  0.58410  Biso   1.000  C
  C197     1.0000 0.76042  0.98500  0.58410  Biso   1.000  C
  C198     1.0000 0.73958  0.01500  0.08410  Biso   1.000  C
  C199     1.0000 0.23958  0.48500  0.91590  Biso   1.000  C
  C200     1.0000 0.26042  0.51500  0.41590  Biso   1.000  C
  C201     1.0000 0.16128  0.93710  0.40806  Biso   1.000  C
  C202     1.0000 0.33872  0.06290  0.90806  Biso   1.000  C
  C203     1.0000 0.83872  0.43710  0.09194  Biso   1.000  C
  C204     1.0000 0.66128  0.56290  0.59194  Biso   1.000  C
  C205     1.0000 0.83872  0.06290  0.59194  Biso   1.000  C
  C206     1.0000 0.66128  0.93710  0.09194  Biso   1.000  C
  C207     1.0000 0.16128  0.56290  0.90806  Biso   1.000  C
  C208     1.0000 0.33872  0.43710  0.40806  Biso   1.000  C
  C209     1.0000 0.21830  0.87734  0.43706  Biso   1.000  C
  C210     1.0000 0.28170  0.12266  0.93706  Biso   1.000  C
  C211     1.0000 0.78170  0.37734  0.06294  Biso   1.000  C
  C212     1.0000 0.71830  0.62266  0.56294  Biso   1.000  C
  C213     1.0000 0.78170  0.12266  0.56294  Biso   1.000  C
  C214     1.0000 0.71830  0.87734  0.06294  Biso   1.000  C
  C215     1.0000 0.21830  0.62266  0.93706  Biso   1.000  C
  C216     1.0000 0.28170  0.37734  0.43706  Biso   1.000  C
  C217     1.0000 0.29870  0.95680  0.44402  Biso   1.000  C
  C218     1.0000 0.20130  0.04320  0.94402  Biso   1.000  C
  C219     1.0000 0.70130  0.45680  0.05598  Biso   1.000  C
  C220     1.0000 0.79870  0.54320  0.55598  Biso   1.000  C
  C221     1.0000 0.70130  0.04320  0.55598  Biso   1.000  C
  C222     1.0000 0.79870  0.95680  0.05598  Biso   1.000  C
  C223     1.0000 0.29870  0.54320  0.94402  Biso   1.000  C
  C224     1.0000 0.20130  0.45680  0.44402  Biso   1.000  C
  O81      1.0000 0.55370  0.10630  0.46500  Biso   1.000  O
  O82      1.0000 0.94630  0.89370  0.96500  Biso   1.000  O
  O83      1.0000 0.44630  0.60630  0.03500  Biso   1.000  O
  O84      1.0000 0.05370  0.39370  0.53500  Biso   1.000  O
  O85      1.0000 0.44630  0.89370  0.53500  Biso   1.000  O
  O86      1.0000 0.05370  0.10630  0.03500  Biso   1.000  O
  O87      1.0000 0.55370  0.39370  0.96500  Biso   1.000  O
  O88      1.0000 0.94630  0.60630  0.46500  Biso   1.000  O
  H177     1.0000 0.58900  0.10800  0.48930  Biso   1.000  H
  H178     1.0000 0.91100  0.89200  0.98930  Biso   1.000  H
  H179     1.0000 0.41100  0.60800  0.01070  Biso   1.000  H
  H180     1.0000 0.08900  0.39200  0.51070  Biso   1.000  H
  H181     1.0000 0.41100  0.89200  0.51070  Biso   1.000  H
  H182     1.0000 0.08900  0.10800  0.01070  Biso   1.000  H
  H183     1.0000 0.58900  0.39200  0.98930  Biso   1.000  H
  H184     1.0000 0.91100  0.60800  0.48930  Biso   1.000  H
  H185     1.0000 0.50200  0.07200  0.46390  Biso   1.000  H
  H186     1.0000 0.99800  0.92800  0.96390  Biso   1.000  H
  H187     1.0000 0.49800  0.57200  0.03610  Biso   1.000  H
  H188     1.0000 0.00200  0.42800  0.53610  Biso   1.000  H
  H189     1.0000 0.49800  0.92800  0.53610  Biso   1.000  H
  H190     1.0000 0.00200  0.07200  0.03610  Biso   1.000  H
  H191     1.0000 0.50200  0.42800  0.96390  Biso   1.000  H
  H192     1.0000 0.99800  0.57200  0.46390  Biso   1.000  H
