data_image0
_cell_length_a       13.0484
_cell_length_b       13.1027
_cell_length_c       20.627
_cell_angle_alpha    79.775
_cell_angle_beta     80.706
_cell_angle_gamma    63.874

_symmetry_space_group_name_H-M    "P 1"
_symmetry_int_tables_number       1

loop_
  _symmetry_equiv_pos_as_xyz
  'x, y, z'

loop_
  _atom_site_label
  _atom_site_occupancy
  _atom_site_fract_x
  _atom_site_fract_y
  _atom_site_fract_z
  _atom_site_thermal_displace_type
  _atom_site_B_iso_or_equiv
  _atom_site_type_symbol
  Mo1      1.0000 0.02218  0.00632  0.73217  Biso   1.000  Mo
  Mo2      1.0000 0.97782  0.99368  0.26783  Biso   1.000  Mo
  Mo3      1.0000 0.80695  0.40623  0.58855  Biso   1.000  Mo
  Mo4      1.0000 0.19305  0.59377  0.41145  Biso   1.000  Mo
  Mo5      1.0000 0.50114  0.20490  0.76172  Biso   1.000  Mo
  Mo6      1.0000 0.49886  0.79510  0.23828  Biso   1.000  Mo
  Mo7      1.0000 0.68633  0.39590  0.88456  Biso   1.000  Mo
  Mo8      1.0000 0.31367  0.60410  0.11544  Biso   1.000  Mo
  Mo9      1.0000 0.81235  0.12846  0.59373  Biso   1.000  Mo
  Mo10     1.0000 0.18765  0.87154  0.40627  Biso   1.000  Mo
  Mo11     1.0000 0.69209  0.09557  0.89061  Biso   1.000  Mo
  Mo12     1.0000 0.30791  0.90443  0.10939  Biso   1.000  Mo
  Mo13     1.0000 0.01278  0.28829  0.72735  Biso   1.000  Mo
  Mo14     1.0000 0.98722  0.71171  0.27265  Biso   1.000  Mo
  Mo15     1.0000 0.49197  0.50900  0.75657  Biso   1.000  Mo
  Mo16     1.0000 0.50803  0.49100  0.24343  Biso   1.000  Mo
  P1       1.0000 0.75358  0.25453  0.74241  Biso   1.000  P
  P2       1.0000 0.24642  0.74547  0.25759  Biso   1.000  P
  V1       1.0000 0.95221  0.14138  0.86720  Biso   1.000  V
  V2       1.0000 0.04779  0.85862  0.13280  Biso   1.000  V
  V3       1.0000 0.02089  0.17433  0.60508  Biso   1.000  V
  V4       1.0000 0.97911  0.82567  0.39492  Biso   1.000  V
  V5       1.0000 0.75566  0.97598  0.75101  Biso   1.000  V
  V6       1.0000 0.24434  0.02402  0.24899  Biso   1.000  V
  V7       1.0000 0.73790  0.53639  0.73974  Biso   1.000  V
  V8       1.0000 0.26210  0.46361  0.26026  Biso   1.000  V
  V9       1.0000 0.48431  0.33439  0.87803  Biso   1.000  V
  V10      1.0000 0.51569  0.66561  0.12197  Biso   1.000  V
  V11      1.0000 0.56638  0.36371  0.60979  Biso   1.000  V
  V12      1.0000 0.43362  0.63629  0.39021  Biso   1.000  V
  O1       1.0000 0.01580  0.09890  0.93330  Biso   1.000  O
  O2       1.0000 0.98420  0.90110  0.06670  Biso   1.000  O
  O3       1.0000 0.04020  0.21970  0.81090  Biso   1.000  O
  O4       1.0000 0.95980  0.78030  0.18910  Biso   1.000  O
  O5       1.0000 0.83140  0.28900  0.88420  Biso   1.000  O
  O6       1.0000 0.16860  0.71100  0.11580  Biso   1.000  O
  O7       1.0000 0.04590  0.01550  0.81450  Biso   1.000  O
  O8       1.0000 0.95410  0.98450  0.18550  Biso   1.000  O
  O9       1.0000 0.83370  0.08480  0.88910  Biso   1.000  O
  O10      1.0000 0.16630  0.91520  0.11090  Biso   1.000  O
  O11      1.0000 0.65640  0.04720  0.96950  Biso   1.000  O
  O12      1.0000 0.34360  0.95280  0.03050  Biso   1.000  O
  O13      1.0000 0.13760  0.88690  0.71240  Biso   1.000  O
  O14      1.0000 0.86240  0.11310  0.28760  Biso   1.000  O
  O15      1.0000 0.63580  0.26550  0.90360  Biso   1.000  O
  O16      1.0000 0.36420  0.73450  0.09640  Biso   1.000  O
  O17      1.0000 0.08020  0.13010  0.69230  Biso   1.000  O
  O18      1.0000 0.91980  0.86990  0.30770  Biso   1.000  O
  O19      1.0000 0.72630  0.97470  0.84670  Biso   1.000  O
  O20      1.0000 0.27370  0.02530  0.15330  Biso   1.000  O
  O21      1.0000 0.90870  0.96270  0.75420  Biso   1.000  O
  O22      1.0000 0.09130  0.03730  0.24580  Biso   1.000  O
  O23      1.0000 0.13020  0.14170  0.54630  Biso   1.000  O
  O24      1.0000 0.86980  0.85830  0.45370  Biso   1.000  O
  O25      1.0000 0.52900  0.17680  0.86030  Biso   1.000  O
  O26      1.0000 0.47100  0.82320  0.13970  Biso   1.000  O
  O27      1.0000 0.78050  0.84860  0.74190  Biso   1.000  O
  O28      1.0000 0.21950  0.15140  0.25810  Biso   1.000  O
  O29      1.0000 0.76550  0.04370  0.65910  Biso   1.000  O
  O30      1.0000 0.23450  0.95630  0.34090  Biso   1.000  O
  O31      1.0000 0.58830  0.05550  0.75280  Biso   1.000  O
  O32      1.0000 0.41170  0.94450  0.24720  Biso   1.000  O
  O33      1.0000 0.86270  0.04540  0.53230  Biso   1.000  O
  O34      1.0000 0.13730  0.95460  0.46770  Biso   1.000  O
  O35      1.0000 0.36510  0.21620  0.77010  Biso   1.000  O
  O36      1.0000 0.63490  0.78380  0.22990  Biso   1.000  O
  O37      1.0000 0.52050  0.26560  0.67690  Biso   1.000  O
  O38      1.0000 0.47950  0.73440  0.32310  Biso   1.000  O
  O39      1.0000 0.67330  0.22960  0.56710  Biso   1.000  O
  O40      1.0000 0.32670  0.77040  0.43290  Biso   1.000  O
  O41      1.0000 0.46500  0.41630  0.56320  Biso   1.000  O
  O42      1.0000 0.53500  0.58370  0.43680  Biso   1.000  O
  O43      1.0000 0.46050  0.36450  0.78650  Biso   1.000  O
  O44      1.0000 0.53950  0.63550  0.21350  Biso   1.000  O
  O45      1.0000 0.88050  0.24420  0.55840  Biso   1.000  O
  O46      1.0000 0.11950  0.75580  0.44160  Biso   1.000  O
  O47      1.0000 0.51460  0.46930  0.67360  Biso   1.000  O
  O48      1.0000 0.48540  0.53070  0.32640  Biso   1.000  O
  O49      1.0000 0.66780  0.43280  0.56470  Biso   1.000  O
  O50      1.0000 0.33220  0.56720  0.43530  Biso   1.000  O
  O51      1.0000 0.35590  0.60770  0.76220  Biso   1.000  O
  O52      1.0000 0.64410  0.39230  0.23780  Biso   1.000  O
  O53      1.0000 0.37400  0.36770  0.93550  Biso   1.000  O
  O54      1.0000 0.62600  0.63230  0.06450  Biso   1.000  O
  O55      1.0000 0.85760  0.47260  0.52160  Biso   1.000  O
  O56      1.0000 0.14240  0.52740  0.47840  Biso   1.000  O
  O57      1.0000 0.57060  0.59550  0.74190  Biso   1.000  O
  O58      1.0000 0.42940  0.40450  0.25810  Biso   1.000  O
  O59      1.0000 0.75710  0.50290  0.64960  Biso   1.000  O
  O60      1.0000 0.24290  0.49710  0.35040  Biso   1.000  O
  O61      1.0000 0.52050  0.46730  0.85510  Biso   1.000  O
  O62      1.0000 0.47950  0.53270  0.14490  Biso   1.000  O
  O63      1.0000 0.95420  0.32110  0.63510  Biso   1.000  O
  O64      1.0000 0.04580  0.67890  0.36490  Biso   1.000  O
  O65      1.0000 0.75580  0.65240  0.72840  Biso   1.000  O
  O66      1.0000 0.24420  0.34760  0.27160  Biso   1.000  O
  O67      1.0000 0.71030  0.51570  0.83610  Biso   1.000  O
  O68      1.0000 0.28970  0.48430  0.16390  Biso   1.000  O
  O69      1.0000 0.89430  0.42080  0.74530  Biso   1.000  O
  O70      1.0000 0.10570  0.57920  0.25470  Biso   1.000  O
  O71      1.0000 0.65470  0.43820  0.96140  Biso   1.000  O
  O72      1.0000 0.34530  0.56180  0.03860  Biso   1.000  O
  O73      1.0000 0.12610  0.32200  0.70320  Biso   1.000  O
  O74      1.0000 0.87390  0.67800  0.29680  Biso   1.000  O
  O75      1.0000 0.96030  0.06700  0.64020  Biso   1.000  O
  O76      1.0000 0.03970  0.93300  0.35980  Biso   1.000  O
  O77      1.0000 0.69690  0.17390  0.77410  Biso   1.000  O
  O78      1.0000 0.30310  0.82610  0.22590  Biso   1.000  O
  O79      1.0000 0.74600  0.27590  0.66730  Biso   1.000  O
  O80      1.0000 0.25400  0.72410  0.33270  Biso   1.000  O
  O81      1.0000 0.88010  0.19820  0.75720  Biso   1.000  O
  O82      1.0000 0.11990  0.80180  0.24280  Biso   1.000  O
  O83      1.0000 0.69270  0.36930  0.77020  Biso   1.000  O
  O84      1.0000 0.30730  0.63070  0.22980  Biso   1.000  O
  Cu1      1.0000 0.23444  0.08059  0.47084  Biso   1.000  Cu
  Cu2      1.0000 0.76556  0.91941  0.52916  Biso   1.000  Cu
  Cu3      1.0000 0.72361  0.56746  0.98775  Biso   1.000  Cu
  Cu4      1.0000 0.27639  0.43254  0.01225  Biso   1.000  Cu
  N1       1.0000 0.13160  0.20680  0.40670  Biso   1.000  N
  N2       1.0000 0.86840  0.79320  0.59330  Biso   1.000  N
  N3       1.0000 0.33160  0.93640  0.52430  Biso   1.000  N
  N4       1.0000 0.66840  0.06360  0.47570  Biso   1.000  N
  N5       1.0000 0.38190  0.04570  0.41240  Biso   1.000  N
  N6       1.0000 0.61810  0.95430  0.58760  Biso   1.000  N
  N7       1.0000 0.61600  0.69240  0.92580  Biso   1.000  N
  N8       1.0000 0.38400  0.30760  0.07420  Biso   1.000  N
  N9       1.0000 0.82440  0.42690  0.04250  Biso   1.000  N
  N10      1.0000 0.17560  0.57310  0.95750  Biso   1.000  N
  N11      1.0000 0.87100  0.53110  0.92570  Biso   1.000  N
  N12      1.0000 0.12900  0.46890  0.07430  Biso   1.000  N
  N13      1.0000 0.40510  0.89470  0.89350  Biso   1.000  N
  N14      1.0000 0.59490  0.10530  0.10650  Biso   1.000  N
  N15      1.0000 0.91320  0.40190  0.37950  Biso   1.000  N
  N16      1.0000 0.08680  0.59810  0.62050  Biso   1.000  N
  C1       1.0000 0.10320  0.32260  0.42410  Biso   1.000  C
  C2       1.0000 0.89680  0.67740  0.57590  Biso   1.000  C
  H1       1.0000 0.17330  0.33320  0.41920  Biso   1.000  H
  H2       1.0000 0.82670  0.66680  0.58080  Biso   1.000  H
  H3       1.0000 0.07330  0.32600  0.47030  Biso   1.000  H
  H4       1.0000 0.92670  0.67400  0.52970  Biso   1.000  H
  C3       1.0000 0.01710  0.42000  0.38260  Biso   1.000  C
  C4       1.0000 0.98290  0.58000  0.61740  Biso   1.000  C
  H5       1.0000 0.99450  0.49080  0.40120  Biso   1.000  H
  H6       1.0000 0.00550  0.50920  0.59880  Biso   1.000  H
  H7       1.0000 0.05290  0.42780  0.33810  Biso   1.000  H
  H8       1.0000 0.94710  0.57220  0.66190  Biso   1.000  H
  C5       1.0000 0.94570  0.28980  0.35790  Biso   1.000  C
  C6       1.0000 0.05430  0.71020  0.64210  Biso   1.000  C
  H9       1.0000 0.98470  0.28780  0.31360  Biso   1.000  H
  H10      1.0000 0.01530  0.71220  0.68640  Biso   1.000  H
  H11      1.0000 0.87690  0.27970  0.35610  Biso   1.000  H
  H12      1.0000 0.12310  0.72030  0.64390  Biso   1.000  H
  C7       1.0000 0.02300  0.19240  0.40370  Biso   1.000  C
  C8       1.0000 0.97700  0.80760  0.59630  Biso   1.000  C
  H13      1.0000 0.04270  0.12010  0.38780  Biso   1.000  H
  H14      1.0000 0.95730  0.87990  0.61220  Biso   1.000  H
  H15      1.0000 0.98330  0.19170  0.44770  Biso   1.000  H
  H16      1.0000 0.01670  0.80830  0.55230  Biso   1.000  H
  C9       1.0000 0.30010  0.88350  0.57910  Biso   1.000  C
  C10      1.0000 0.69990  0.11650  0.42090  Biso   1.000  C
  H17      1.0000 0.22580  0.91890  0.59880  Biso   1.000  H
  H18      1.0000 0.77420  0.08110  0.40120  Biso   1.000  H
  C11      1.0000 0.37350  0.77720  0.60870  Biso   1.000  C
  C12      1.0000 0.62650  0.22280  0.39130  Biso   1.000  C
  H19      1.0000 0.34840  0.74260  0.64730  Biso   1.000  H
  H20      1.0000 0.65160  0.25740  0.35270  Biso   1.000  H
  C13      1.0000 0.48440  0.72380  0.57970  Biso   1.000  C
  C14      1.0000 0.51560  0.27620  0.42030  Biso   1.000  C
  H21      1.0000 0.53450  0.65240  0.59840  Biso   1.000  H
  H22      1.0000 0.46550  0.34760  0.40160  Biso   1.000  H
  C15      1.0000 0.52060  0.77890  0.52130  Biso   1.000  C
  C16      1.0000 0.47940  0.22110  0.47870  Biso   1.000  C
  C17      1.0000 0.63360  0.73160  0.48650  Biso   1.000  C
  C18      1.0000 0.36640  0.26840  0.51350  Biso   1.000  C
  H23      1.0000 0.68760  0.65980  0.50200  Biso   1.000  H
  H24      1.0000 0.31240  0.34020  0.49800  Biso   1.000  H
  C19      1.0000 0.66120  0.79030  0.43210  Biso   1.000  C
  C20      1.0000 0.33880  0.20970  0.56790  Biso   1.000  C
  H25      1.0000 0.73560  0.76010  0.41170  Biso   1.000  H
  H26      1.0000 0.26440  0.23990  0.58830  Biso   1.000  H
  C21      1.0000 0.43950  0.88590  0.49520  Biso   1.000  C
  C22      1.0000 0.56050  0.11410  0.50480  Biso   1.000  C
  C23      1.0000 0.46690  0.94450  0.43560  Biso   1.000  C
  C24      1.0000 0.53310  0.05550  0.56440  Biso   1.000  C
  C25      1.0000 0.57990  0.89790  0.40440  Biso   1.000  C
  C26      1.0000 0.42010  0.10210  0.59560  Biso   1.000  C
  C27      1.0000 0.60390  0.96490  0.34620  Biso   1.000  C
  C28      1.0000 0.39610  0.03510  0.65380  Biso   1.000  C
  H27      1.0000 0.67690  0.93850  0.32380  Biso   1.000  H
  H28      1.0000 0.32310  0.06150  0.67620  Biso   1.000  H
  C29      1.0000 0.52190  0.06490  0.32400  Biso   1.000  C
  C30      1.0000 0.47810  0.93510  0.67600  Biso   1.000  C
  H29      1.0000 0.53840  0.10870  0.28660  Biso   1.000  H
  H30      1.0000 0.46160  0.89130  0.71340  Biso   1.000  H
  C31      1.0000 0.40830  0.10510  0.35770  Biso   1.000  C
  C32      1.0000 0.59170  0.89490  0.64230  Biso   1.000  C
  H31      1.0000 0.35160  0.17410  0.34110  Biso   1.000  H
  H32      1.0000 0.64840  0.82590  0.65890  Biso   1.000  H
  C33      1.0000 0.60260  0.80760  0.93280  Biso   1.000  C
  C34      1.0000 0.39740  0.19240  0.06720  Biso   1.000  C
  H33      1.0000 0.67690  0.80980  0.92310  Biso   1.000  H
  H34      1.0000 0.32310  0.19020  0.07690  Biso   1.000  H
  H35      1.0000 0.57570  0.82240  0.97830  Biso   1.000  H
  H36      1.0000 0.42430  0.17760  0.02170  Biso   1.000  H
  C35      1.0000 0.51730  0.90380  0.88620  Biso   1.000  C
  C36      1.0000 0.48270  0.09620  0.11380  Biso   1.000  C
  H37      1.0000 0.50420  0.97800  0.89690  Biso   1.000  H
  H38      1.0000 0.49580  0.02200  0.10310  Biso   1.000  H
  H39      1.0000 0.55050  0.89770  0.84070  Biso   1.000  H
  H40      1.0000 0.44950  0.10230  0.15930  Biso   1.000  H
  C37      1.0000 0.42490  0.77760  0.88190  Biso   1.000  C
  C38      1.0000 0.57510  0.22240  0.11810  Biso   1.000  C
  H41      1.0000 0.46200  0.76280  0.83770  Biso   1.000  H
  H42      1.0000 0.53800  0.23720  0.16230  Biso   1.000  H
  H43      1.0000 0.35220  0.77250  0.88560  Biso   1.000  H
  H44      1.0000 0.64780  0.22750  0.11440  Biso   1.000  H
  C39      1.0000 0.49910  0.69110  0.93200  Biso   1.000  C
  C40      1.0000 0.50090  0.30890  0.06800  Biso   1.000  C
  H45      1.0000 0.50860  0.61550  0.92620  Biso   1.000  H
  H46      1.0000 0.49140  0.38450  0.07380  Biso   1.000  H
  H47      1.0000 0.46190  0.70720  0.97600  Biso   1.000  H
  H48      1.0000 0.53810  0.29280  0.02400  Biso   1.000  H
  C41      1.0000 0.79940  0.37530  0.09890  Biso   1.000  C
  C42      1.0000 0.20060  0.62470  0.90110  Biso   1.000  C
  H49      1.0000 0.72560  0.40990  0.11950  Biso   1.000  H
  H50      1.0000 0.27440  0.59010  0.88050  Biso   1.000  H
  C43      1.0000 0.87490  0.27270  0.13020  Biso   1.000  C
  C44      1.0000 0.12510  0.72730  0.86980  Biso   1.000  C
  H51      1.0000 0.85280  0.24120  0.17100  Biso   1.000  H
  H52      1.0000 0.14720  0.75880  0.82900  Biso   1.000  H
  C45      1.0000 0.98330  0.21880  0.09920  Biso   1.000  C
  C46      1.0000 0.01670  0.78120  0.90080  Biso   1.000  C
  H53      1.0000 0.03500  0.14860  0.11820  Biso   1.000  H
  H54      1.0000 0.96500  0.85140  0.88180  Biso   1.000  H
  C47      1.0000 0.93170  0.37470  0.01160  Biso   1.000  C
  C48      1.0000 0.06830  0.62530  0.98840  Biso   1.000  C
  C49      1.0000 0.01500  0.27130  0.03850  Biso   1.000  C
  C50      1.0000 0.98500  0.72870  0.96150  Biso   1.000  C
  C51      1.0000 0.12520  0.22430  0.00130  Biso   1.000  C
  C52      1.0000 0.87480  0.77570  0.99870  Biso   1.000  C
  H55      1.0000 0.18050  0.15360  0.01710  Biso   1.000  H
  H56      1.0000 0.81950  0.84640  0.98290  Biso   1.000  H
  C53      1.0000 0.14970  0.27950  0.94520  Biso   1.000  C
  C54      1.0000 0.85030  0.72050  0.05480  Biso   1.000  C
  H57      1.0000 0.22380  0.24890  0.92440  Biso   1.000  H
  H58      1.0000 0.77620  0.75110  0.07560  Biso   1.000  H
  C55      1.0000 0.95690  0.43250  0.94950  Biso   1.000  C
  C56      1.0000 0.04310  0.56750  0.05050  Biso   1.000  C
  C57      1.0000 0.06830  0.38240  0.91570  Biso   1.000  C
  C58      1.0000 0.93170  0.61760  0.08430  Biso   1.000  C
  C59      1.0000 0.08620  0.44570  0.85550  Biso   1.000  C
  C60      1.0000 0.91380  0.55430  0.14450  Biso   1.000  C
  H59      1.0000 0.15820  0.41960  0.83190  Biso   1.000  H
  H60      1.0000 0.84180  0.58040  0.16810  Biso   1.000  H
  C61      1.0000 0.00090  0.54300  0.83170  Biso   1.000  C
  C62      1.0000 0.99910  0.45700  0.16830  Biso   1.000  C
  H61      1.0000 0.01300  0.58140  0.79080  Biso   1.000  H
  H62      1.0000 0.98700  0.41860  0.20920  Biso   1.000  H
  C63      1.0000 0.89240  0.58700  0.86900  Biso   1.000  C
  C64      1.0000 0.10760  0.41300  0.13100  Biso   1.000  C
  H63      1.0000 0.83520  0.65650  0.85330  Biso   1.000  H
  H64      1.0000 0.16480  0.34350  0.14670  Biso   1.000  H
  O85      1.0000 0.80290  0.12790  0.03890  Biso   1.000  O
  O86      1.0000 0.19710  0.87210  0.96110  Biso   1.000  O
  O87      1.0000 0.76000  0.53640  0.29220  Biso   1.000  O
  O88      1.0000 0.24000  0.46360  0.70780  Biso   1.000  O
  O89      1.0000 0.72430  0.37080  0.43360  Biso   1.000  O
  O90      1.0000 0.27570  0.62920  0.56640  Biso   1.000  O
  O91      1.0000 0.27310  0.05070  0.80610  Biso   1.000  O
  O92      1.0000 0.72690  0.94930  0.19390  Biso   1.000  O
