data_image0
_cell_length_a       15.5198
_cell_length_b       18.9902
_cell_length_c       17.4359
_cell_angle_alpha    90
_cell_angle_beta     112.514
_cell_angle_gamma    90

_symmetry_space_group_name_H-M    "P 1"
_symmetry_int_tables_number       1

loop_
  _symmetry_equiv_pos_as_xyz
  'x, y, z'

loop_
  _atom_site_label
  _atom_site_occupancy
  _atom_site_fract_x
  _atom_site_fract_y
  _atom_site_fract_z
  _atom_site_thermal_displace_type
  _atom_site_B_iso_or_equiv
  _atom_site_type_symbol
  Cu1      1.0000 0.70358  0.02402  0.98213  Biso   1.000  Cu
  Cu2      1.0000 0.29642  0.52402  0.51787  Biso   1.000  Cu
  Cu3      1.0000 0.29642  0.97598  0.01787  Biso   1.000  Cu
  Cu4      1.0000 0.70358  0.47598  0.48213  Biso   1.000  Cu
  Cu5      1.0000 0.70580  0.96254  0.48235  Biso   1.000  Cu
  Cu6      1.0000 0.29420  0.46254  0.01765  Biso   1.000  Cu
  Cu7      1.0000 0.29420  0.03746  0.51765  Biso   1.000  Cu
  Cu8      1.0000 0.70580  0.53746  0.98235  Biso   1.000  Cu
  C1       1.0000 0.84610  0.83508  0.58425  Biso   1.000  C
  C2       1.0000 0.15390  0.33508  0.91575  Biso   1.000  C
  C3       1.0000 0.15390  0.16492  0.41575  Biso   1.000  C
  C4       1.0000 0.84610  0.66492  0.08425  Biso   1.000  C
  H1       1.0000 0.79440  0.80570  0.57000  Biso   1.000  H
  H2       1.0000 0.20560  0.30570  0.93000  Biso   1.000  H
  H3       1.0000 0.20560  0.19430  0.43000  Biso   1.000  H
  H4       1.0000 0.79440  0.69430  0.07000  Biso   1.000  H
  C5       1.0000 0.93390  0.80762  0.63303  Biso   1.000  C
  C6       1.0000 0.06610  0.30762  0.86697  Biso   1.000  C
  C7       1.0000 0.06610  0.19238  0.36697  Biso   1.000  C
  C8       1.0000 0.93390  0.69238  0.13303  Biso   1.000  C
  H5       1.0000 0.93970  0.76100  0.65050  Biso   1.000  H
  H6       1.0000 0.06030  0.26100  0.84950  Biso   1.000  H
  H7       1.0000 0.06030  0.23900  0.34950  Biso   1.000  H
  H8       1.0000 0.93970  0.73900  0.15050  Biso   1.000  H
  C9       1.0000 0.01060  0.84963  0.65468  Biso   1.000  C
  C10      1.0000 0.98940  0.34963  0.84532  Biso   1.000  C
  C11      1.0000 0.98940  0.15037  0.34532  Biso   1.000  C
  C12      1.0000 0.01060  0.65037  0.15468  Biso   1.000  C
  H9       1.0000 0.06920  0.83190  0.68660  Biso   1.000  H
  H10      1.0000 0.93080  0.33190  0.81340  Biso   1.000  H
  H11      1.0000 0.93080  0.16810  0.31340  Biso   1.000  H
  H12      1.0000 0.06920  0.66810  0.18660  Biso   1.000  H
  C13      1.0000 0.00011  0.92023  0.62829  Biso   1.000  C
  C14      1.0000 0.99989  0.42023  0.87171  Biso   1.000  C
  C15      1.0000 0.99989  0.07977  0.37171  Biso   1.000  C
  C16      1.0000 0.00011  0.57977  0.12829  Biso   1.000  C
  C17      1.0000 0.90949  0.94372  0.57898  Biso   1.000  C
  C18      1.0000 0.09051  0.44372  0.92102  Biso   1.000  C
  C19      1.0000 0.09051  0.05628  0.42102  Biso   1.000  C
  C20      1.0000 0.90949  0.55628  0.07898  Biso   1.000  C
  C21      1.0000 0.07710  0.96863  0.64714  Biso   1.000  C
  C22      1.0000 0.92290  0.46863  0.85286  Biso   1.000  C
  C23      1.0000 0.92290  0.03137  0.35286  Biso   1.000  C
  C24      1.0000 0.07710  0.53137  0.14714  Biso   1.000  C
  H13      1.0000 0.13710  0.95370  0.67980  Biso   1.000  H
  H14      1.0000 0.86290  0.45370  0.82020  Biso   1.000  H
  H15      1.0000 0.86290  0.04630  0.32020  Biso   1.000  H
  H16      1.0000 0.13710  0.54630  0.17980  Biso   1.000  H
  C25      1.0000 0.06360  0.03468  0.61838  Biso   1.000  C
  C26      1.0000 0.93640  0.53468  0.88162  Biso   1.000  C
  C27      1.0000 0.93640  0.96532  0.38162  Biso   1.000  C
  C28      1.0000 0.06360  0.46532  0.11838  Biso   1.000  C
  H17      1.0000 0.11460  0.06450  0.63060  Biso   1.000  H
  H18      1.0000 0.88540  0.56450  0.86940  Biso   1.000  H
  H19      1.0000 0.88540  0.93550  0.36940  Biso   1.000  H
  H20      1.0000 0.11460  0.43550  0.13060  Biso   1.000  H
  C29      1.0000 0.97217  0.06058  0.56911  Biso   1.000  C
  C30      1.0000 0.02783  0.56058  0.93089  Biso   1.000  C
  C31      1.0000 0.02783  0.93942  0.43089  Biso   1.000  C
  C32      1.0000 0.97217  0.43942  0.06911  Biso   1.000  C
  C33      1.0000 0.89568  0.01463  0.54916  Biso   1.000  C
  C34      1.0000 0.10432  0.51463  0.95084  Biso   1.000  C
  C35      1.0000 0.10432  0.98537  0.45084  Biso   1.000  C
  C36      1.0000 0.89568  0.48537  0.04916  Biso   1.000  C
  C37      1.0000 0.95510  0.12962  0.53805  Biso   1.000  C
  C38      1.0000 0.04490  0.62962  0.96195  Biso   1.000  C
  C39      1.0000 0.04490  0.87038  0.46195  Biso   1.000  C
  C40      1.0000 0.95510  0.37038  0.03805  Biso   1.000  C
  H21      1.0000 0.00400  0.16160  0.55060  Biso   1.000  H
  H22      1.0000 0.99600  0.66160  0.94940  Biso   1.000  H
  H23      1.0000 0.99600  0.83840  0.44940  Biso   1.000  H
  H24      1.0000 0.00400  0.33840  0.05060  Biso   1.000  H
  C41      1.0000 0.86590  0.14969  0.48902  Biso   1.000  C
  C42      1.0000 0.13410  0.64969  0.01098  Biso   1.000  C
  C43      1.0000 0.13410  0.85031  0.51098  Biso   1.000  C
  C44      1.0000 0.86590  0.35031  0.98902  Biso   1.000  C
  H25      1.0000 0.85370  0.19520  0.46800  Biso   1.000  H
  H26      1.0000 0.14630  0.69520  0.03200  Biso   1.000  H
  H27      1.0000 0.14630  0.80480  0.53200  Biso   1.000  H
  H28      1.0000 0.85370  0.30480  0.96800  Biso   1.000  H
  C45      1.0000 0.79390  0.10077  0.47131  Biso   1.000  C
  C46      1.0000 0.20610  0.60077  0.02869  Biso   1.000  C
  C47      1.0000 0.20610  0.89923  0.52869  Biso   1.000  C
  C48      1.0000 0.79390  0.39923  0.97131  Biso   1.000  C
  H29      1.0000 0.73380  0.11450  0.43740  Biso   1.000  H
  H30      1.0000 0.26620  0.61450  0.06260  Biso   1.000  H
  H31      1.0000 0.26620  0.88550  0.56260  Biso   1.000  H
  H32      1.0000 0.73380  0.38550  0.93740  Biso   1.000  H
  C49      1.0000 0.73020  0.03702  0.64207  Biso   1.000  C
  C50      1.0000 0.26980  0.53702  0.85793  Biso   1.000  C
  C51      1.0000 0.26980  0.96298  0.35793  Biso   1.000  C
  C52      1.0000 0.73020  0.46298  0.14207  Biso   1.000  C
  H33      1.0000 0.77420  0.06510  0.63260  Biso   1.000  H
  H34      1.0000 0.22580  0.56510  0.86740  Biso   1.000  H
  H35      1.0000 0.22580  0.93490  0.36740  Biso   1.000  H
  H36      1.0000 0.77420  0.43490  0.13260  Biso   1.000  H
  C53      1.0000 0.71891  0.04389  0.71646  Biso   1.000  C
  C54      1.0000 0.28109  0.54389  0.78354  Biso   1.000  C
  C55      1.0000 0.28109  0.95611  0.28354  Biso   1.000  C
  C56      1.0000 0.71891  0.45611  0.21646  Biso   1.000  C
  H37      1.0000 0.75250  0.07760  0.75510  Biso   1.000  H
  H38      1.0000 0.24750  0.57760  0.74490  Biso   1.000  H
  H39      1.0000 0.24750  0.92240  0.24490  Biso   1.000  H
  H40      1.0000 0.75250  0.42240  0.25510  Biso   1.000  H
  C57      1.0000 0.65666  0.99971  0.73283  Biso   1.000  C
  C58      1.0000 0.34334  0.49971  0.76717  Biso   1.000  C
  C59      1.0000 0.34334  0.00029  0.26717  Biso   1.000  C
  C60      1.0000 0.65666  0.50029  0.23283  Biso   1.000  C
  C61      1.0000 0.65163  0.99781  0.81769  Biso   1.000  C
  C62      1.0000 0.34837  0.49781  0.68231  Biso   1.000  C
  C63      1.0000 0.34837  0.00219  0.18231  Biso   1.000  C
  C64      1.0000 0.65163  0.50219  0.31769  Biso   1.000  C
  C65      1.0000 0.60184  0.95486  0.67032  Biso   1.000  C
  C66      1.0000 0.39816  0.45486  0.82968  Biso   1.000  C
  C67      1.0000 0.39816  0.04514  0.32968  Biso   1.000  C
  C68      1.0000 0.60184  0.54514  0.17032  Biso   1.000  C
  H41      1.0000 0.55690  0.92680  0.67820  Biso   1.000  H
  H42      1.0000 0.44310  0.42680  0.82180  Biso   1.000  H
  H43      1.0000 0.44310  0.07320  0.32180  Biso   1.000  H
  H44      1.0000 0.55690  0.57320  0.17820  Biso   1.000  H
  C69      1.0000 0.61470  0.95231  0.59636  Biso   1.000  C
  C70      1.0000 0.38530  0.45231  0.90364  Biso   1.000  C
  C71      1.0000 0.38530  0.04769  0.40364  Biso   1.000  C
  C72      1.0000 0.61470  0.54769  0.09636  Biso   1.000  C
  C73      1.0000 0.55910  0.90729  0.52532  Biso   1.000  C
  C74      1.0000 0.44090  0.40729  0.97468  Biso   1.000  C
  C75      1.0000 0.44090  0.09271  0.47468  Biso   1.000  C
  C76      1.0000 0.55910  0.59271  0.02532  Biso   1.000  C
  C77      1.0000 0.47972  0.87125  0.52072  Biso   1.000  C
  C78      1.0000 0.52028  0.37125  0.97928  Biso   1.000  C
  C79      1.0000 0.52028  0.12875  0.47928  Biso   1.000  C
  C80      1.0000 0.47972  0.62875  0.02072  Biso   1.000  C
  H45      1.0000 0.46020  0.87260  0.56490  Biso   1.000  H
  H46      1.0000 0.53980  0.37260  0.93510  Biso   1.000  H
  H47      1.0000 0.53980  0.12740  0.43510  Biso   1.000  H
  H48      1.0000 0.46020  0.62740  0.06490  Biso   1.000  H
  C81      1.0000 0.42935  0.83302  0.44975  Biso   1.000  C
  C82      1.0000 0.57065  0.33302  0.05025  Biso   1.000  C
  C83      1.0000 0.57065  0.16698  0.55025  Biso   1.000  C
  C84      1.0000 0.42935  0.66698  0.94975  Biso   1.000  C
  C85      1.0000 0.34134  0.79320  0.44300  Biso   1.000  C
  C86      1.0000 0.65866  0.29320  0.05700  Biso   1.000  C
  C87      1.0000 0.65866  0.20680  0.55700  Biso   1.000  C
  C88      1.0000 0.34134  0.70680  0.94300  Biso   1.000  C
  C89      1.0000 0.46106  0.83258  0.38553  Biso   1.000  C
  C90      1.0000 0.53894  0.33258  0.11447  Biso   1.000  C
  C91      1.0000 0.53894  0.16742  0.61447  Biso   1.000  C
  C92      1.0000 0.46106  0.66742  0.88553  Biso   1.000  C
  H49      1.0000 0.42800  0.80850  0.33660  Biso   1.000  H
  H50      1.0000 0.57200  0.30850  0.16340  Biso   1.000  H
  H51      1.0000 0.57200  0.19150  0.66340  Biso   1.000  H
  H52      1.0000 0.42800  0.69150  0.83660  Biso   1.000  H
  C93      1.0000 0.54199  0.86817  0.39454  Biso   1.000  C
  C94      1.0000 0.45801  0.36817  0.10546  Biso   1.000  C
  C95      1.0000 0.45801  0.13183  0.60546  Biso   1.000  C
  C96      1.0000 0.54199  0.63183  0.89454  Biso   1.000  C
  H53      1.0000 0.56360  0.86630  0.35170  Biso   1.000  H
  H54      1.0000 0.43640  0.36630  0.14830  Biso   1.000  H
  H55      1.0000 0.43640  0.13370  0.64830  Biso   1.000  H
  H56      1.0000 0.56360  0.63370  0.85170  Biso   1.000  H
  C97      1.0000 0.80094  0.88936  0.97377  Biso   1.000  C
  C98      1.0000 0.19906  0.38936  0.52623  Biso   1.000  C
  C99      1.0000 0.19906  0.11064  0.02623  Biso   1.000  C
  C100     1.0000 0.80094  0.61064  0.47377  Biso   1.000  C
  H57      1.0000 0.74190  0.87240  0.94140  Biso   1.000  H
  H58      1.0000 0.25810  0.37240  0.55860  Biso   1.000  H
  H59      1.0000 0.25810  0.12760  0.05860  Biso   1.000  H
  H60      1.0000 0.74190  0.62760  0.44140  Biso   1.000  H
  C101     1.0000 0.87700  0.84464  0.99128  Biso   1.000  C
  C102     1.0000 0.12300  0.34464  0.50872  Biso   1.000  C
  C103     1.0000 0.12300  0.15536  0.00872  Biso   1.000  C
  C104     1.0000 0.87700  0.65536  0.49128  Biso   1.000  C
  H61      1.0000 0.86860  0.79890  0.97060  Biso   1.000  H
  H62      1.0000 0.13140  0.29890  0.52940  Biso   1.000  H
  H63      1.0000 0.13140  0.20110  0.02940  Biso   1.000  H
  H64      1.0000 0.86860  0.70110  0.47060  Biso   1.000  H
  C105     1.0000 0.96400  0.86851  0.03913  Biso   1.000  C
  C106     1.0000 0.03600  0.36851  0.46087  Biso   1.000  C
  C107     1.0000 0.03600  0.13149  0.96087  Biso   1.000  C
  C108     1.0000 0.96400  0.63149  0.53913  Biso   1.000  C
  H65      1.0000 0.01550  0.83900  0.05170  Biso   1.000  H
  H66      1.0000 0.98450  0.33900  0.44830  Biso   1.000  H
  H67      1.0000 0.98450  0.16100  0.94830  Biso   1.000  H
  H68      1.0000 0.01550  0.66100  0.55170  Biso   1.000  H
  C109     1.0000 0.97528  0.93790  0.06927  Biso   1.000  C
  C110     1.0000 0.02472  0.43790  0.43073  Biso   1.000  C
  C111     1.0000 0.02472  0.06210  0.93073  Biso   1.000  C
  C112     1.0000 0.97528  0.56210  0.56927  Biso   1.000  C
  C113     1.0000 0.89542  0.98024  0.04845  Biso   1.000  C
  C114     1.0000 0.10458  0.48024  0.45155  Biso   1.000  C
  C115     1.0000 0.10458  0.01976  0.95155  Biso   1.000  C
  C116     1.0000 0.89542  0.51976  0.54845  Biso   1.000  C
  C117     1.0000 0.06430  0.96806  0.11876  Biso   1.000  C
  C118     1.0000 0.93570  0.46806  0.38124  Biso   1.000  C
  C119     1.0000 0.93570  0.03194  0.88124  Biso   1.000  C
  C120     1.0000 0.06430  0.53194  0.61876  Biso   1.000  C
  H69      1.0000 0.11780  0.94070  0.13210  Biso   1.000  H
  H70      1.0000 0.88220  0.44070  0.36790  Biso   1.000  H
  H71      1.0000 0.88220  0.05930  0.86790  Biso   1.000  H
  H72      1.0000 0.11780  0.55930  0.63210  Biso   1.000  H
  C121     1.0000 0.07200  0.03462  0.14609  Biso   1.000  C
  C122     1.0000 0.92800  0.53462  0.35391  Biso   1.000  C
  C123     1.0000 0.92800  0.96538  0.85391  Biso   1.000  C
  C124     1.0000 0.07200  0.46538  0.64609  Biso   1.000  C
  H73      1.0000 0.13050  0.05210  0.17910  Biso   1.000  H
  H74      1.0000 0.86950  0.55210  0.32090  Biso   1.000  H
  H75      1.0000 0.86950  0.94790  0.82090  Biso   1.000  H
  H76      1.0000 0.13050  0.44790  0.67910  Biso   1.000  H
  C125     1.0000 0.99169  0.07939  0.12530  Biso   1.000  C
  C126     1.0000 0.00831  0.57939  0.37470  Biso   1.000  C
  C127     1.0000 0.00831  0.92061  0.87470  Biso   1.000  C
  C128     1.0000 0.99169  0.42061  0.62530  Biso   1.000  C
  C129     1.0000 0.90367  0.05202  0.07588  Biso   1.000  C
  C130     1.0000 0.09633  0.55202  0.42412  Biso   1.000  C
  C131     1.0000 0.09633  0.94798  0.92412  Biso   1.000  C
  C132     1.0000 0.90367  0.44798  0.57588  Biso   1.000  C
  C133     1.0000 0.99620  0.15070  0.14904  Biso   1.000  C
  C134     1.0000 0.00380  0.65070  0.35096  Biso   1.000  C
  C135     1.0000 0.00380  0.84930  0.85096  Biso   1.000  C
  C136     1.0000 0.99620  0.34930  0.64904  Biso   1.000  C
  H77      1.0000 0.05300  0.17090  0.18200  Biso   1.000  H
  H78      1.0000 0.94700  0.67090  0.31800  Biso   1.000  H
  H79      1.0000 0.94700  0.82910  0.81800  Biso   1.000  H
  H80      1.0000 0.05300  0.32910  0.68200  Biso   1.000  H
  C137     1.0000 0.91630  0.18959  0.12307  Biso   1.000  C
  C138     1.0000 0.08370  0.68959  0.37693  Biso   1.000  C
  C139     1.0000 0.08370  0.81041  0.87693  Biso   1.000  C
  C140     1.0000 0.91630  0.31041  0.62307  Biso   1.000  C
  H81      1.0000 0.91820  0.23670  0.13810  Biso   1.000  H
  H82      1.0000 0.08180  0.73670  0.36190  Biso   1.000  H
  H83      1.0000 0.08180  0.76330  0.86190  Biso   1.000  H
  H84      1.0000 0.91820  0.26330  0.63810  Biso   1.000  H
  C141     1.0000 0.83120  0.15842  0.07362  Biso   1.000  C
  C142     1.0000 0.16880  0.65842  0.42638  Biso   1.000  C
  C143     1.0000 0.16880  0.84158  0.92638  Biso   1.000  C
  C144     1.0000 0.83120  0.34158  0.57362  Biso   1.000  C
  H85      1.0000 0.77740  0.18580  0.05620  Biso   1.000  H
  H86      1.0000 0.22260  0.68580  0.44380  Biso   1.000  H
  H87      1.0000 0.22260  0.81420  0.94380  Biso   1.000  H
  H88      1.0000 0.77740  0.31420  0.55620  Biso   1.000  H
  C145     1.0000 0.72745  0.94397  0.13938  Biso   1.000  C
  C146     1.0000 0.27255  0.44397  0.36062  Biso   1.000  C
  C147     1.0000 0.27255  0.05603  0.86062  Biso   1.000  C
  C148     1.0000 0.72745  0.55603  0.63938  Biso   1.000  C
  H89      1.0000 0.76780  0.91410  0.12690  Biso   1.000  H
  H90      1.0000 0.23220  0.41410  0.37310  Biso   1.000  H
  H91      1.0000 0.23220  0.08590  0.87310  Biso   1.000  H
  H92      1.0000 0.76780  0.58590  0.62690  Biso   1.000  H
  C149     1.0000 0.71908  0.93657  0.21522  Biso   1.000  C
  C150     1.0000 0.28092  0.43657  0.28478  Biso   1.000  C
  C151     1.0000 0.28092  0.06343  0.78478  Biso   1.000  C
  C152     1.0000 0.71908  0.56343  0.71522  Biso   1.000  C
  H93      1.0000 0.75170  0.90150  0.25220  Biso   1.000  H
  H94      1.0000 0.24830  0.40150  0.24780  Biso   1.000  H
  H95      1.0000 0.24830  0.09850  0.74780  Biso   1.000  H
  H96      1.0000 0.75170  0.59850  0.75220  Biso   1.000  H
  C153     1.0000 0.65647  0.98465  0.32000  Biso   1.000  C
  C154     1.0000 0.34353  0.48465  0.18000  Biso   1.000  C
  C155     1.0000 0.34353  0.01535  0.68000  Biso   1.000  C
  C156     1.0000 0.65647  0.51535  0.82000  Biso   1.000  C
  C157     1.0000 0.66066  0.98271  0.23516  Biso   1.000  C
  C158     1.0000 0.33934  0.48271  0.26484  Biso   1.000  C
  C159     1.0000 0.33934  0.01729  0.76484  Biso   1.000  C
  C160     1.0000 0.66066  0.51729  0.73516  Biso   1.000  C
  C161     1.0000 0.60878  0.03084  0.17573  Biso   1.000  C
  C162     1.0000 0.39122  0.53084  0.32427  Biso   1.000  C
  C163     1.0000 0.39122  0.96916  0.82427  Biso   1.000  C
  C164     1.0000 0.60878  0.46916  0.67573  Biso   1.000  C
  H97      1.0000 0.56710  0.06070  0.18630  Biso   1.000  H
  H98      1.0000 0.43290  0.56070  0.31370  Biso   1.000  H
  H99      1.0000 0.43290  0.93930  0.81370  Biso   1.000  H
  H100     1.0000 0.56710  0.43930  0.68630  Biso   1.000  H
  C165     1.0000 0.61923  0.03427  0.10096  Biso   1.000  C
  C166     1.0000 0.38077  0.53427  0.39904  Biso   1.000  C
  C167     1.0000 0.38077  0.96573  0.89904  Biso   1.000  C
  C168     1.0000 0.61923  0.46573  0.60096  Biso   1.000  C
  C169     1.0000 0.56824  0.08488  0.03449  Biso   1.000  C
  C170     1.0000 0.43176  0.58488  0.46551  Biso   1.000  C
  C171     1.0000 0.43176  0.91512  0.96551  Biso   1.000  C
  C172     1.0000 0.56824  0.41512  0.53449  Biso   1.000  C
  C173     1.0000 0.49628  0.12704  0.03674  Biso   1.000  C
  C174     1.0000 0.50372  0.62704  0.46326  Biso   1.000  C
  C175     1.0000 0.50372  0.87296  0.96326  Biso   1.000  C
  C176     1.0000 0.49628  0.37296  0.53674  Biso   1.000  C
  H101     1.0000 0.47800  0.12450  0.08160  Biso   1.000  H
  H102     1.0000 0.52200  0.62450  0.41840  Biso   1.000  H
  H103     1.0000 0.52200  0.87550  0.91840  Biso   1.000  H
  H104     1.0000 0.47800  0.37550  0.58160  Biso   1.000  H
  C177     1.0000 0.45170  0.17314  0.97164  Biso   1.000  C
  C178     1.0000 0.54830  0.67314  0.52836  Biso   1.000  C
  C179     1.0000 0.54830  0.82686  0.02836  Biso   1.000  C
  C180     1.0000 0.45170  0.32686  0.47164  Biso   1.000  C
  C181     1.0000 0.37238  0.22059  0.97277  Biso   1.000  C
  C182     1.0000 0.62762  0.72059  0.52723  Biso   1.000  C
  C183     1.0000 0.62762  0.77941  0.02723  Biso   1.000  C
  C184     1.0000 0.37238  0.27941  0.47277  Biso   1.000  C
  C185     1.0000 0.48119  0.17481  0.90614  Biso   1.000  C
  C186     1.0000 0.51881  0.67481  0.59386  Biso   1.000  C
  C187     1.0000 0.51881  0.82519  0.09386  Biso   1.000  C
  C188     1.0000 0.48119  0.32519  0.40614  Biso   1.000  C
  H105     1.0000 0.45270  0.20500  0.86160  Biso   1.000  H
  H106     1.0000 0.54730  0.70500  0.63840  Biso   1.000  H
  H107     1.0000 0.54730  0.79500  0.13840  Biso   1.000  H
  H108     1.0000 0.45270  0.29500  0.36160  Biso   1.000  H
  C189     1.0000 0.55308  0.13143  0.90723  Biso   1.000  C
  C190     1.0000 0.44692  0.63143  0.59277  Biso   1.000  C
  C191     1.0000 0.44692  0.86857  0.09277  Biso   1.000  C
  C192     1.0000 0.55308  0.36857  0.40723  Biso   1.000  C
  H109     1.0000 0.57220  0.13300  0.86280  Biso   1.000  H
  H110     1.0000 0.42780  0.63300  0.63720  Biso   1.000  H
  H111     1.0000 0.42780  0.86700  0.13720  Biso   1.000  H
  H112     1.0000 0.57220  0.36700  0.36280  Biso   1.000  H
  N1       1.0000 0.83339  0.90121  0.55750  Biso   1.000  N
  N2       1.0000 0.16661  0.40121  0.94250  Biso   1.000  N
  N3       1.0000 0.16661  0.09879  0.44250  Biso   1.000  N
  N4       1.0000 0.83339  0.59879  0.05750  Biso   1.000  N
  N5       1.0000 0.80743  0.03542  0.50074  Biso   1.000  N
  N6       1.0000 0.19257  0.53542  0.99926  Biso   1.000  N
  N7       1.0000 0.19257  0.96458  0.49926  Biso   1.000  N
  N8       1.0000 0.80743  0.46458  0.00074  Biso   1.000  N
  N9       1.0000 0.59046  0.90534  0.46289  Biso   1.000  N
  N10      1.0000 0.40954  0.40534  0.03711  Biso   1.000  N
  N11      1.0000 0.40954  0.09466  0.53711  Biso   1.000  N
  N12      1.0000 0.59046  0.59466  0.96289  Biso   1.000  N
  N13      1.0000 0.68075  0.99186  0.58333  Biso   1.000  N
  N14      1.0000 0.31925  0.49186  0.91667  Biso   1.000  N
  N15      1.0000 0.31925  0.00814  0.41667  Biso   1.000  N
  N16      1.0000 0.68075  0.50814  0.08333  Biso   1.000  N
  N17      1.0000 0.80889  0.95554  0.00130  Biso   1.000  N
  N18      1.0000 0.19111  0.45554  0.49870  Biso   1.000  N
  N19      1.0000 0.19111  0.04446  0.99870  Biso   1.000  N
  N20      1.0000 0.80889  0.54446  0.50130  Biso   1.000  N
  N21      1.0000 0.82456  0.09140  0.05075  Biso   1.000  N
  N22      1.0000 0.17544  0.59140  0.44925  Biso   1.000  N
  N23      1.0000 0.17544  0.90860  0.94925  Biso   1.000  N
  N24      1.0000 0.82456  0.40860  0.55075  Biso   1.000  N
  N25      1.0000 0.68020  0.99206  0.08357  Biso   1.000  N
  N26      1.0000 0.31980  0.49206  0.41643  Biso   1.000  N
  N27      1.0000 0.31980  0.00794  0.91643  Biso   1.000  N
  N28      1.0000 0.68020  0.50794  0.58357  Biso   1.000  N
  N29      1.0000 0.59624  0.08711  0.97012  Biso   1.000  N
  N30      1.0000 0.40376  0.58711  0.52988  Biso   1.000  N
  N31      1.0000 0.40376  0.91289  0.02988  Biso   1.000  N
  N32      1.0000 0.59624  0.41289  0.47012  Biso   1.000  N
  O1       1.0000 0.28643  0.77785  0.37063  Biso   1.000  O
  O2       1.0000 0.71357  0.27785  0.12937  Biso   1.000  O
  O3       1.0000 0.71357  0.22215  0.62937  Biso   1.000  O
  O4       1.0000 0.28643  0.72215  0.87063  Biso   1.000  O
  O5       1.0000 0.33096  0.78029  0.50863  Biso   1.000  O
  O6       1.0000 0.66904  0.28029  0.99137  Biso   1.000  O
  O7       1.0000 0.66904  0.21971  0.49137  Biso   1.000  O
  O8       1.0000 0.33096  0.71971  0.00863  Biso   1.000  O
  O9       1.0000 0.60753  0.95038  0.83477  Biso   1.000  O
  O10      1.0000 0.39247  0.45038  0.66523  Biso   1.000  O
  O11      1.0000 0.39247  0.04962  0.16523  Biso   1.000  O
  O12      1.0000 0.60753  0.54962  0.33477  Biso   1.000  O
  O13      1.0000 0.69802  0.04557  0.86862  Biso   1.000  O
  O14      1.0000 0.30198  0.54557  0.63138  Biso   1.000  O
  O15      1.0000 0.30198  0.95443  0.13138  Biso   1.000  O
  O16      1.0000 0.69802  0.45443  0.36862  Biso   1.000  O
  O17      1.0000 0.33130  0.25529  0.90956  Biso   1.000  O
  O18      1.0000 0.66870  0.75529  0.59044  Biso   1.000  O
  O19      1.0000 0.66870  0.74471  0.09044  Biso   1.000  O
  O20      1.0000 0.33130  0.24471  0.40956  Biso   1.000  O
  O21      1.0000 0.35803  0.22115  0.03880  Biso   1.000  O
  O22      1.0000 0.64197  0.72115  0.46120  Biso   1.000  O
  O23      1.0000 0.64197  0.77885  0.96120  Biso   1.000  O
  O24      1.0000 0.35803  0.27885  0.53880  Biso   1.000  O
  O25      1.0000 0.37040  0.77300  0.67520  Biso   1.000  O
  O26      1.0000 0.62960  0.27300  0.82480  Biso   1.000  O
  O27      1.0000 0.62960  0.22700  0.32480  Biso   1.000  O
  O28      1.0000 0.37040  0.72700  0.17520  Biso   1.000  O
  O29      1.0000 0.74570  0.79024  0.38386  Biso   1.000  O
  O30      1.0000 0.25430  0.29024  0.11614  Biso   1.000  O
  O31      1.0000 0.25430  0.20976  0.61614  Biso   1.000  O
  O32      1.0000 0.74570  0.70976  0.88386  Biso   1.000  O
  O33      1.0000 0.20463  0.68302  0.63353  Biso   1.000  O
  O34      1.0000 0.79537  0.18302  0.86647  Biso   1.000  O
  O35      1.0000 0.79537  0.31698  0.36647  Biso   1.000  O
  O36      1.0000 0.20463  0.81698  0.13353  Biso   1.000  O
  O37      1.0000 0.88360  0.32280  0.24500  Biso   1.000  O
  O38      1.0000 0.11640  0.82280  0.25500  Biso   1.000  O
  O39      1.0000 0.11640  0.67720  0.75500  Biso   1.000  O
  O40      1.0000 0.88360  0.17720  0.74500  Biso   1.000  O
  O41      1.0000 0.45400  0.30939  0.71550  Biso   1.000  O
  O42      1.0000 0.54600  0.80939  0.78450  Biso   1.000  O
  O43      1.0000 0.54600  0.69061  0.28450  Biso   1.000  O
  O44      1.0000 0.45400  0.19061  0.21550  Biso   1.000  O
  O45      1.0000 0.74768  0.16625  0.24740  Biso   1.000  O
  O46      1.0000 0.25232  0.66625  0.25260  Biso   1.000  O
  O47      1.0000 0.25232  0.83375  0.75260  Biso   1.000  O
  O48      1.0000 0.74768  0.33375  0.74740  Biso   1.000  O
  O49      1.0000 0.08050  0.35440  0.27260  Biso   1.000  O
  O50      1.0000 0.91950  0.85440  0.22740  Biso   1.000  O
  O51      1.0000 0.91950  0.64560  0.72740  Biso   1.000  O
  O52      1.0000 0.08050  0.14560  0.77260  Biso   1.000  O
  O53      1.0000 0.80210  0.75560  0.75597  Biso   1.000  O
  O54      1.0000 0.19790  0.25560  0.74403  Biso   1.000  O
  O55      1.0000 0.19790  0.24440  0.24403  Biso   1.000  O
  O56      1.0000 0.80210  0.74440  0.25597  Biso   1.000  O
  O57      1.0000 0.60891  0.02899  0.33672  Biso   1.000  O
  O58      1.0000 0.39109  0.52899  0.16328  Biso   1.000  O
  O59      1.0000 0.39109  0.97101  0.66328  Biso   1.000  O
  O60      1.0000 0.60891  0.47101  0.83672  Biso   1.000  O
  O61      1.0000 0.70806  0.93859  0.37275  Biso   1.000  O
  O62      1.0000 0.29194  0.43859  0.12725  Biso   1.000  O
  O63      1.0000 0.29194  0.06141  0.62725  Biso   1.000  O
  O64      1.0000 0.70806  0.56141  0.87275  Biso   1.000  O
  H113     1.0000 0.83200  0.30700  0.20600  Biso   1.000  H
  H114     1.0000 0.16800  0.80700  0.29400  Biso   1.000  H
  H115     1.0000 0.16800  0.69300  0.79400  Biso   1.000  H
  H116     1.0000 0.83200  0.19300  0.70600  Biso   1.000  H
  H117     1.0000 0.03000  0.35700  0.26000  Biso   1.000  H
  H118     1.0000 0.97000  0.85700  0.24000  Biso   1.000  H
  H119     1.0000 0.97000  0.64300  0.74000  Biso   1.000  H
  H120     1.0000 0.03000  0.14300  0.76000  Biso   1.000  H
  H121     1.0000 0.89500  0.34900  0.22300  Biso   1.000  H
  H122     1.0000 0.10500  0.84900  0.27700  Biso   1.000  H
  H123     1.0000 0.10500  0.65100  0.77700  Biso   1.000  H
  H124     1.0000 0.89500  0.15100  0.72300  Biso   1.000  H
  H125     1.0000 0.09200  0.31400  0.25200  Biso   1.000  H
  H126     1.0000 0.90800  0.81400  0.24800  Biso   1.000  H
  H127     1.0000 0.90800  0.68600  0.74800  Biso   1.000  H
  H128     1.0000 0.09200  0.18600  0.75200  Biso   1.000  H
  H129     1.0000 0.42400  0.34700  0.70600  Biso   1.000  H
  H130     1.0000 0.57600  0.84700  0.79400  Biso   1.000  H
  H131     1.0000 0.57600  0.65300  0.29400  Biso   1.000  H
  H132     1.0000 0.42400  0.15300  0.20600  Biso   1.000  H
  H133     1.0000 0.42600  0.29200  0.66500  Biso   1.000  H
  H134     1.0000 0.57400  0.79200  0.83500  Biso   1.000  H
  H135     1.0000 0.57400  0.70800  0.33500  Biso   1.000  H
  H136     1.0000 0.42600  0.20800  0.16500  Biso   1.000  H
  H137     1.0000 0.70300  0.76400  0.41100  Biso   1.000  H
  H138     1.0000 0.29700  0.26400  0.08900  Biso   1.000  H
  H139     1.0000 0.29700  0.23600  0.58900  Biso   1.000  H
  H140     1.0000 0.70300  0.73600  0.91100  Biso   1.000  H
  H141     1.0000 0.43500  0.78340  0.70300  Biso   1.000  H
  H142     1.0000 0.56500  0.28340  0.79700  Biso   1.000  H
  H143     1.0000 0.56500  0.21660  0.29700  Biso   1.000  H
  H144     1.0000 0.43500  0.71660  0.20300  Biso   1.000  H
  H145     1.0000 0.37700  0.77700  0.63200  Biso   1.000  H
  H146     1.0000 0.62300  0.27700  0.86800  Biso   1.000  H
  H147     1.0000 0.62300  0.22300  0.36800  Biso   1.000  H
  H148     1.0000 0.37700  0.72300  0.13200  Biso   1.000  H
