data_image0
_cell_length_a       6.4577
_cell_length_b       8.8822
_cell_length_c       15.015
_cell_angle_alpha    102.417
_cell_angle_beta     95.643
_cell_angle_gamma    95.482

_symmetry_space_group_name_H-M    "P 1"
_symmetry_int_tables_number       1

loop_
  _symmetry_equiv_pos_as_xyz
  'x, y, z'

loop_
  _atom_site_label
  _atom_site_occupancy
  _atom_site_fract_x
  _atom_site_fract_y
  _atom_site_fract_z
  _atom_site_thermal_displace_type
  _atom_site_B_iso_or_equiv
  _atom_site_type_symbol
  Cu1      1.0000 0.67236  0.31235  0.00326  Biso   1.000  Cu
  Cu2      1.0000 0.32764  0.68765  0.99674  Biso   1.000  Cu
  Cl1      1.0000 0.34838  0.30250  0.93179  Biso   1.000  Cl
  Cl2      1.0000 0.65162  0.69750  0.06821  Biso   1.000  Cl
  N1       1.0000 0.86870  0.05850  0.09869  Biso   1.000  N
  N2       1.0000 0.13130  0.94150  0.90131  Biso   1.000  N
  H1       1.0000 0.92900  0.02400  0.12500  Biso   1.000  H
  H2       1.0000 0.07100  0.97600  0.87500  Biso   1.000  H
  N3       1.0000 0.59000  0.21710  0.10495  Biso   1.000  N
  N4       1.0000 0.41000  0.78290  0.89505  Biso   1.000  N
  C1       1.0000 0.69670  0.11600  0.13969  Biso   1.000  C
  C2       1.0000 0.30330  0.88400  0.86031  Biso   1.000  C
  C3       1.0000 0.64420  0.06630  0.21713  Biso   1.000  C
  C4       1.0000 0.35580  0.93370  0.78287  Biso   1.000  C
  H3       1.0000 0.72090  0.99390  0.24020  Biso   1.000  H
  H4       1.0000 0.27910  0.00610  0.75980  Biso   1.000  H
  C5       1.0000 0.47950  0.12340  0.25999  Biso   1.000  C
  C6       1.0000 0.52050  0.87660  0.74001  Biso   1.000  C
  H5       1.0000 0.44090  0.08930  0.31250  Biso   1.000  H
  H6       1.0000 0.55910  0.91070  0.68750  Biso   1.000  H
  C7       1.0000 0.36970  0.23110  0.22623  Biso   1.000  C
  C8       1.0000 0.63030  0.76890  0.77377  Biso   1.000  C
  C9       1.0000 0.43000  0.27260  0.14868  Biso   1.000  C
  C10      1.0000 0.57000  0.72740  0.85132  Biso   1.000  C
  H7       1.0000 0.35490  0.34450  0.12430  Biso   1.000  H
  H8       1.0000 0.64510  0.65550  0.87570  Biso   1.000  H
  C11      1.0000 0.19610  0.30190  0.27350  Biso   1.000  C
  C12      1.0000 0.80390  0.69810  0.72650  Biso   1.000  C
  H9       1.0000 0.10800  0.34460  0.23040  Biso   1.000  H
  H10      1.0000 0.89200  0.65540  0.76960  Biso   1.000  H
  H11      1.0000 0.25610  0.38510  0.32640  Biso   1.000  H
  H12      1.0000 0.74390  0.61490  0.67360  Biso   1.000  H
  H13      1.0000 0.11090  0.22200  0.29450  Biso   1.000  H
  H14      1.0000 0.88910  0.77800  0.70550  Biso   1.000  H
  C13      1.0000 0.96060  0.50080  0.94989  Biso   1.000  C
  C14      1.0000 0.03940  0.49920  0.05011  Biso   1.000  C
  O1       1.0000 0.79870  0.41090  0.91323  Biso   1.000  O
  O2       1.0000 0.20130  0.58910  0.08677  Biso   1.000  O
  O3       1.0000 0.06390  0.59195  0.91342  Biso   1.000  O
  O4       1.0000 0.93610  0.40805  0.08658  Biso   1.000  O
  C15      1.0000 0.90500  0.04450  0.01134  Biso   1.000  C
  C16      1.0000 0.09500  0.95550  0.98866  Biso   1.000  C
  O5       1.0000 0.80770  0.09466  0.95219  Biso   1.000  O
  O6       1.0000 0.19230  0.90534  0.04781  Biso   1.000  O
  N5       1.0000 0.15980  0.89300  0.42528  Biso   1.000  N
  N6       1.0000 0.84020  0.10700  0.57472  Biso   1.000  N
  H15      1.0000 0.10500  0.91200  0.37700  Biso   1.000  H
  H16      1.0000 0.89500  0.08800  0.62300  Biso   1.000  H
  N7       1.0000 0.36500  0.77170  0.32298  Biso   1.000  N
  N8       1.0000 0.63500  0.22830  0.67702  Biso   1.000  N
  C17      1.0000 0.32760  0.80410  0.41011  Biso   1.000  C
  C18      1.0000 0.67240  0.19590  0.58989  Biso   1.000  C
  C19      1.0000 0.44060  0.75240  0.47907  Biso   1.000  C
  C20      1.0000 0.55940  0.24760  0.52093  Biso   1.000  C
  H17      1.0000 0.40840  0.77570  0.54060  Biso   1.000  H
  H18      1.0000 0.59160  0.22430  0.45940  Biso   1.000  H
  C21      1.0000 0.60260  0.66540  0.45446  Biso   1.000  C
  C22      1.0000 0.39740  0.33460  0.54554  Biso   1.000  C
  H19      1.0000 0.68450  0.62960  0.50000  Biso   1.000  H
  H20      1.0000 0.31550  0.37040  0.50000  Biso   1.000  H
  C23      1.0000 0.64540  0.63050  0.36446  Biso   1.000  C
  C24      1.0000 0.35460  0.36950  0.63554  Biso   1.000  C
  C25      1.0000 0.52120  0.68610  0.30146  Biso   1.000  C
  C26      1.0000 0.47880  0.31390  0.69854  Biso   1.000  C
  H21      1.0000 0.54780  0.66230  0.23920  Biso   1.000  H
  H22      1.0000 0.45220  0.33770  0.76080  Biso   1.000  H
  C27      1.0000 0.81740  0.53370  0.33510  Biso   1.000  C
  C28      1.0000 0.18260  0.46630  0.66490  Biso   1.000  C
  H23      1.0000 0.94730  0.57480  0.37620  Biso   1.000  H
  H24      1.0000 0.05270  0.42520  0.62380  Biso   1.000  H
  H25      1.0000 0.83970  0.53750  0.27200  Biso   1.000  H
  H26      1.0000 0.16030  0.46250  0.72800  Biso   1.000  H
  H27      1.0000 0.77680  0.42590  0.33820  Biso   1.000  H
  H28      1.0000 0.22320  0.57410  0.66180  Biso   1.000  H
  C29      1.0000 0.09250  0.95280  0.50613  Biso   1.000  C
  C30      1.0000 0.90750  0.04720  0.49387  Biso   1.000  C
  O7       1.0000 0.16260  0.93890  0.58184  Biso   1.000  O
  O8       1.0000 0.83740  0.06110  0.41816  Biso   1.000  O
  O9       1.0000 0.02220  0.86580  0.22640  Biso   1.000  O
  O10      1.0000 0.97780  0.13420  0.77360  Biso   1.000  O
  H29      1.0000 0.94700  0.79800  0.19900  Biso   1.000  H
  H30      1.0000 0.05300  0.20200  0.80100  Biso   1.000  H
  H31      1.0000 0.12900  0.83000  0.23400  Biso   1.000  H
  H32      1.0000 0.87100  0.17000  0.76600  Biso   1.000  H
