data_image0
_cell_length_a       20.547
_cell_length_b       9.046
_cell_length_c       17.751
_cell_angle_alpha    90
_cell_angle_beta     90
_cell_angle_gamma    90

_symmetry_space_group_name_H-M    "P 1"
_symmetry_int_tables_number       1

loop_
  _symmetry_equiv_pos_as_xyz
  'x, y, z'

loop_
  _atom_site_label
  _atom_site_occupancy
  _atom_site_fract_x
  _atom_site_fract_y
  _atom_site_fract_z
  _atom_site_thermal_displace_type
  _atom_site_B_iso_or_equiv
  _atom_site_type_symbol
  Cu1      1.0000 0.00000  0.26123  0.25000  Biso   1.000  Cu
  Cu2      1.0000 0.50000  0.23877  0.75000  Biso   1.000  Cu
  Cu3      1.0000 0.00000  0.73877  0.75000  Biso   1.000  Cu
  Cu4      1.0000 0.50000  0.76123  0.25000  Biso   1.000  Cu
  O1       1.0000 0.00000  0.52720  0.25000  Biso   1.000  O
  O2       1.0000 0.50000  0.97280  0.75000  Biso   1.000  O
  O3       1.0000 0.00000  0.47280  0.75000  Biso   1.000  O
  O4       1.0000 0.50000  0.02720  0.25000  Biso   1.000  O
  H1       1.0000 0.03400  0.59000  0.26500  Biso   1.000  H
  H2       1.0000 0.46600  0.91000  0.76500  Biso   1.000  H
  H3       1.0000 0.53400  0.91000  0.73500  Biso   1.000  H
  H4       1.0000 0.96600  0.59000  0.23500  Biso   1.000  H
  H5       1.0000 0.96600  0.41000  0.73500  Biso   1.000  H
  H6       1.0000 0.53400  0.09000  0.23500  Biso   1.000  H
  H7       1.0000 0.46600  0.09000  0.26500  Biso   1.000  H
  H8       1.0000 0.03400  0.41000  0.76500  Biso   1.000  H
  O5       1.0000 0.00000  0.98480  0.25000  Biso   1.000  O
  O6       1.0000 0.50000  0.51520  0.75000  Biso   1.000  O
  O7       1.0000 0.00000  0.01520  0.75000  Biso   1.000  O
  O8       1.0000 0.50000  0.48480  0.25000  Biso   1.000  O
  H9       1.0000 0.03000  0.91900  0.27600  Biso   1.000  H
  H10      1.0000 0.47000  0.58100  0.77600  Biso   1.000  H
  H11      1.0000 0.53000  0.58100  0.72400  Biso   1.000  H
  H12      1.0000 0.97000  0.91900  0.22400  Biso   1.000  H
  H13      1.0000 0.97000  0.08100  0.72400  Biso   1.000  H
  H14      1.0000 0.53000  0.41900  0.22400  Biso   1.000  H
  H15      1.0000 0.47000  0.41900  0.27600  Biso   1.000  H
  H16      1.0000 0.03000  0.08100  0.77600  Biso   1.000  H
  O9       1.0000 0.06050  0.80440  0.35670  Biso   1.000  O
  O10      1.0000 0.43950  0.69560  0.85670  Biso   1.000  O
  O11      1.0000 0.56050  0.69560  0.64330  Biso   1.000  O
  O12      1.0000 0.93950  0.80440  0.14330  Biso   1.000  O
  O13      1.0000 0.93950  0.19560  0.64330  Biso   1.000  O
  O14      1.0000 0.56050  0.30440  0.14330  Biso   1.000  O
  O15      1.0000 0.43950  0.30440  0.35670  Biso   1.000  O
  O16      1.0000 0.06050  0.19560  0.85670  Biso   1.000  O
  O17      1.0000 0.12136  0.69710  0.28440  Biso   1.000  O
  O18      1.0000 0.37864  0.80290  0.78440  Biso   1.000  O
  O19      1.0000 0.62136  0.80290  0.71560  Biso   1.000  O
  O20      1.0000 0.87864  0.69710  0.21560  Biso   1.000  O
  O21      1.0000 0.87864  0.30290  0.71560  Biso   1.000  O
  O22      1.0000 0.62136  0.19710  0.21560  Biso   1.000  O
  O23      1.0000 0.37864  0.19710  0.28440  Biso   1.000  O
  O24      1.0000 0.12136  0.30290  0.78440  Biso   1.000  O
  O25      1.0000 0.15000  0.89110  0.33180  Biso   1.000  O
  O26      1.0000 0.35000  0.60890  0.83180  Biso   1.000  O
  O27      1.0000 0.65000  0.60890  0.66820  Biso   1.000  O
  O28      1.0000 0.85000  0.89110  0.16820  Biso   1.000  O
  O29      1.0000 0.85000  0.10890  0.66820  Biso   1.000  O
  O30      1.0000 0.65000  0.39110  0.16820  Biso   1.000  O
  O31      1.0000 0.35000  0.39110  0.33180  Biso   1.000  O
  O32      1.0000 0.15000  0.10890  0.83180  Biso   1.000  O
  N1       1.0000 0.11101  0.79320  0.32520  Biso   1.000  N
  N2       1.0000 0.38899  0.70680  0.82520  Biso   1.000  N
  N3       1.0000 0.61101  0.70680  0.67480  Biso   1.000  N
  N4       1.0000 0.88899  0.79320  0.17480  Biso   1.000  N
  N5       1.0000 0.88899  0.20680  0.67480  Biso   1.000  N
  N6       1.0000 0.61101  0.29320  0.17480  Biso   1.000  N
  N7       1.0000 0.38899  0.29320  0.32520  Biso   1.000  N
  N8       1.0000 0.11101  0.20680  0.82520  Biso   1.000  N
  N9       1.0000 0.03670  0.19020  0.47681  Biso   1.000  N
  N10      1.0000 0.46330  0.30980  0.97681  Biso   1.000  N
  N11      1.0000 0.53670  0.30980  0.52319  Biso   1.000  N
  N12      1.0000 0.96330  0.19020  0.02319  Biso   1.000  N
  N13      1.0000 0.96330  0.80980  0.52319  Biso   1.000  N
  N14      1.0000 0.53670  0.69020  0.02319  Biso   1.000  N
  N15      1.0000 0.46330  0.69020  0.47681  Biso   1.000  N
  N16      1.0000 0.03670  0.80980  0.97681  Biso   1.000  N
  N17      1.0000 0.00622  0.25660  0.36297  Biso   1.000  N
  N18      1.0000 0.49378  0.24340  0.86297  Biso   1.000  N
  N19      1.0000 0.50622  0.24340  0.63703  Biso   1.000  N
  N20      1.0000 0.99378  0.25660  0.13703  Biso   1.000  N
  N21      1.0000 0.99378  0.74340  0.63703  Biso   1.000  N
  N22      1.0000 0.50622  0.75660  0.13703  Biso   1.000  N
  N23      1.0000 0.49378  0.75660  0.36297  Biso   1.000  N
  N24      1.0000 0.00622  0.74340  0.86297  Biso   1.000  N
  N25      1.0000 0.30376  0.31780  0.71288  Biso   1.000  N
  N26      1.0000 0.19624  0.18220  0.21288  Biso   1.000  N
  N27      1.0000 0.80376  0.18220  0.28712  Biso   1.000  N
  N28      1.0000 0.69624  0.31780  0.78712  Biso   1.000  N
  N29      1.0000 0.69624  0.68220  0.28712  Biso   1.000  N
  N30      1.0000 0.80376  0.81780  0.78712  Biso   1.000  N
  N31      1.0000 0.19624  0.81780  0.71288  Biso   1.000  N
  N32      1.0000 0.30376  0.68220  0.21288  Biso   1.000  N
  N33      1.0000 0.40248  0.24860  0.74432  Biso   1.000  N
  N34      1.0000 0.09752  0.25140  0.24432  Biso   1.000  N
  N35      1.0000 0.90248  0.25140  0.25568  Biso   1.000  N
  N36      1.0000 0.59752  0.24860  0.75568  Biso   1.000  N
  N37      1.0000 0.59752  0.75140  0.25568  Biso   1.000  N
  N38      1.0000 0.90248  0.74860  0.75568  Biso   1.000  N
  N39      1.0000 0.09752  0.74860  0.74432  Biso   1.000  N
  N40      1.0000 0.40248  0.75140  0.24432  Biso   1.000  N
  C1       1.0000 0.14142  0.15080  0.54405  Biso   1.000  C
  C2       1.0000 0.35858  0.34920  0.04405  Biso   1.000  C
  C3       1.0000 0.64142  0.34920  0.45595  Biso   1.000  C
  C4       1.0000 0.85858  0.15080  0.95595  Biso   1.000  C
  C5       1.0000 0.85858  0.84920  0.45595  Biso   1.000  C
  C6       1.0000 0.64142  0.65080  0.95595  Biso   1.000  C
  C7       1.0000 0.35858  0.65080  0.54405  Biso   1.000  C
  C8       1.0000 0.14142  0.84920  0.04405  Biso   1.000  C
  C9       1.0000 0.16261  0.24700  0.60043  Biso   1.000  C
  C10      1.0000 0.33739  0.25300  0.10043  Biso   1.000  C
  C11      1.0000 0.66261  0.25300  0.39957  Biso   1.000  C
  C12      1.0000 0.83739  0.24700  0.89957  Biso   1.000  C
  C13      1.0000 0.83739  0.75300  0.39957  Biso   1.000  C
  C14      1.0000 0.66261  0.74700  0.89957  Biso   1.000  C
  C15      1.0000 0.33739  0.74700  0.60043  Biso   1.000  C
  C16      1.0000 0.16261  0.75300  0.10043  Biso   1.000  C
  H17      1.0000 0.13210  0.28830  0.63470  Biso   1.000  H
  H18      1.0000 0.36790  0.21170  0.13470  Biso   1.000  H
  H19      1.0000 0.63210  0.21170  0.36530  Biso   1.000  H
  H20      1.0000 0.86790  0.28830  0.86530  Biso   1.000  H
  H21      1.0000 0.86790  0.71170  0.36530  Biso   1.000  H
  H22      1.0000 0.63210  0.78830  0.86530  Biso   1.000  H
  H23      1.0000 0.36790  0.78830  0.63470  Biso   1.000  H
  H24      1.0000 0.13210  0.71170  0.13470  Biso   1.000  H
  C17      1.0000 0.22811  0.28240  0.60651  Biso   1.000  C
  C18      1.0000 0.27189  0.21760  0.10651  Biso   1.000  C
  C19      1.0000 0.72811  0.21760  0.39349  Biso   1.000  C
  C20      1.0000 0.77189  0.28240  0.89349  Biso   1.000  C
  C21      1.0000 0.77189  0.71760  0.39349  Biso   1.000  C
  C22      1.0000 0.72811  0.78240  0.89349  Biso   1.000  C
  C23      1.0000 0.27189  0.78240  0.60651  Biso   1.000  C
  C24      1.0000 0.22811  0.71760  0.10651  Biso   1.000  C
  C25      1.0000 0.27251  0.22200  0.55597  Biso   1.000  C
  C26      1.0000 0.22749  0.27800  0.05597  Biso   1.000  C
  C27      1.0000 0.77251  0.27800  0.44403  Biso   1.000  C
  C28      1.0000 0.72749  0.22200  0.94403  Biso   1.000  C
  C29      1.0000 0.72749  0.77800  0.44403  Biso   1.000  C
  C30      1.0000 0.77251  0.72200  0.94403  Biso   1.000  C
  C31      1.0000 0.22749  0.72200  0.55597  Biso   1.000  C
  C32      1.0000 0.27251  0.77800  0.05597  Biso   1.000  C
  H25      1.0000 0.31720  0.24740  0.55980  Biso   1.000  H
  H26      1.0000 0.18280  0.25260  0.05980  Biso   1.000  H
  H27      1.0000 0.81720  0.25260  0.44020  Biso   1.000  H
  H28      1.0000 0.68280  0.24740  0.94020  Biso   1.000  H
  H29      1.0000 0.68280  0.75260  0.44020  Biso   1.000  H
  H30      1.0000 0.81720  0.74740  0.94020  Biso   1.000  H
  H31      1.0000 0.18280  0.74740  0.55980  Biso   1.000  H
  H32      1.0000 0.31720  0.75260  0.05980  Biso   1.000  H
  C33      1.0000 0.25220  0.12430  0.49958  Biso   1.000  C
  C34      1.0000 0.24780  0.37570  0.99958  Biso   1.000  C
  C35      1.0000 0.75220  0.37570  0.50042  Biso   1.000  C
  C36      1.0000 0.74780  0.12430  0.00042  Biso   1.000  C
  C37      1.0000 0.74780  0.87570  0.50042  Biso   1.000  C
  C38      1.0000 0.75220  0.62430  0.00042  Biso   1.000  C
  C39      1.0000 0.24780  0.62430  0.49958  Biso   1.000  C
  C40      1.0000 0.25220  0.87570  0.99958  Biso   1.000  C
  C41      1.0000 0.18620  0.09010  0.49485  Biso   1.000  C
  C42      1.0000 0.31380  0.40990  0.99485  Biso   1.000  C
  C43      1.0000 0.68620  0.40990  0.50515  Biso   1.000  C
  C44      1.0000 0.81380  0.09010  0.00515  Biso   1.000  C
  C45      1.0000 0.81380  0.90990  0.50515  Biso   1.000  C
  C46      1.0000 0.68620  0.59010  0.00515  Biso   1.000  C
  C47      1.0000 0.31380  0.59010  0.49485  Biso   1.000  C
  C48      1.0000 0.18620  0.90990  0.99485  Biso   1.000  C
  H33      1.0000 0.17170  0.02370  0.45700  Biso   1.000  H
  H34      1.0000 0.32830  0.47630  0.95700  Biso   1.000  H
  H35      1.0000 0.67170  0.47630  0.54300  Biso   1.000  H
  H36      1.0000 0.82830  0.02370  0.04300  Biso   1.000  H
  H37      1.0000 0.82830  0.97630  0.54300  Biso   1.000  H
  H38      1.0000 0.67170  0.52370  0.04300  Biso   1.000  H
  H39      1.0000 0.32830  0.52370  0.45700  Biso   1.000  H
  H40      1.0000 0.17170  0.97630  0.95700  Biso   1.000  H
  C49      1.0000 0.07008  0.10930  0.53717  Biso   1.000  C
  C50      1.0000 0.42992  0.39070  0.03717  Biso   1.000  C
  C51      1.0000 0.57008  0.39070  0.46283  Biso   1.000  C
  C52      1.0000 0.92992  0.10930  0.96283  Biso   1.000  C
  C53      1.0000 0.92992  0.89070  0.46283  Biso   1.000  C
  C54      1.0000 0.57008  0.60930  0.96283  Biso   1.000  C
  C55      1.0000 0.42992  0.60930  0.53717  Biso   1.000  C
  C56      1.0000 0.07008  0.89070  0.03717  Biso   1.000  C
  H41      1.0000 0.06660  0.00190  0.52730  Biso   1.000  H
  H42      1.0000 0.43340  0.49810  0.02730  Biso   1.000  H
  H43      1.0000 0.56660  0.49810  0.47270  Biso   1.000  H
  H44      1.0000 0.93340  0.00190  0.97270  Biso   1.000  H
  H45      1.0000 0.93340  0.99810  0.47270  Biso   1.000  H
  H46      1.0000 0.56660  0.50190  0.97270  Biso   1.000  H
  H47      1.0000 0.43340  0.50190  0.52730  Biso   1.000  H
  H48      1.0000 0.06660  0.99810  0.02730  Biso   1.000  H
  H49      1.0000 0.04800  0.12990  0.58560  Biso   1.000  H
  H50      1.0000 0.45200  0.37010  0.08560  Biso   1.000  H
  H51      1.0000 0.54800  0.37010  0.41440  Biso   1.000  H
  H52      1.0000 0.95200  0.12990  0.91440  Biso   1.000  H
  H53      1.0000 0.95200  0.87010  0.41440  Biso   1.000  H
  H54      1.0000 0.54800  0.62990  0.91440  Biso   1.000  H
  H55      1.0000 0.45200  0.62990  0.58560  Biso   1.000  H
  H56      1.0000 0.04800  0.87010  0.08560  Biso   1.000  H
  C57      1.0000 0.04329  0.16620  0.40244  Biso   1.000  C
  C58      1.0000 0.45671  0.33380  0.90244  Biso   1.000  C
  C59      1.0000 0.54329  0.33380  0.59756  Biso   1.000  C
  C60      1.0000 0.95671  0.16620  0.09756  Biso   1.000  C
  C61      1.0000 0.95671  0.83380  0.59756  Biso   1.000  C
  C62      1.0000 0.54329  0.66620  0.09756  Biso   1.000  C
  C63      1.0000 0.45671  0.66620  0.40244  Biso   1.000  C
  C64      1.0000 0.04329  0.83380  0.90244  Biso   1.000  C
  H57      1.0000 0.07110  0.09340  0.38110  Biso   1.000  H
  H58      1.0000 0.42890  0.40660  0.88110  Biso   1.000  H
  H59      1.0000 0.57110  0.40660  0.61890  Biso   1.000  H
  H60      1.0000 0.92890  0.09340  0.11890  Biso   1.000  H
  H61      1.0000 0.92890  0.90660  0.61890  Biso   1.000  H
  H62      1.0000 0.57110  0.59340  0.11890  Biso   1.000  H
  H63      1.0000 0.42890  0.59340  0.38110  Biso   1.000  H
  H64      1.0000 0.07110  0.90660  0.88110  Biso   1.000  H
  C65      1.0000 0.97482  0.34290  0.41460  Biso   1.000  C
  C66      1.0000 0.52518  0.15710  0.91460  Biso   1.000  C
  C67      1.0000 0.47482  0.15710  0.58540  Biso   1.000  C
  C68      1.0000 0.02518  0.34290  0.08540  Biso   1.000  C
  C69      1.0000 0.02518  0.65710  0.58540  Biso   1.000  C
  C70      1.0000 0.47482  0.84290  0.08540  Biso   1.000  C
  C71      1.0000 0.52518  0.84290  0.41460  Biso   1.000  C
  C72      1.0000 0.97482  0.65710  0.91460  Biso   1.000  C
  H65      1.0000 0.94460  0.41910  0.40300  Biso   1.000  H
  H66      1.0000 0.55540  0.08090  0.90300  Biso   1.000  H
  H67      1.0000 0.44460  0.08090  0.59700  Biso   1.000  H
  H68      1.0000 0.05540  0.41910  0.09700  Biso   1.000  H
  H69      1.0000 0.05540  0.58090  0.59700  Biso   1.000  H
  H70      1.0000 0.44460  0.91910  0.09700  Biso   1.000  H
  H71      1.0000 0.55540  0.91910  0.40300  Biso   1.000  H
  H72      1.0000 0.94460  0.58090  0.90300  Biso   1.000  H
  C73      1.0000 0.99338  0.30290  0.48500  Biso   1.000  C
  C74      1.0000 0.50662  0.19710  0.98500  Biso   1.000  C
  C75      1.0000 0.49338  0.19710  0.51500  Biso   1.000  C
  C76      1.0000 0.00662  0.30290  0.01500  Biso   1.000  C
  C77      1.0000 0.00662  0.69710  0.51500  Biso   1.000  C
  C78      1.0000 0.49338  0.80290  0.01500  Biso   1.000  C
  C79      1.0000 0.50662  0.80290  0.48500  Biso   1.000  C
  C80      1.0000 0.99338  0.69710  0.98500  Biso   1.000  C
  H73      1.0000 0.97900  0.34530  0.53110  Biso   1.000  H
  H74      1.0000 0.52100  0.15470  0.03110  Biso   1.000  H
  H75      1.0000 0.47900  0.15470  0.46890  Biso   1.000  H
  H76      1.0000 0.02100  0.34530  0.96890  Biso   1.000  H
  H77      1.0000 0.02100  0.65470  0.46890  Biso   1.000  H
  H78      1.0000 0.47900  0.84530  0.96890  Biso   1.000  H
  H79      1.0000 0.52100  0.84530  0.53110  Biso   1.000  H
  H80      1.0000 0.97900  0.65470  0.03110  Biso   1.000  H
  C81      1.0000 0.25144  0.38490  0.66870  Biso   1.000  C
  C82      1.0000 0.24856  0.11510  0.16870  Biso   1.000  C
  C83      1.0000 0.75144  0.11510  0.33130  Biso   1.000  C
  C84      1.0000 0.74856  0.38490  0.83130  Biso   1.000  C
  C85      1.0000 0.74856  0.61510  0.33130  Biso   1.000  C
  C86      1.0000 0.75144  0.88490  0.83130  Biso   1.000  C
  C87      1.0000 0.24856  0.88490  0.66870  Biso   1.000  C
  C88      1.0000 0.25144  0.61510  0.16870  Biso   1.000  C
  H81      1.0000 0.26720  0.47830  0.64610  Biso   1.000  H
  H82      1.0000 0.23280  0.02170  0.14610  Biso   1.000  H
  H83      1.0000 0.76720  0.02170  0.35390  Biso   1.000  H
  H84      1.0000 0.73280  0.47830  0.85390  Biso   1.000  H
  H85      1.0000 0.73280  0.52170  0.35390  Biso   1.000  H
  H86      1.0000 0.76720  0.97830  0.85390  Biso   1.000  H
  H87      1.0000 0.23280  0.97830  0.64610  Biso   1.000  H
  H88      1.0000 0.26720  0.52170  0.14610  Biso   1.000  H
  H89      1.0000 0.21450  0.40880  0.70240  Biso   1.000  H
  H90      1.0000 0.28550  0.09120  0.20240  Biso   1.000  H
  H91      1.0000 0.71450  0.09120  0.29760  Biso   1.000  H
  H92      1.0000 0.78550  0.40880  0.79760  Biso   1.000  H
  H93      1.0000 0.78550  0.59120  0.29760  Biso   1.000  H
  H94      1.0000 0.71450  0.90880  0.79760  Biso   1.000  H
  H95      1.0000 0.28550  0.90880  0.70240  Biso   1.000  H
  H96      1.0000 0.21450  0.59120  0.20240  Biso   1.000  H
  C89      1.0000 0.36776  0.33810  0.70215  Biso   1.000  C
  C90      1.0000 0.13224  0.16190  0.20215  Biso   1.000  C
  C91      1.0000 0.86776  0.16190  0.29785  Biso   1.000  C
  C92      1.0000 0.63224  0.33810  0.79785  Biso   1.000  C
  C93      1.0000 0.63224  0.66190  0.29785  Biso   1.000  C
  C94      1.0000 0.86776  0.83810  0.79785  Biso   1.000  C
  C95      1.0000 0.13224  0.83810  0.70215  Biso   1.000  C
  C96      1.0000 0.36776  0.66190  0.20215  Biso   1.000  C
  H97      1.0000 0.11430  0.09160  0.16830  Biso   1.000  H
  H98      1.0000 0.38570  0.40840  0.66830  Biso   1.000  H
  H99      1.0000 0.61430  0.40840  0.83170  Biso   1.000  H
  H100     1.0000 0.88570  0.09160  0.33170  Biso   1.000  H
  H101     1.0000 0.88570  0.90840  0.83170  Biso   1.000  H
  H102     1.0000 0.61430  0.59160  0.33170  Biso   1.000  H
  H103     1.0000 0.38570  0.59160  0.16830  Biso   1.000  H
  H104     1.0000 0.11430  0.90840  0.66830  Biso   1.000  H
  C97      1.0000 0.14215  0.33270  0.28519  Biso   1.000  C
  C98      1.0000 0.35785  0.16730  0.78519  Biso   1.000  C
  C99      1.0000 0.64215  0.16730  0.71481  Biso   1.000  C
  C100     1.0000 0.85785  0.33270  0.21481  Biso   1.000  C
  C101     1.0000 0.85785  0.66730  0.71481  Biso   1.000  C
  C102     1.0000 0.64215  0.83270  0.21481  Biso   1.000  C
  C103     1.0000 0.35785  0.83270  0.28519  Biso   1.000  C
  C104     1.0000 0.14215  0.66730  0.78519  Biso   1.000  C
  H105     1.0000 0.13170  0.40640  0.32140  Biso   1.000  H
  H106     1.0000 0.36830  0.09360  0.82140  Biso   1.000  H
  H107     1.0000 0.63170  0.09360  0.67860  Biso   1.000  H
  H108     1.0000 0.86830  0.40640  0.17860  Biso   1.000  H
  H109     1.0000 0.86830  0.59360  0.67860  Biso   1.000  H
  H110     1.0000 0.63170  0.90640  0.17860  Biso   1.000  H
  H111     1.0000 0.36830  0.90640  0.32140  Biso   1.000  H
  H112     1.0000 0.13170  0.59360  0.82140  Biso   1.000  H
  C105     1.0000 0.29704  0.20890  0.76565  Biso   1.000  C
  C106     1.0000 0.20296  0.29110  0.26565  Biso   1.000  C
  C107     1.0000 0.79704  0.29110  0.23435  Biso   1.000  C
  C108     1.0000 0.70296  0.20890  0.73435  Biso   1.000  C
  C109     1.0000 0.70296  0.79110  0.23435  Biso   1.000  C
  C110     1.0000 0.79704  0.70890  0.73435  Biso   1.000  C
  C111     1.0000 0.20296  0.70890  0.76565  Biso   1.000  C
  C112     1.0000 0.29704  0.79110  0.26565  Biso   1.000  C
  H113     1.0000 0.25740  0.17010  0.78480  Biso   1.000  H
  H114     1.0000 0.24260  0.32990  0.28480  Biso   1.000  H
  H115     1.0000 0.75740  0.32990  0.21520  Biso   1.000  H
  H116     1.0000 0.74260  0.17010  0.71520  Biso   1.000  H
  H117     1.0000 0.74260  0.82990  0.21520  Biso   1.000  H
  H118     1.0000 0.75740  0.67010  0.71520  Biso   1.000  H
  H119     1.0000 0.24260  0.67010  0.78480  Biso   1.000  H
  H120     1.0000 0.25740  0.82990  0.28480  Biso   1.000  H
  C113     1.0000 0.30070  0.05520  0.44640  Biso   1.000  C
  C114     1.0000 0.19930  0.44480  0.94640  Biso   1.000  C
  C115     1.0000 0.80070  0.44480  0.55360  Biso   1.000  C
  C116     1.0000 0.69930  0.05520  0.05360  Biso   1.000  C
  C117     1.0000 0.69930  0.94480  0.55360  Biso   1.000  C
  C118     1.0000 0.80070  0.55520  0.05360  Biso   1.000  C
  C119     1.0000 0.19930  0.55520  0.44640  Biso   1.000  C
  C120     1.0000 0.30070  0.94480  0.94640  Biso   1.000  C
  H121     1.0000 0.29830  0.94730  0.45050  Biso   1.000  H
  H122     1.0000 0.20170  0.55270  0.95050  Biso   1.000  H
  H123     1.0000 0.79830  0.55270  0.54950  Biso   1.000  H
  H124     1.0000 0.70170  0.94730  0.04950  Biso   1.000  H
  H125     1.0000 0.70170  0.05270  0.54950  Biso   1.000  H
  H126     1.0000 0.79830  0.44730  0.04950  Biso   1.000  H
  H127     1.0000 0.20170  0.44730  0.45050  Biso   1.000  H
  H128     1.0000 0.29830  0.05270  0.95050  Biso   1.000  H
  H129     1.0000 0.34460  0.08840  0.45950  Biso   1.000  H
  H130     1.0000 0.15540  0.41160  0.95950  Biso   1.000  H
  H131     1.0000 0.84460  0.41160  0.54050  Biso   1.000  H
  H132     1.0000 0.65540  0.08840  0.04050  Biso   1.000  H
  H133     1.0000 0.65540  0.91160  0.54050  Biso   1.000  H
  H134     1.0000 0.84460  0.58840  0.04050  Biso   1.000  H
  H135     1.0000 0.15540  0.58840  0.45950  Biso   1.000  H
  H136     1.0000 0.34460  0.91160  0.95950  Biso   1.000  H
  H137     1.0000 0.29060  0.08500  0.39460  Biso   1.000  H
  H138     1.0000 0.20940  0.41500  0.89460  Biso   1.000  H
  H139     1.0000 0.79060  0.41500  0.60540  Biso   1.000  H
  H140     1.0000 0.70940  0.08500  0.10540  Biso   1.000  H
  H141     1.0000 0.70940  0.91500  0.60540  Biso   1.000  H
  H142     1.0000 0.79060  0.58500  0.10540  Biso   1.000  H
  H143     1.0000 0.20940  0.58500  0.39460  Biso   1.000  H
  H144     1.0000 0.29060  0.91500  0.89460  Biso   1.000  H
