data_image0
_cell_length_a       9.2442
_cell_length_b       26.9115
_cell_length_c       13.167
_cell_angle_alpha    90
_cell_angle_beta     90.408
_cell_angle_gamma    90

_symmetry_space_group_name_H-M    "P 1"
_symmetry_int_tables_number       1

loop_
  _symmetry_equiv_pos_as_xyz
  'x, y, z'

loop_
  _atom_site_label
  _atom_site_occupancy
  _atom_site_fract_x
  _atom_site_fract_y
  _atom_site_fract_z
  _atom_site_thermal_displace_type
  _atom_site_B_iso_or_equiv
  _atom_site_type_symbol
  Cu1      1.0000 0.07805  0.48982  0.41888  Biso   1.000  Cu
  Cu2      1.0000 0.92195  0.98982  0.08112  Biso   1.000  Cu
  Cu3      1.0000 0.92195  0.51018  0.58112  Biso   1.000  Cu
  Cu4      1.0000 0.07805  0.01018  0.91888  Biso   1.000  Cu
  O1       1.0000 0.22860  0.52000  0.50410  Biso   1.000  O
  O2       1.0000 0.77140  0.02000  0.99590  Biso   1.000  O
  O3       1.0000 0.77140  0.48000  0.49590  Biso   1.000  O
  O4       1.0000 0.22860  0.98000  0.00410  Biso   1.000  O
  O5       1.0000 0.09680  0.54038  0.63880  Biso   1.000  O
  O6       1.0000 0.90320  0.04038  0.86120  Biso   1.000  O
  O7       1.0000 0.90320  0.45962  0.36120  Biso   1.000  O
  O8       1.0000 0.09680  0.95962  0.13880  Biso   1.000  O
  O9       1.0000 0.89020  0.92668  0.00970  Biso   1.000  O
  O10      1.0000 0.10980  0.42668  0.49030  Biso   1.000  O
  O11      1.0000 0.10980  0.07332  0.99030  Biso   1.000  O
  O12      1.0000 0.89020  0.57332  0.50970  Biso   1.000  O
  O13      1.0000 0.01870  0.94383  0.87220  Biso   1.000  O
  O14      1.0000 0.98130  0.44383  0.62780  Biso   1.000  O
  O15      1.0000 0.98130  0.05617  0.12780  Biso   1.000  O
  O16      1.0000 0.01870  0.55617  0.37220  Biso   1.000  O
  N1       1.0000 0.68330  0.65994  0.72110  Biso   1.000  N
  N2       1.0000 0.31670  0.15994  0.77890  Biso   1.000  N
  N3       1.0000 0.31670  0.34006  0.27890  Biso   1.000  N
  N4       1.0000 0.68330  0.84006  0.22110  Biso   1.000  N
  N5       1.0000 0.80660  0.72377  0.76980  Biso   1.000  N
  N6       1.0000 0.19340  0.22377  0.73020  Biso   1.000  N
  N7       1.0000 0.19340  0.27623  0.23020  Biso   1.000  N
  N8       1.0000 0.80660  0.77623  0.26980  Biso   1.000  N
  C1       1.0000 0.67350  0.70669  0.75150  Biso   1.000  C
  C2       1.0000 0.32650  0.20669  0.74850  Biso   1.000  C
  C3       1.0000 0.32650  0.29331  0.24850  Biso   1.000  C
  C4       1.0000 0.67350  0.79331  0.25150  Biso   1.000  C
  H1       1.0000 0.58630  0.72500  0.75900  Biso   1.000  H
  H2       1.0000 0.41370  0.22500  0.74100  Biso   1.000  H
  H3       1.0000 0.41370  0.27500  0.24100  Biso   1.000  H
  H4       1.0000 0.58630  0.77500  0.25900  Biso   1.000  H
  C5       1.0000 0.82800  0.64630  0.72100  Biso   1.000  C
  C6       1.0000 0.17200  0.14630  0.77900  Biso   1.000  C
  C7       1.0000 0.17200  0.35370  0.27900  Biso   1.000  C
  C8       1.0000 0.82800  0.85370  0.22100  Biso   1.000  C
  H5       1.0000 0.86590  0.61470  0.70330  Biso   1.000  H
  H6       1.0000 0.13410  0.11470  0.79670  Biso   1.000  H
  H7       1.0000 0.13410  0.38530  0.29670  Biso   1.000  H
  H8       1.0000 0.86590  0.88530  0.20330  Biso   1.000  H
  C9       1.0000 0.90460  0.68625  0.75080  Biso   1.000  C
  C10      1.0000 0.09540  0.18625  0.74920  Biso   1.000  C
  C11      1.0000 0.09540  0.31375  0.24920  Biso   1.000  C
  C12      1.0000 0.90460  0.81375  0.25080  Biso   1.000  C
  H9       1.0000 0.00680  0.68830  0.75760  Biso   1.000  H
  H10      1.0000 0.99320  0.18830  0.74240  Biso   1.000  H
  H11      1.0000 0.99320  0.31170  0.24240  Biso   1.000  H
  H12      1.0000 0.00680  0.81170  0.25760  Biso   1.000  H
  C13      1.0000 0.56310  0.62881  0.69140  Biso   1.000  C
  C14      1.0000 0.43690  0.12881  0.80860  Biso   1.000  C
  C15      1.0000 0.43690  0.37119  0.30860  Biso   1.000  C
  C16      1.0000 0.56310  0.87119  0.19140  Biso   1.000  C
  C17      1.0000 0.58360  0.59535  0.61290  Biso   1.000  C
  C18      1.0000 0.41640  0.09535  0.88710  Biso   1.000  C
  C19      1.0000 0.41640  0.40465  0.38710  Biso   1.000  C
  C20      1.0000 0.58360  0.90465  0.11290  Biso   1.000  C
  H13      1.0000 0.67520  0.59250  0.58110  Biso   1.000  H
  H14      1.0000 0.32480  0.09250  0.91890  Biso   1.000  H
  H15      1.0000 0.32480  0.40750  0.41890  Biso   1.000  H
  H16      1.0000 0.67520  0.90750  0.08110  Biso   1.000  H
  C21      1.0000 0.46890  0.56632  0.58160  Biso   1.000  C
  C22      1.0000 0.53110  0.06632  0.91840  Biso   1.000  C
  C23      1.0000 0.53110  0.43368  0.41840  Biso   1.000  C
  C24      1.0000 0.46890  0.93368  0.08160  Biso   1.000  C
  H17      1.0000 0.48130  0.54320  0.52780  Biso   1.000  H
  H18      1.0000 0.51870  0.04320  0.97220  Biso   1.000  H
  H19      1.0000 0.51870  0.45680  0.47220  Biso   1.000  H
  H20      1.0000 0.48130  0.95680  0.02780  Biso   1.000  H
  C25      1.0000 0.33610  0.57057  0.62810  Biso   1.000  C
  C26      1.0000 0.66390  0.07057  0.87190  Biso   1.000  C
  C27      1.0000 0.66390  0.42943  0.37190  Biso   1.000  C
  C28      1.0000 0.33610  0.92943  0.12810  Biso   1.000  C
  C29      1.0000 0.31840  0.60413  0.70740  Biso   1.000  C
  C30      1.0000 0.68160  0.10413  0.79260  Biso   1.000  C
  C31      1.0000 0.68160  0.39587  0.29260  Biso   1.000  C
  C32      1.0000 0.31840  0.89587  0.20740  Biso   1.000  C
  H21      1.0000 0.22700  0.60700  0.73940  Biso   1.000  H
  H22      1.0000 0.77300  0.10700  0.76060  Biso   1.000  H
  H23      1.0000 0.77300  0.39300  0.26060  Biso   1.000  H
  H24      1.0000 0.22700  0.89300  0.23940  Biso   1.000  H
  C33      1.0000 0.43250  0.63344  0.74020  Biso   1.000  C
  C34      1.0000 0.56750  0.13344  0.75980  Biso   1.000  C
  C35      1.0000 0.56750  0.36656  0.25980  Biso   1.000  C
  C36      1.0000 0.43250  0.86656  0.24020  Biso   1.000  C
  H25      1.0000 0.42110  0.65610  0.79480  Biso   1.000  H
  H26      1.0000 0.57890  0.15610  0.70520  Biso   1.000  H
  H27      1.0000 0.57890  0.34390  0.20520  Biso   1.000  H
  H28      1.0000 0.42110  0.84390  0.29480  Biso   1.000  H
  C37      1.0000 0.21010  0.54091  0.58790  Biso   1.000  C
  C38      1.0000 0.78990  0.04091  0.91210  Biso   1.000  C
  C39      1.0000 0.78990  0.45909  0.41210  Biso   1.000  C
  C40      1.0000 0.21010  0.95909  0.08790  Biso   1.000  C
  C41      1.0000 0.84040  0.77288  0.80720  Biso   1.000  C
  C42      1.0000 0.15960  0.27288  0.69280  Biso   1.000  C
  C43      1.0000 0.15960  0.22712  0.19280  Biso   1.000  C
  C44      1.0000 0.84040  0.72712  0.30720  Biso   1.000  C
  C45      1.0000 0.94390  0.80130  0.75710  Biso   1.000  C
  C46      1.0000 0.05610  0.30130  0.74290  Biso   1.000  C
  C47      1.0000 0.05610  0.19870  0.24290  Biso   1.000  C
  C48      1.0000 0.94390  0.69870  0.25710  Biso   1.000  C
  H29      1.0000 0.99160  0.78910  0.69850  Biso   1.000  H
  H30      1.0000 0.00840  0.28910  0.80150  Biso   1.000  H
  H31      1.0000 0.00840  0.21090  0.30150  Biso   1.000  H
  H32      1.0000 0.99160  0.71090  0.19850  Biso   1.000  H
  C49      1.0000 0.97460  0.84770  0.79550  Biso   1.000  C
  C50      1.0000 0.02540  0.34770  0.70450  Biso   1.000  C
  C51      1.0000 0.02540  0.15230  0.20450  Biso   1.000  C
  C52      1.0000 0.97460  0.65230  0.29550  Biso   1.000  C
  H33      1.0000 0.04480  0.86790  0.76290  Biso   1.000  H
  H34      1.0000 0.95520  0.36790  0.73710  Biso   1.000  H
  H35      1.0000 0.95520  0.13210  0.23710  Biso   1.000  H
  H36      1.0000 0.04480  0.63210  0.26290  Biso   1.000  H
  C53      1.0000 0.90430  0.86583  0.88190  Biso   1.000  C
  C54      1.0000 0.09570  0.36583  0.61810  Biso   1.000  C
  C55      1.0000 0.09570  0.13417  0.11810  Biso   1.000  C
  C56      1.0000 0.90430  0.63417  0.38190  Biso   1.000  C
  C57      1.0000 0.79990  0.83640  0.92670  Biso   1.000  C
  C58      1.0000 0.20010  0.33640  0.57330  Biso   1.000  C
  C59      1.0000 0.20010  0.16360  0.07330  Biso   1.000  C
  C60      1.0000 0.79990  0.66360  0.42670  Biso   1.000  C
  H37      1.0000 0.74980  0.84840  0.98450  Biso   1.000  H
  H38      1.0000 0.25020  0.34840  0.51550  Biso   1.000  H
  H39      1.0000 0.25020  0.15160  0.01550  Biso   1.000  H
  H40      1.0000 0.74980  0.65160  0.48450  Biso   1.000  H
  C61      1.0000 0.76750  0.79000  0.88870  Biso   1.000  C
  C62      1.0000 0.23250  0.29000  0.61130  Biso   1.000  C
  C63      1.0000 0.23250  0.21000  0.11130  Biso   1.000  C
  C64      1.0000 0.76750  0.71000  0.38870  Biso   1.000  C
  H41      1.0000 0.69470  0.77030  0.91940  Biso   1.000  H
  H42      1.0000 0.30530  0.27030  0.58060  Biso   1.000  H
  H43      1.0000 0.30530  0.22970  0.08060  Biso   1.000  H
  H44      1.0000 0.69470  0.72970  0.41940  Biso   1.000  H
  C65      1.0000 0.94030  0.91608  0.92370  Biso   1.000  C
  C66      1.0000 0.05970  0.41608  0.57630  Biso   1.000  C
  C67      1.0000 0.05970  0.08392  0.07630  Biso   1.000  C
  C68      1.0000 0.94030  0.58392  0.42370  Biso   1.000  C
  O17      1.0000 0.19820  0.47408  0.28580  Biso   1.000  O
  O18      1.0000 0.80180  0.97408  0.21420  Biso   1.000  O
  O19      1.0000 0.80180  0.52592  0.71420  Biso   1.000  O
  O20      1.0000 0.19820  0.02592  0.78580  Biso   1.000  O
  N9       1.0000 0.37050  0.48412  0.16420  Biso   1.000  N
  N10      1.0000 0.62950  0.98412  0.33580  Biso   1.000  N
  N11      1.0000 0.62950  0.51588  0.83580  Biso   1.000  N
  N12      1.0000 0.37050  0.01588  0.66420  Biso   1.000  N
  C69      1.0000 0.29970  0.49775  0.24820  Biso   1.000  C
  C70      1.0000 0.70030  0.99775  0.25180  Biso   1.000  C
  C71      1.0000 0.70030  0.50225  0.75180  Biso   1.000  C
  C72      1.0000 0.29970  0.00225  0.74820  Biso   1.000  C
  C73      1.0000 0.36320  0.54620  0.28560  Biso   1.000  C
  C74      1.0000 0.63680  0.04620  0.21440  Biso   1.000  C
  C75      1.0000 0.63680  0.45380  0.71440  Biso   1.000  C
  C76      1.0000 0.36320  0.95380  0.78560  Biso   1.000  C
  H45      1.0000 0.37730  0.54550  0.36020  Biso   1.000  H
  H46      1.0000 0.62270  0.04550  0.13980  Biso   1.000  H
  H47      1.0000 0.62270  0.45450  0.63980  Biso   1.000  H
  H48      1.0000 0.37730  0.95450  0.86020  Biso   1.000  H
  H49      1.0000 0.29970  0.57450  0.26750  Biso   1.000  H
  H50      1.0000 0.70030  0.07450  0.23250  Biso   1.000  H
  H51      1.0000 0.70030  0.42550  0.73250  Biso   1.000  H
  H52      1.0000 0.29970  0.92550  0.76750  Biso   1.000  H
  C77      1.0000 0.50830  0.54980  0.23090  Biso   1.000  C
  C78      1.0000 0.49170  0.04980  0.26910  Biso   1.000  C
  C79      1.0000 0.49170  0.45020  0.76910  Biso   1.000  C
  C80      1.0000 0.50830  0.95020  0.73090  Biso   1.000  C
  H53      1.0000 0.53170  0.58470  0.21390  Biso   1.000  H
  H54      1.0000 0.46830  0.08470  0.28610  Biso   1.000  H
  H55      1.0000 0.46830  0.41530  0.78610  Biso   1.000  H
  H56      1.0000 0.53170  0.91530  0.71390  Biso   1.000  H
  H57      1.0000 0.58750  0.53570  0.27290  Biso   1.000  H
  H58      1.0000 0.41250  0.03570  0.22710  Biso   1.000  H
  H59      1.0000 0.41250  0.46430  0.72710  Biso   1.000  H
  H60      1.0000 0.58750  0.96430  0.77290  Biso   1.000  H
  C81      1.0000 0.48290  0.51880  0.13480  Biso   1.000  C
  C82      1.0000 0.51710  0.01880  0.36520  Biso   1.000  C
  C83      1.0000 0.51710  0.48120  0.86520  Biso   1.000  C
  C84      1.0000 0.48290  0.98120  0.63480  Biso   1.000  C
  H61      1.0000 0.45030  0.54000  0.07760  Biso   1.000  H
  H62      1.0000 0.54970  0.04000  0.42240  Biso   1.000  H
  H63      1.0000 0.54970  0.46000  0.92240  Biso   1.000  H
  H64      1.0000 0.45030  0.96000  0.57760  Biso   1.000  H
  H65      1.0000 0.57210  0.50110  0.11480  Biso   1.000  H
  H66      1.0000 0.42790  0.00110  0.38520  Biso   1.000  H
  H67      1.0000 0.42790  0.49890  0.88520  Biso   1.000  H
  H68      1.0000 0.57210  0.99890  0.61480  Biso   1.000  H
  C85      1.0000 0.32610  0.44330  0.09780  Biso   1.000  C
  C86      1.0000 0.67390  0.94330  0.40220  Biso   1.000  C
  C87      1.0000 0.67390  0.55670  0.90220  Biso   1.000  C
  C88      1.0000 0.32610  0.05670  0.59780  Biso   1.000  C
  H69      1.0000 0.39420  0.44040  0.04150  Biso   1.000  H
  H70      1.0000 0.60580  0.94040  0.45850  Biso   1.000  H
  H71      1.0000 0.60580  0.55960  0.95850  Biso   1.000  H
  H72      1.0000 0.39420  0.05960  0.54150  Biso   1.000  H
  H73      1.0000 0.32530  0.41220  0.13660  Biso   1.000  H
  H74      1.0000 0.67470  0.91220  0.36340  Biso   1.000  H
  H75      1.0000 0.67470  0.58780  0.86340  Biso   1.000  H
  H76      1.0000 0.32530  0.08780  0.63660  Biso   1.000  H
  H77      1.0000 0.22890  0.44990  0.07090  Biso   1.000  H
  H78      1.0000 0.77110  0.94990  0.42910  Biso   1.000  H
  H79      1.0000 0.77110  0.55010  0.92910  Biso   1.000  H
  H80      1.0000 0.22890  0.05010  0.57090  Biso   1.000  H
  Cl1      1.0000 0.57890  0.68567  0.04024  Biso   1.000  Cl
  Cl2      1.0000 0.42110  0.18567  0.45976  Biso   1.000  Cl
  Cl3      1.0000 0.42110  0.31433  0.95976  Biso   1.000  Cl
  Cl4      1.0000 0.57890  0.81433  0.54024  Biso   1.000  Cl
  O21      1.0000 0.71860  0.67230  0.00300  Biso   1.000  O
  O22      1.0000 0.28140  0.17230  0.49700  Biso   1.000  O
  O23      1.0000 0.28140  0.32770  0.99700  Biso   1.000  O
  O24      1.0000 0.71860  0.82770  0.50300  Biso   1.000  O
  O25      1.0000 0.53300  0.69850  0.94410  Biso   1.000  O
  O26      1.0000 0.46700  0.19850  0.55590  Biso   1.000  O
  O27      1.0000 0.46700  0.30150  0.05590  Biso   1.000  O
  O28      1.0000 0.53300  0.80150  0.44410  Biso   1.000  O
  O29      1.0000 0.60820  0.72780  0.09770  Biso   1.000  O
  O30      1.0000 0.39180  0.22780  0.40230  Biso   1.000  O
  O31      1.0000 0.39180  0.27220  0.90230  Biso   1.000  O
  O32      1.0000 0.60820  0.77220  0.59770  Biso   1.000  O
  O33      1.0000 0.51800  0.64460  0.08270  Biso   1.000  O
  O34      1.0000 0.48200  0.14460  0.41730  Biso   1.000  O
  O35      1.0000 0.48200  0.35540  0.91730  Biso   1.000  O
  O36      1.0000 0.51800  0.85540  0.58270  Biso   1.000  O
  O37      1.0000 0.21630  0.71705  0.81380  Biso   1.000  O
  O38      1.0000 0.78370  0.21705  0.68620  Biso   1.000  O
  O39      1.0000 0.78370  0.28295  0.18620  Biso   1.000  O
  O40      1.0000 0.21630  0.78295  0.31380  Biso   1.000  O
  N13      1.0000 0.29150  0.79080  0.88100  Biso   1.000  N
  N14      1.0000 0.70850  0.29080  0.61900  Biso   1.000  N
  N15      1.0000 0.70850  0.20920  0.11900  Biso   1.000  N
  N16      1.0000 0.29150  0.70920  0.38100  Biso   1.000  N
  C89      1.0000 0.22680  0.74630  0.88550  Biso   1.000  C
  C90      1.0000 0.77320  0.24630  0.61450  Biso   1.000  C
  C91      1.0000 0.77320  0.25370  0.11450  Biso   1.000  C
  C92      1.0000 0.22680  0.75370  0.38550  Biso   1.000  C
  C93      1.0000 0.16800  0.73800  0.98810  Biso   1.000  C
  C94      1.0000 0.83200  0.23800  0.51190  Biso   1.000  C
  C95      1.0000 0.83200  0.26200  0.01190  Biso   1.000  C
  C96      1.0000 0.16800  0.76200  0.48810  Biso   1.000  C
  H81      1.0000 0.22150  0.71130  0.02380  Biso   1.000  H
  H82      1.0000 0.77850  0.21130  0.47620  Biso   1.000  H
  H83      1.0000 0.77850  0.28870  0.97620  Biso   1.000  H
  H84      1.0000 0.22150  0.78870  0.52380  Biso   1.000  H
  H85      1.0000 0.06420  0.72900  0.98470  Biso   1.000  H
  H86      1.0000 0.93580  0.22900  0.51530  Biso   1.000  H
  H87      1.0000 0.93580  0.27100  0.01530  Biso   1.000  H
  H88      1.0000 0.06420  0.77100  0.48470  Biso   1.000  H
  C97      1.0000 0.19020  0.78840  0.04100  Biso   1.000  C
  C98      1.0000 0.80980  0.28840  0.45900  Biso   1.000  C
  C99      1.0000 0.80980  0.21160  0.95900  Biso   1.000  C
  C100     1.0000 0.19020  0.71160  0.54100  Biso   1.000  C
  H89      1.0000 0.23150  0.78360  0.10990  Biso   1.000  H
  H90      1.0000 0.76850  0.28360  0.39010  Biso   1.000  H
  H91      1.0000 0.76850  0.21640  0.89010  Biso   1.000  H
  H92      1.0000 0.23150  0.71640  0.60990  Biso   1.000  H
  H93      1.0000 0.09690  0.80610  0.04720  Biso   1.000  H
  H94      1.0000 0.90310  0.30610  0.45280  Biso   1.000  H
  H95      1.0000 0.90310  0.19390  0.95280  Biso   1.000  H
  H96      1.0000 0.09690  0.69390  0.54720  Biso   1.000  H
  C101     1.0000 0.29590  0.81840  0.97400  Biso   1.000  C
  C102     1.0000 0.70410  0.31840  0.52600  Biso   1.000  C
  C103     1.0000 0.70410  0.18160  0.02600  Biso   1.000  C
  C104     1.0000 0.29590  0.68160  0.47400  Biso   1.000  C
  H97      1.0000 0.26200  0.85290  0.96400  Biso   1.000  H
  H98      1.0000 0.73800  0.35290  0.53600  Biso   1.000  H
  H99      1.0000 0.73800  0.14710  0.03600  Biso   1.000  H
  H100     1.0000 0.26200  0.64710  0.46400  Biso   1.000  H
  H101     1.0000 0.39460  0.81890  0.00370  Biso   1.000  H
  H102     1.0000 0.60540  0.31890  0.49630  Biso   1.000  H
  H103     1.0000 0.60540  0.18110  0.99630  Biso   1.000  H
  H104     1.0000 0.39460  0.68110  0.50370  Biso   1.000  H
  C105     1.0000 0.36410  0.80740  0.79760  Biso   1.000  C
  C106     1.0000 0.63590  0.30740  0.70240  Biso   1.000  C
  C107     1.0000 0.63590  0.19260  0.20240  Biso   1.000  C
  C108     1.0000 0.36410  0.69260  0.29760  Biso   1.000  C
  H105     1.0000 0.40250  0.84070  0.81110  Biso   1.000  H
  H106     1.0000 0.59750  0.34070  0.68890  Biso   1.000  H
  H107     1.0000 0.59750  0.15930  0.18890  Biso   1.000  H
  H108     1.0000 0.40250  0.65930  0.31110  Biso   1.000  H
  H109     1.0000 0.44410  0.78480  0.78260  Biso   1.000  H
  H110     1.0000 0.55590  0.28480  0.71740  Biso   1.000  H
  H111     1.0000 0.55590  0.21520  0.21740  Biso   1.000  H
  H112     1.0000 0.44410  0.71520  0.28260  Biso   1.000  H
  H113     1.0000 0.29780  0.80870  0.73920  Biso   1.000  H
  H114     1.0000 0.70220  0.30870  0.76080  Biso   1.000  H
  H115     1.0000 0.70220  0.19130  0.26080  Biso   1.000  H
  H116     1.0000 0.29780  0.69130  0.23920  Biso   1.000  H
  C109     1.0000 0.86500  0.80990  0.74540  Biso   1.000  C
  C110     1.0000 0.13500  0.30990  0.75460  Biso   1.000  C
  C111     1.0000 0.13500  0.19010  0.25460  Biso   1.000  C
  C112     1.0000 0.86500  0.69010  0.24540  Biso   1.000  C
  H117     1.0000 0.85800  0.80470  0.67420  Biso   1.000  H
  H118     1.0000 0.14200  0.30470  0.82580  Biso   1.000  H
  H119     1.0000 0.14200  0.19530  0.32580  Biso   1.000  H
  H120     1.0000 0.85800  0.69530  0.17420  Biso   1.000  H
  C113     1.0000 0.90200  0.85740  0.78300  Biso   1.000  C
  C114     1.0000 0.09800  0.35740  0.71700  Biso   1.000  C
  C115     1.0000 0.09800  0.14260  0.21700  Biso   1.000  C
  C116     1.0000 0.90200  0.64260  0.28300  Biso   1.000  C
  H121     1.0000 0.92580  0.88330  0.73680  Biso   1.000  H
  H122     1.0000 0.07420  0.38330  0.76320  Biso   1.000  H
  H123     1.0000 0.07420  0.11670  0.26320  Biso   1.000  H
  H124     1.0000 0.92580  0.61670  0.23680  Biso   1.000  H
  C117     1.0000 0.87300  0.82840  0.95000  Biso   1.000  C
  C118     1.0000 0.12700  0.32840  0.55000  Biso   1.000  C
  C119     1.0000 0.12700  0.17160  0.05000  Biso   1.000  C
  C120     1.0000 0.87300  0.67160  0.45000  Biso   1.000  C
  H125     1.0000 0.87600  0.83490  0.02060  Biso   1.000  H
  H126     1.0000 0.12400  0.33490  0.47940  Biso   1.000  H
  H127     1.0000 0.12400  0.16510  0.97940  Biso   1.000  H
  H128     1.0000 0.87600  0.66510  0.52060  Biso   1.000  H
  C121     1.0000 0.83900  0.78160  0.91600  Biso   1.000  C
  C122     1.0000 0.16100  0.28160  0.58400  Biso   1.000  C
  C123     1.0000 0.16100  0.21840  0.08400  Biso   1.000  C
  C124     1.0000 0.83900  0.71840  0.41600  Biso   1.000  C
  H129     1.0000 0.81410  0.75580  0.96180  Biso   1.000  H
  H130     1.0000 0.18590  0.25580  0.53820  Biso   1.000  H
  H131     1.0000 0.18590  0.24420  0.03820  Biso   1.000  H
  H132     1.0000 0.81410  0.74420  0.46180  Biso   1.000  H
  O41      1.0000 0.51160  0.73430  0.03900  Biso   1.000  O
  O42      1.0000 0.48840  0.23430  0.46100  Biso   1.000  O
  O43      1.0000 0.48840  0.26570  0.96100  Biso   1.000  O
  O44      1.0000 0.51160  0.76570  0.53900  Biso   1.000  O
  O45      1.0000 0.62600  0.67780  0.14040  Biso   1.000  O
  O46      1.0000 0.37400  0.17780  0.35960  Biso   1.000  O
  O47      1.0000 0.37400  0.32220  0.85960  Biso   1.000  O
  O48      1.0000 0.62600  0.82220  0.64040  Biso   1.000  O
  O49      1.0000 0.45300  0.65310  0.03400  Biso   1.000  O
  O50      1.0000 0.54700  0.15310  0.46600  Biso   1.000  O
  O51      1.0000 0.54700  0.34690  0.96600  Biso   1.000  O
  O52      1.0000 0.45300  0.84690  0.53400  Biso   1.000  O
  C125     1.0000 0.00020  0.52680  0.09250  Biso   1.000  C
  C126     1.0000 0.99980  0.02680  0.40750  Biso   1.000  C
  C127     1.0000 0.99980  0.47320  0.90750  Biso   1.000  C
  C128     1.0000 0.00020  0.97320  0.59250  Biso   1.000  C
  H133     1.0000 0.00010  0.54470  0.15470  Biso   1.000  H
  H134     1.0000 0.99990  0.04470  0.34530  Biso   1.000  H
  H135     1.0000 0.99990  0.45530  0.84530  Biso   1.000  H
  H136     1.0000 0.00010  0.95530  0.65470  Biso   1.000  H
  C129     1.0000 0.93800  0.47860  0.08670  Biso   1.000  C
  C130     1.0000 0.06200  0.97860  0.41330  Biso   1.000  C
  C131     1.0000 0.06200  0.52140  0.91330  Biso   1.000  C
  C132     1.0000 0.93800  0.02140  0.58670  Biso   1.000  C
  H137     1.0000 0.89620  0.46440  0.14570  Biso   1.000  H
  H138     1.0000 0.10380  0.96440  0.35430  Biso   1.000  H
  H139     1.0000 0.10380  0.53560  0.85430  Biso   1.000  H
  H140     1.0000 0.89620  0.03560  0.64570  Biso   1.000  H
  C133     1.0000 0.93710  0.45190  0.99650  Biso   1.000  C
  C134     1.0000 0.06290  0.95190  0.50350  Biso   1.000  C
  C135     1.0000 0.06290  0.54810  0.00350  Biso   1.000  C
  C136     1.0000 0.93710  0.04810  0.49650  Biso   1.000  C
  C137     1.0000 0.88800  0.40600  0.98700  Biso   1.000  C
  C138     1.0000 0.11200  0.90600  0.51300  Biso   1.000  C
  C139     1.0000 0.11200  0.59400  0.01300  Biso   1.000  C
  C140     1.0000 0.88800  0.09400  0.48700  Biso   1.000  C
  H141     1.0000 0.89840  0.39490  0.91690  Biso   1.000  H
  H142     1.0000 0.10160  0.89490  0.58310  Biso   1.000  H
  H143     1.0000 0.10160  0.60510  0.08310  Biso   1.000  H
  H144     1.0000 0.89840  0.10510  0.41690  Biso   1.000  H
  H145     1.0000 0.94320  0.38390  0.03230  Biso   1.000  H
  H146     1.0000 0.05680  0.88390  0.46770  Biso   1.000  H
  H147     1.0000 0.05680  0.61610  0.96770  Biso   1.000  H
  H148     1.0000 0.94320  0.11610  0.53230  Biso   1.000  H
  H149     1.0000 0.78550  0.40500  0.00610  Biso   1.000  H
  H150     1.0000 0.21450  0.90500  0.49390  Biso   1.000  H
  H151     1.0000 0.21450  0.59500  0.99390  Biso   1.000  H
  H152     1.0000 0.78550  0.09500  0.50610  Biso   1.000  H
