data_image0
_cell_length_a       6.6863
_cell_length_b       33.34
_cell_length_c       11.325
_cell_angle_alpha    90
_cell_angle_beta     107.156
_cell_angle_gamma    90

_symmetry_space_group_name_H-M    "P 1"
_symmetry_int_tables_number       1

loop_
  _symmetry_equiv_pos_as_xyz
  'x, y, z'

loop_
  _atom_site_label
  _atom_site_occupancy
  _atom_site_fract_x
  _atom_site_fract_y
  _atom_site_fract_z
  _atom_site_thermal_displace_type
  _atom_site_B_iso_or_equiv
  _atom_site_type_symbol
  Cu1      1.0000 0.50000  0.00000  0.50000  Biso   1.000  Cu
  Cu2      1.0000 0.00000  0.50000  0.00000  Biso   1.000  Cu
  Cu3      1.0000 0.00000  0.00000  0.50000  Biso   1.000  Cu
  Cu4      1.0000 0.50000  0.50000  0.00000  Biso   1.000  Cu
  O1       1.0000 0.12890  0.99934  0.37000  Biso   1.000  O
  O2       1.0000 0.37110  0.49934  0.13000  Biso   1.000  O
  O3       1.0000 0.87110  0.00066  0.63000  Biso   1.000  O
  O4       1.0000 0.62890  0.50066  0.87000  Biso   1.000  O
  H1       1.0000 0.15400  0.97680  0.35200  Biso   1.000  H
  H2       1.0000 0.34600  0.47680  0.14800  Biso   1.000  H
  H3       1.0000 0.84600  0.02320  0.64800  Biso   1.000  H
  H4       1.0000 0.65400  0.52320  0.85200  Biso   1.000  H
  H5       1.0000 0.07800  0.01620  0.31900  Biso   1.000  H
  H6       1.0000 0.42200  0.51620  0.18100  Biso   1.000  H
  H7       1.0000 0.92200  0.98380  0.68100  Biso   1.000  H
  H8       1.0000 0.57800  0.48380  0.81900  Biso   1.000  H
  O5       1.0000 0.45160  0.95189  0.58470  Biso   1.000  O
  O6       1.0000 0.04840  0.45189  0.91530  Biso   1.000  O
  O7       1.0000 0.54840  0.04811  0.41530  Biso   1.000  O
  O8       1.0000 0.95160  0.54811  0.08470  Biso   1.000  O
  O9       1.0000 0.10560  0.94686  0.55580  Biso   1.000  O
  O10      1.0000 0.39440  0.44686  0.94420  Biso   1.000  O
  O11      1.0000 0.89440  0.05314  0.44420  Biso   1.000  O
  O12      1.0000 0.60560  0.55314  0.05580  Biso   1.000  O
  O13      1.0000 0.09170  0.53476  0.88730  Biso   1.000  O
  O14      1.0000 0.40830  0.03476  0.61270  Biso   1.000  O
  O15      1.0000 0.90830  0.46524  0.11270  Biso   1.000  O
  O16      1.0000 0.59170  0.96524  0.38730  Biso   1.000  O
  O17      1.0000 0.78130  0.56532  0.81010  Biso   1.000  O
  O18      1.0000 0.71870  0.06532  0.68990  Biso   1.000  O
  O19      1.0000 0.21870  0.43468  0.18990  Biso   1.000  O
  O20      1.0000 0.28130  0.93468  0.31010  Biso   1.000  O
  N1       1.0000 0.43380  0.77085  0.73740  Biso   1.000  N
  N2       1.0000 0.06620  0.27085  0.76260  Biso   1.000  N
  N3       1.0000 0.56620  0.22915  0.26260  Biso   1.000  N
  N4       1.0000 0.93380  0.72915  0.23740  Biso   1.000  N
  N5       1.0000 0.38520  0.70943  0.78180  Biso   1.000  N
  N6       1.0000 0.11480  0.20943  0.71820  Biso   1.000  N
  N7       1.0000 0.61480  0.29057  0.21820  Biso   1.000  N
  N8       1.0000 0.88520  0.79057  0.28180  Biso   1.000  N
  C1       1.0000 0.29630  0.74066  0.71400  Biso   1.000  C
  C2       1.0000 0.20370  0.24066  0.78600  Biso   1.000  C
  C3       1.0000 0.70370  0.25934  0.28600  Biso   1.000  C
  C4       1.0000 0.79630  0.75934  0.21400  Biso   1.000  C
  H9       1.0000 0.15850  0.74140  0.65850  Biso   1.000  H
  H10      1.0000 0.34150  0.24140  0.84150  Biso   1.000  H
  H11      1.0000 0.84150  0.25860  0.34150  Biso   1.000  H
  H12      1.0000 0.65850  0.75860  0.15850  Biso   1.000  H
  C5       1.0000 0.61570  0.75834  0.82160  Biso   1.000  C
  C6       1.0000 0.88430  0.25834  0.67840  Biso   1.000  C
  C7       1.0000 0.38430  0.24166  0.17840  Biso   1.000  C
  C8       1.0000 0.11570  0.74166  0.32160  Biso   1.000  C
  H13      1.0000 0.73870  0.77390  0.85350  Biso   1.000  H
  H14      1.0000 0.76130  0.27390  0.64650  Biso   1.000  H
  H15      1.0000 0.26130  0.22610  0.14650  Biso   1.000  H
  H16      1.0000 0.23870  0.72610  0.35350  Biso   1.000  H
  C9       1.0000 0.58890  0.72012  0.85100  Biso   1.000  C
  C10      1.0000 0.91110  0.22012  0.64900  Biso   1.000  C
  C11      1.0000 0.41110  0.27988  0.14900  Biso   1.000  C
  C12      1.0000 0.08890  0.77988  0.35100  Biso   1.000  C
  H17      1.0000 0.68830  0.70360  0.90740  Biso   1.000  H
  H18      1.0000 0.81170  0.20360  0.59260  Biso   1.000  H
  H19      1.0000 0.31170  0.29640  0.09260  Biso   1.000  H
  H20      1.0000 0.18830  0.79640  0.40740  Biso   1.000  H
  C13      1.0000 0.39160  0.81093  0.69100  Biso   1.000  C
  C14      1.0000 0.10840  0.31093  0.80900  Biso   1.000  C
  C15      1.0000 0.60840  0.18907  0.30900  Biso   1.000  C
  C16      1.0000 0.89160  0.68907  0.19100  Biso   1.000  C
  C17      1.0000 0.54040  0.83130  0.65390  Biso   1.000  C
  C18      1.0000 0.95960  0.33130  0.84610  Biso   1.000  C
  C19      1.0000 0.45960  0.16870  0.34610  Biso   1.000  C
  C20      1.0000 0.04040  0.66870  0.15390  Biso   1.000  C
  H21      1.0000 0.66680  0.81850  0.65310  Biso   1.000  H
  H22      1.0000 0.83320  0.31850  0.84690  Biso   1.000  H
  H23      1.0000 0.33320  0.18150  0.34690  Biso   1.000  H
  H24      1.0000 0.16680  0.68150  0.15310  Biso   1.000  H
  C21      1.0000 0.50370  0.87078  0.61770  Biso   1.000  C
  C22      1.0000 0.99630  0.37078  0.88230  Biso   1.000  C
  C23      1.0000 0.49630  0.12922  0.38230  Biso   1.000  C
  C24      1.0000 0.00370  0.62922  0.11770  Biso   1.000  C
  H25      1.0000 0.60600  0.88520  0.59200  Biso   1.000  H
  H26      1.0000 0.89400  0.38520  0.90800  Biso   1.000  H
  H27      1.0000 0.39400  0.11480  0.40800  Biso   1.000  H
  H28      1.0000 0.10600  0.61480  0.09200  Biso   1.000  H
  C25      1.0000 0.31950  0.88958  0.61830  Biso   1.000  C
  C26      1.0000 0.18050  0.38958  0.88170  Biso   1.000  C
  C27      1.0000 0.68050  0.11042  0.38170  Biso   1.000  C
  C28      1.0000 0.81950  0.61042  0.11830  Biso   1.000  C
  C29      1.0000 0.16770  0.86841  0.65150  Biso   1.000  C
  C30      1.0000 0.33230  0.36841  0.84850  Biso   1.000  C
  C31      1.0000 0.83230  0.13159  0.34850  Biso   1.000  C
  C32      1.0000 0.66770  0.63159  0.15150  Biso   1.000  C
  H29      1.0000 0.03880  0.88100  0.64860  Biso   1.000  H
  H30      1.0000 0.46120  0.38100  0.85140  Biso   1.000  H
  H31      1.0000 0.96120  0.11900  0.35140  Biso   1.000  H
  H32      1.0000 0.53880  0.61900  0.14860  Biso   1.000  H
  C33      1.0000 0.20240  0.82882  0.68930  Biso   1.000  C
  C34      1.0000 0.29760  0.32882  0.81070  Biso   1.000  C
  C35      1.0000 0.79760  0.17118  0.31070  Biso   1.000  C
  C36      1.0000 0.70240  0.67118  0.18930  Biso   1.000  C
  H33      1.0000 0.09920  0.81420  0.71360  Biso   1.000  H
  H34      1.0000 0.40080  0.31420  0.78640  Biso   1.000  H
  H35      1.0000 0.90080  0.18580  0.28640  Biso   1.000  H
  H36      1.0000 0.59920  0.68580  0.21360  Biso   1.000  H
  C37      1.0000 0.28830  0.93325  0.58230  Biso   1.000  C
  C38      1.0000 0.21170  0.43325  0.91770  Biso   1.000  C
  C39      1.0000 0.71170  0.06675  0.41770  Biso   1.000  C
  C40      1.0000 0.78830  0.56675  0.08230  Biso   1.000  C
  C41      1.0000 0.28860  0.67201  0.79140  Biso   1.000  C
  C42      1.0000 0.21140  0.17201  0.70860  Biso   1.000  C
  C43      1.0000 0.71140  0.32799  0.20860  Biso   1.000  C
  C44      1.0000 0.78860  0.82799  0.29140  Biso   1.000  C
  C45      1.0000 0.39900  0.63732  0.81870  Biso   1.000  C
  C46      1.0000 0.10100  0.13732  0.68130  Biso   1.000  C
  C47      1.0000 0.60100  0.36268  0.18130  Biso   1.000  C
  C48      1.0000 0.89900  0.86268  0.31870  Biso   1.000  C
  H37      1.0000 0.54530  0.63740  0.82910  Biso   1.000  H
  H38      1.0000 0.95470  0.13740  0.67090  Biso   1.000  H
  H39      1.0000 0.45470  0.36260  0.17090  Biso   1.000  H
  H40      1.0000 0.04530  0.86260  0.32910  Biso   1.000  H
  C49      1.0000 0.30060  0.60196  0.83140  Biso   1.000  C
  C50      1.0000 0.19940  0.10196  0.66860  Biso   1.000  C
  C51      1.0000 0.69940  0.39804  0.16860  Biso   1.000  C
  C52      1.0000 0.80060  0.89804  0.33140  Biso   1.000  C
  H41      1.0000 0.38020  0.57810  0.85360  Biso   1.000  H
  H42      1.0000 0.11980  0.07810  0.64640  Biso   1.000  H
  H43      1.0000 0.61980  0.42190  0.14640  Biso   1.000  H
  H44      1.0000 0.88020  0.92190  0.35360  Biso   1.000  H
  C53      1.0000 0.08560  0.60111  0.81180  Biso   1.000  C
  C54      1.0000 0.41440  0.10111  0.68820  Biso   1.000  C
  C55      1.0000 0.91440  0.39889  0.18820  Biso   1.000  C
  C56      1.0000 0.58560  0.89889  0.31180  Biso   1.000  C
  C57      1.0000 0.97070  0.63649  0.77610  Biso   1.000  C
  C58      1.0000 0.52930  0.13649  0.72390  Biso   1.000  C
  C59      1.0000 0.02930  0.36351  0.22390  Biso   1.000  C
  C60      1.0000 0.47070  0.86351  0.27610  Biso   1.000  C
  H45      1.0000 0.82250  0.63600  0.75720  Biso   1.000  H
  H46      1.0000 0.67750  0.13600  0.74280  Biso   1.000  H
  H47      1.0000 0.17750  0.36400  0.24280  Biso   1.000  H
  H48      1.0000 0.32250  0.86400  0.25720  Biso   1.000  H
  C61      1.0000 0.07130  0.67206  0.76820  Biso   1.000  C
  C62      1.0000 0.42870  0.17206  0.73180  Biso   1.000  C
  C63      1.0000 0.92870  0.32794  0.23180  Biso   1.000  C
  C64      1.0000 0.57130  0.82794  0.26820  Biso   1.000  C
  H49      1.0000 0.99390  0.69630  0.74720  Biso   1.000  H
  H50      1.0000 0.50610  0.19630  0.75280  Biso   1.000  H
  H51      1.0000 0.00610  0.30370  0.25280  Biso   1.000  H
  H52      1.0000 0.49390  0.80370  0.24720  Biso   1.000  H
  C65      1.0000 0.97700  0.56426  0.83770  Biso   1.000  C
  C66      1.0000 0.52300  0.06426  0.66230  Biso   1.000  C
  C67      1.0000 0.02300  0.43574  0.16230  Biso   1.000  C
  C68      1.0000 0.47700  0.93574  0.33770  Biso   1.000  C
  Cl1      1.0000 0.21130  0.77606  0.00632  Biso   1.000  Cl
  Cl2      1.0000 0.28870  0.27606  0.49368  Biso   1.000  Cl
  Cl3      1.0000 0.78870  0.22394  0.99368  Biso   1.000  Cl
  Cl4      1.0000 0.71130  0.72394  0.50632  Biso   1.000  Cl
  O21      1.0000 0.32180  0.74338  0.08010  Biso   1.000  O
  O22      1.0000 0.17820  0.24338  0.41990  Biso   1.000  O
  O23      1.0000 0.67820  0.25662  0.91990  Biso   1.000  O
  O24      1.0000 0.82180  0.75662  0.58010  Biso   1.000  O
  O25      1.0000 0.08500  0.76160  0.88870  Biso   1.000  O
  O26      1.0000 0.41500  0.26160  0.61130  Biso   1.000  O
  O27      1.0000 0.91500  0.23840  0.11130  Biso   1.000  O
  O28      1.0000 0.58500  0.73840  0.38870  Biso   1.000  O
  O29      1.0000 0.36180  0.80447  0.98720  Biso   1.000  O
  O30      1.0000 0.13820  0.30447  0.51280  Biso   1.000  O
  O31      1.0000 0.63820  0.19553  0.01280  Biso   1.000  O
  O32      1.0000 0.86180  0.69553  0.48720  Biso   1.000  O
  O33      1.0000 0.08010  0.79495  0.06980  Biso   1.000  O
  O34      1.0000 0.41990  0.29495  0.43020  Biso   1.000  O
  O35      1.0000 0.91990  0.20505  0.93020  Biso   1.000  O
  O36      1.0000 0.58010  0.70505  0.56980  Biso   1.000  O
  O37      1.0000 0.44700  0.55361  0.30250  Biso   1.000  O
  O38      1.0000 0.05300  0.05361  0.19750  Biso   1.000  O
  O39      1.0000 0.55300  0.44639  0.69750  Biso   1.000  O
  O40      1.0000 0.94700  0.94639  0.80250  Biso   1.000  O
  N9       1.0000 0.30450  0.59070  0.42390  Biso   1.000  N
  N10      1.0000 0.19550  0.09070  0.07610  Biso   1.000  N
  N11      1.0000 0.69550  0.40930  0.57610  Biso   1.000  N
  N12      1.0000 0.80450  0.90930  0.92390  Biso   1.000  N
  C69      1.0000 0.29980  0.56340  0.33810  Biso   1.000  C
  C70      1.0000 0.20020  0.06340  0.16190  Biso   1.000  C
  C71      1.0000 0.70020  0.43660  0.66190  Biso   1.000  C
  C72      1.0000 0.79980  0.93660  0.83810  Biso   1.000  C
  H53      1.0000 0.17010  0.55030  0.30140  Biso   1.000  H
  H54      1.0000 0.32990  0.05030  0.19860  Biso   1.000  H
  H55      1.0000 0.82990  0.44970  0.69860  Biso   1.000  H
  H56      1.0000 0.67010  0.94970  0.80140  Biso   1.000  H
  C73      1.0000 0.48100  0.61270  0.47580  Biso   1.000  C
  C74      1.0000 0.01900  0.11270  0.02420  Biso   1.000  C
  C75      1.0000 0.51900  0.38730  0.52420  Biso   1.000  C
  C76      1.0000 0.98100  0.88730  0.97580  Biso   1.000  C
  H57      1.0000 0.45540  0.63120  0.53690  Biso   1.000  H
  H58      1.0000 0.04460  0.13120  0.96310  Biso   1.000  H
  H59      1.0000 0.54460  0.36880  0.46310  Biso   1.000  H
  H60      1.0000 0.95540  0.86880  0.03690  Biso   1.000  H
  H61      1.0000 0.59650  0.59460  0.51650  Biso   1.000  H
  H62      1.0000 0.90350  0.09460  0.98350  Biso   1.000  H
  H63      1.0000 0.40350  0.40540  0.48350  Biso   1.000  H
  H64      1.0000 0.09650  0.90540  0.01650  Biso   1.000  H
  H65      1.0000 0.51810  0.62790  0.41130  Biso   1.000  H
  H66      1.0000 0.98190  0.12790  0.08870  Biso   1.000  H
  H67      1.0000 0.48190  0.37210  0.58870  Biso   1.000  H
  H68      1.0000 0.01810  0.87210  0.91130  Biso   1.000  H
  C77      1.0000 0.11000  0.60060  0.45520  Biso   1.000  C
  C78      1.0000 0.39000  0.10060  0.04480  Biso   1.000  C
  C79      1.0000 0.89000  0.39940  0.54480  Biso   1.000  C
  C80      1.0000 0.61000  0.89940  0.95520  Biso   1.000  C
  H69      1.0000 0.13980  0.62120  0.51980  Biso   1.000  H
  H70      1.0000 0.36020  0.12120  0.98020  Biso   1.000  H
  H71      1.0000 0.86020  0.37880  0.48020  Biso   1.000  H
  H72      1.0000 0.63980  0.87880  0.01980  Biso   1.000  H
  H73      1.0000 0.00430  0.61070  0.38140  Biso   1.000  H
  H74      1.0000 0.49570  0.11070  0.11860  Biso   1.000  H
  H75      1.0000 0.99570  0.38930  0.61860  Biso   1.000  H
  H76      1.0000 0.50430  0.88930  0.88140  Biso   1.000  H
  H77      1.0000 0.05640  0.57650  0.48510  Biso   1.000  H
  H78      1.0000 0.44360  0.07650  0.01490  Biso   1.000  H
  H79      1.0000 0.94360  0.42350  0.51490  Biso   1.000  H
  H80      1.0000 0.55640  0.92350  0.98510  Biso   1.000  H
