data_image0
_cell_length_a       11.972
_cell_length_b       11.775
_cell_length_c       13.022
_cell_angle_alpha    90
_cell_angle_beta     100.92
_cell_angle_gamma    90

_symmetry_space_group_name_H-M    "P 1"
_symmetry_int_tables_number       1

loop_
  _symmetry_equiv_pos_as_xyz
  'x, y, z'

loop_
  _atom_site_label
  _atom_site_occupancy
  _atom_site_fract_x
  _atom_site_fract_y
  _atom_site_fract_z
  _atom_site_thermal_displace_type
  _atom_site_B_iso_or_equiv
  _atom_site_type_symbol
  Cu1      1.0000 0.00953  0.35483  0.26630  Biso   1.000  Cu
  Cu2      1.0000 0.99047  0.85483  0.23370  Biso   1.000  Cu
  Cu3      1.0000 0.99047  0.64517  0.73370  Biso   1.000  Cu
  Cu4      1.0000 0.00953  0.14517  0.76630  Biso   1.000  Cu
  O1       1.0000 0.90910  0.30160  0.36090  Biso   1.000  O
  O2       1.0000 0.09090  0.80160  0.13910  Biso   1.000  O
  O3       1.0000 0.09090  0.69840  0.63910  Biso   1.000  O
  O4       1.0000 0.90910  0.19840  0.86090  Biso   1.000  O
  O5       1.0000 0.09080  0.39950  0.15210  Biso   1.000  O
  O6       1.0000 0.90920  0.89950  0.34790  Biso   1.000  O
  O7       1.0000 0.90920  0.60050  0.84790  Biso   1.000  O
  O8       1.0000 0.09080  0.10050  0.65210  Biso   1.000  O
  O9       1.0000 0.05640  0.38080  0.98310  Biso   1.000  O
  O10      1.0000 0.94360  0.88080  0.51690  Biso   1.000  O
  O11      1.0000 0.94360  0.61920  0.01690  Biso   1.000  O
  O12      1.0000 0.05640  0.11920  0.48310  Biso   1.000  O
  O13      1.0000 0.93630  0.31860  0.07270  Biso   1.000  O
  O14      1.0000 0.06370  0.81860  0.42730  Biso   1.000  O
  O15      1.0000 0.06370  0.68140  0.92730  Biso   1.000  O
  O16      1.0000 0.93630  0.18140  0.57270  Biso   1.000  O
  O17      1.0000 0.14470  0.43410  0.38120  Biso   1.000  O
  O18      1.0000 0.85530  0.93410  0.11880  Biso   1.000  O
  O19      1.0000 0.85530  0.56590  0.61880  Biso   1.000  O
  O20      1.0000 0.14470  0.06590  0.88120  Biso   1.000  O
  O21      1.0000 0.16100  0.56710  0.49430  Biso   1.000  O
  O22      1.0000 0.83900  0.06710  0.00570  Biso   1.000  O
  O23      1.0000 0.83900  0.43290  0.50570  Biso   1.000  O
  O24      1.0000 0.16100  0.93290  0.99430  Biso   1.000  O
  O25      1.0000 0.11950  0.39990  0.53770  Biso   1.000  O
  O26      1.0000 0.88050  0.89990  0.96230  Biso   1.000  O
  O27      1.0000 0.88050  0.60010  0.46230  Biso   1.000  O
  O28      1.0000 0.11950  0.10010  0.03770  Biso   1.000  O
  N1       1.0000 0.08600  0.20070  0.27160  Biso   1.000  N
  N2       1.0000 0.91400  0.70070  0.22840  Biso   1.000  N
  N3       1.0000 0.91400  0.79930  0.72840  Biso   1.000  N
  N4       1.0000 0.08600  0.29930  0.77160  Biso   1.000  N
  N5       1.0000 0.08030  0.00110  0.25800  Biso   1.000  N
  N6       1.0000 0.91970  0.50110  0.24200  Biso   1.000  N
  N7       1.0000 0.91970  0.99890  0.74200  Biso   1.000  N
  N8       1.0000 0.08030  0.49890  0.75800  Biso   1.000  N
  N9       1.0000 0.02780  0.36630  0.06650  Biso   1.000  N
  N10      1.0000 0.97220  0.86630  0.43350  Biso   1.000  N
  N11      1.0000 0.97220  0.63370  0.93350  Biso   1.000  N
  N12      1.0000 0.02780  0.13370  0.56650  Biso   1.000  N
  N13      1.0000 0.14080  0.46630  0.47200  Biso   1.000  N
  N14      1.0000 0.85920  0.96630  0.02800  Biso   1.000  N
  N15      1.0000 0.85920  0.53370  0.52800  Biso   1.000  N
  N16      1.0000 0.14080  0.03370  0.97200  Biso   1.000  N
  C1       1.0000 0.03040  0.10330  0.25030  Biso   1.000  C
  C2       1.0000 0.96960  0.60330  0.24970  Biso   1.000  C
  C3       1.0000 0.96960  0.89670  0.74970  Biso   1.000  C
  C4       1.0000 0.03040  0.39670  0.75030  Biso   1.000  C
  C5       1.0000 0.19990  0.19580  0.30050  Biso   1.000  C
  C6       1.0000 0.80010  0.69580  0.19950  Biso   1.000  C
  C7       1.0000 0.80010  0.80420  0.69950  Biso   1.000  C
  C8       1.0000 0.19990  0.30420  0.80050  Biso   1.000  C
  C9       1.0000 0.25870  0.09420  0.31050  Biso   1.000  C
  C10      1.0000 0.74130  0.59420  0.18950  Biso   1.000  C
  C11      1.0000 0.74130  0.90580  0.68950  Biso   1.000  C
  C12      1.0000 0.25870  0.40580  0.81050  Biso   1.000  C
  C13      1.0000 0.19360  0.99710  0.28900  Biso   1.000  C
  C14      1.0000 0.80640  0.49710  0.21100  Biso   1.000  C
  C15      1.0000 0.80640  0.00290  0.71100  Biso   1.000  C
  C16      1.0000 0.19360  0.50290  0.78900  Biso   1.000  C
  C17      1.0000 0.38520  0.09080  0.34210  Biso   1.000  C
  C18      1.0000 0.61480  0.59080  0.15790  Biso   1.000  C
  C19      1.0000 0.61480  0.90920  0.65790  Biso   1.000  C
  C20      1.0000 0.38520  0.40920  0.84210  Biso   1.000  C
  C21      1.0000 0.43860  0.14100  0.43670  Biso   1.000  C
  C22      1.0000 0.56140  0.64100  0.06330  Biso   1.000  C
  C23      1.0000 0.56140  0.85900  0.56330  Biso   1.000  C
  C24      1.0000 0.43860  0.35900  0.93670  Biso   1.000  C
  C25      1.0000 0.37880  0.18460  0.51290  Biso   1.000  C
  C26      1.0000 0.62120  0.68460  0.98710  Biso   1.000  C
  C27      1.0000 0.62120  0.81540  0.48710  Biso   1.000  C
  C28      1.0000 0.37880  0.31540  0.01290  Biso   1.000  C
  C29      1.0000 0.43520  0.23080  0.60350  Biso   1.000  C
  C30      1.0000 0.56480  0.73080  0.89650  Biso   1.000  C
  C31      1.0000 0.56480  0.76920  0.39650  Biso   1.000  C
  C32      1.0000 0.43520  0.26920  0.10350  Biso   1.000  C
  C33      1.0000 0.55490  0.23860  0.62430  Biso   1.000  C
  C34      1.0000 0.44510  0.73860  0.87570  Biso   1.000  C
  C35      1.0000 0.44510  0.76140  0.37570  Biso   1.000  C
  C36      1.0000 0.55490  0.26140  0.12430  Biso   1.000  C
  C37      1.0000 0.61430  0.19890  0.55570  Biso   1.000  C
  C38      1.0000 0.38570  0.69890  0.94430  Biso   1.000  C
  C39      1.0000 0.38570  0.80110  0.44430  Biso   1.000  C
  C40      1.0000 0.61430  0.30110  0.05570  Biso   1.000  C
  C41      1.0000 0.56130  0.14440  0.46110  Biso   1.000  C
  C42      1.0000 0.43870  0.64440  0.03890  Biso   1.000  C
  C43      1.0000 0.43870  0.85560  0.53890  Biso   1.000  C
  C44      1.0000 0.56130  0.35560  0.96110  Biso   1.000  C
  C45      1.0000 0.62300  0.09520  0.39360  Biso   1.000  C
  C46      1.0000 0.37700  0.59520  0.10640  Biso   1.000  C
  C47      1.0000 0.37700  0.90480  0.60640  Biso   1.000  C
  C48      1.0000 0.62300  0.40480  0.89360  Biso   1.000  C
  C49      1.0000 0.57120  0.04070  0.30260  Biso   1.000  C
  C50      1.0000 0.42880  0.54070  0.19740  Biso   1.000  C
  C51      1.0000 0.42880  0.95930  0.69740  Biso   1.000  C
  C52      1.0000 0.57120  0.45930  0.80260  Biso   1.000  C
  C53      1.0000 0.63470  0.98790  0.23260  Biso   1.000  C
  C54      1.0000 0.36530  0.48790  0.26740  Biso   1.000  C
  C55      1.0000 0.36530  0.01210  0.76740  Biso   1.000  C
  C56      1.0000 0.63470  0.51210  0.73260  Biso   1.000  C
  C57      1.0000 0.58560  0.94180  0.14300  Biso   1.000  C
  C58      1.0000 0.41440  0.44180  0.35700  Biso   1.000  C
  C59      1.0000 0.41440  0.05820  0.85700  Biso   1.000  C
  C60      1.0000 0.58560  0.55820  0.64300  Biso   1.000  C
  C61      1.0000 0.46480  0.94180  0.11320  Biso   1.000  C
  C62      1.0000 0.53520  0.44180  0.38680  Biso   1.000  C
  C63      1.0000 0.53520  0.05820  0.88680  Biso   1.000  C
  C64      1.0000 0.46480  0.55820  0.61320  Biso   1.000  C
  C65      1.0000 0.39950  0.98930  0.17650  Biso   1.000  C
  C66      1.0000 0.60050  0.48930  0.32350  Biso   1.000  C
  C67      1.0000 0.60050  0.01070  0.82350  Biso   1.000  C
  C68      1.0000 0.39950  0.51070  0.67650  Biso   1.000  C
  C69      1.0000 0.44890  0.03960  0.27380  Biso   1.000  C
  C70      1.0000 0.55110  0.53960  0.22620  Biso   1.000  C
  C71      1.0000 0.55110  0.96040  0.72620  Biso   1.000  C
  C72      1.0000 0.44890  0.46040  0.77380  Biso   1.000  C
  H1       1.0000 0.95700  0.10300  0.23200  Biso   1.000  H
  H2       1.0000 0.04300  0.60300  0.26800  Biso   1.000  H
  H3       1.0000 0.04300  0.89700  0.76800  Biso   1.000  H
  H4       1.0000 0.95700  0.39700  0.73200  Biso   1.000  H
  H5       1.0000 0.24200  0.27200  0.31200  Biso   1.000  H
  H6       1.0000 0.75800  0.77200  0.18800  Biso   1.000  H
  H7       1.0000 0.75800  0.72800  0.68800  Biso   1.000  H
  H8       1.0000 0.24200  0.22800  0.81200  Biso   1.000  H
  H9       1.0000 0.23000  0.92600  0.29400  Biso   1.000  H
  H10      1.0000 0.77000  0.42600  0.20600  Biso   1.000  H
  H11      1.0000 0.77000  0.07400  0.70600  Biso   1.000  H
  H12      1.0000 0.23000  0.57400  0.79400  Biso   1.000  H
  H13      1.0000 0.29900  0.17700  0.50200  Biso   1.000  H
  H14      1.0000 0.70100  0.67700  0.99800  Biso   1.000  H
  H15      1.0000 0.70100  0.82300  0.49800  Biso   1.000  H
  H16      1.0000 0.29900  0.32300  0.00200  Biso   1.000  H
  H17      1.0000 0.39000  0.25700  0.65900  Biso   1.000  H
  H18      1.0000 0.61000  0.75700  0.84100  Biso   1.000  H
  H19      1.0000 0.61000  0.74300  0.34100  Biso   1.000  H
  H20      1.0000 0.39000  0.24300  0.15900  Biso   1.000  H
  H21      1.0000 0.59300  0.26800  0.69000  Biso   1.000  H
  H22      1.0000 0.40700  0.76800  0.81000  Biso   1.000  H
  H23      1.0000 0.40700  0.73200  0.31000  Biso   1.000  H
  H24      1.0000 0.59300  0.23200  0.19000  Biso   1.000  H
  H25      1.0000 0.68600  0.19900  0.56400  Biso   1.000  H
  H26      1.0000 0.31400  0.69900  0.93600  Biso   1.000  H
  H27      1.0000 0.31400  0.80100  0.43600  Biso   1.000  H
  H28      1.0000 0.68600  0.30100  0.06400  Biso   1.000  H
  H29      1.0000 0.70700  0.09300  0.40700  Biso   1.000  H
  H30      1.0000 0.29300  0.59300  0.09300  Biso   1.000  H
  H31      1.0000 0.29300  0.90700  0.59300  Biso   1.000  H
  H32      1.0000 0.70700  0.40700  0.90700  Biso   1.000  H
  H33      1.0000 0.71200  0.99500  0.24800  Biso   1.000  H
  H34      1.0000 0.28800  0.49500  0.25200  Biso   1.000  H
  H35      1.0000 0.28800  0.00500  0.75200  Biso   1.000  H
  H36      1.0000 0.71200  0.50500  0.74800  Biso   1.000  H
  H37      1.0000 0.62400  0.90900  0.09200  Biso   1.000  H
  H38      1.0000 0.37600  0.40900  0.40800  Biso   1.000  H
  H39      1.0000 0.37600  0.09100  0.90800  Biso   1.000  H
  H40      1.0000 0.62400  0.59100  0.59200  Biso   1.000  H
  H41      1.0000 0.42800  0.91400  0.04700  Biso   1.000  H
  H42      1.0000 0.57200  0.41400  0.45300  Biso   1.000  H
  H43      1.0000 0.57200  0.08600  0.95300  Biso   1.000  H
  H44      1.0000 0.42800  0.58600  0.54700  Biso   1.000  H
  H45      1.0000 0.32000  0.99700  0.15000  Biso   1.000  H
  H46      1.0000 0.68000  0.49700  0.35000  Biso   1.000  H
  H47      1.0000 0.68000  0.00300  0.85000  Biso   1.000  H
  H48      1.0000 0.32000  0.50300  0.65000  Biso   1.000  H
  H49      1.0000 0.93300  0.25400  0.40000  Biso   1.000  H
  H50      1.0000 0.06700  0.75400  0.10000  Biso   1.000  H
  H51      1.0000 0.06700  0.74600  0.60000  Biso   1.000  H
  H52      1.0000 0.93300  0.24600  0.90000  Biso   1.000  H
  H53      1.0000 0.89200  0.35300  0.40200  Biso   1.000  H
  H54      1.0000 0.10800  0.85300  0.09800  Biso   1.000  H
  H55      1.0000 0.10800  0.64700  0.59800  Biso   1.000  H
  H56      1.0000 0.89200  0.14700  0.90200  Biso   1.000  H
