data_image0
_cell_length_a       9.00254
_cell_length_b       15.3645
_cell_length_c       12.4641
_cell_angle_alpha    90
_cell_angle_beta     105.724
_cell_angle_gamma    90

_symmetry_space_group_name_H-M    "P 1"
_symmetry_int_tables_number       1

loop_
  _symmetry_equiv_pos_as_xyz
  'x, y, z'

loop_
  _atom_site_label
  _atom_site_occupancy
  _atom_site_fract_x
  _atom_site_fract_y
  _atom_site_fract_z
  _atom_site_thermal_displace_type
  _atom_site_B_iso_or_equiv
  _atom_site_type_symbol
  Cu1      1.0000 0.55689  0.51255  0.13218  Biso   1.000  Cu
  Cu2      1.0000 0.44311  0.01255  0.36782  Biso   1.000  Cu
  Cu3      1.0000 0.44311  0.48745  0.86782  Biso   1.000  Cu
  Cu4      1.0000 0.55689  0.98745  0.63218  Biso   1.000  Cu
  N1       1.0000 0.77640  0.60555  0.15772  Biso   1.000  N
  N2       1.0000 0.22360  0.10555  0.34228  Biso   1.000  N
  N3       1.0000 0.22360  0.39445  0.84228  Biso   1.000  N
  N4       1.0000 0.77640  0.89445  0.65772  Biso   1.000  N
  N5       1.0000 0.89700  0.58700  0.23787  Biso   1.000  N
  N6       1.0000 0.10300  0.08700  0.26213  Biso   1.000  N
  N7       1.0000 0.10300  0.41300  0.76213  Biso   1.000  N
  N8       1.0000 0.89700  0.91300  0.73787  Biso   1.000  N
  N9       1.0000 0.00330  0.65060  0.24687  Biso   1.000  N
  N10      1.0000 0.99670  0.15060  0.25313  Biso   1.000  N
  N11      1.0000 0.99670  0.34940  0.75313  Biso   1.000  N
  N12      1.0000 0.00330  0.84940  0.74687  Biso   1.000  N
  N13      1.0000 0.28121  0.63996  0.29729  Biso   1.000  N
  N14      1.0000 0.71879  0.13996  0.20271  Biso   1.000  N
  N15      1.0000 0.71879  0.36004  0.70271  Biso   1.000  N
  N16      1.0000 0.28121  0.86004  0.79729  Biso   1.000  N
  N17      1.0000 0.45982  0.58628  0.22690  Biso   1.000  N
  N18      1.0000 0.54018  0.08628  0.27310  Biso   1.000  N
  N19      1.0000 0.54018  0.41372  0.77310  Biso   1.000  N
  N20      1.0000 0.45982  0.91372  0.72690  Biso   1.000  N
  N21      1.0000 0.58020  0.43310  0.00893  Biso   1.000  N
  N22      1.0000 0.41980  0.93310  0.49107  Biso   1.000  N
  N23      1.0000 0.41980  0.56690  0.99107  Biso   1.000  N
  N24      1.0000 0.58020  0.06690  0.50893  Biso   1.000  N
  N25      1.0000 0.67730  0.37905  0.01529  Biso   1.000  N
  N26      1.0000 0.32270  0.87905  0.48471  Biso   1.000  N
  N27      1.0000 0.32270  0.62095  0.98471  Biso   1.000  N
  N28      1.0000 0.67730  0.12095  0.51529  Biso   1.000  N
  N29      1.0000 0.76830  0.32730  0.01920  Biso   1.000  N
  N30      1.0000 0.23170  0.82730  0.48080  Biso   1.000  N
  N31      1.0000 0.23170  0.67270  0.98080  Biso   1.000  N
  N32      1.0000 0.76830  0.17270  0.51920  Biso   1.000  N
  N33      1.0000 0.66000  0.42893  0.24627  Biso   1.000  N
  N34      1.0000 0.34000  0.92893  0.25373  Biso   1.000  N
  N35      1.0000 0.34000  0.57107  0.75373  Biso   1.000  N
  N36      1.0000 0.66000  0.07107  0.74627  Biso   1.000  N
  N37      1.0000 0.69600  0.44783  0.34208  Biso   1.000  N
  N38      1.0000 0.30400  0.94783  0.15792  Biso   1.000  N
  N39      1.0000 0.30400  0.55217  0.65792  Biso   1.000  N
  N40      1.0000 0.69600  0.05217  0.84208  Biso   1.000  N
  N41      1.0000 0.73340  0.46370  0.43470  Biso   1.000  N
  N42      1.0000 0.26660  0.96370  0.06530  Biso   1.000  N
  N43      1.0000 0.26660  0.53630  0.56530  Biso   1.000  N
  N44      1.0000 0.73340  0.03630  0.93470  Biso   1.000  N
  C1       1.0000 0.80180  0.68404  0.11171  Biso   1.000  C
  C2       1.0000 0.19820  0.18404  0.38829  Biso   1.000  C
  C3       1.0000 0.19820  0.31596  0.88829  Biso   1.000  C
  C4       1.0000 0.80180  0.81596  0.61171  Biso   1.000  C
  C5       1.0000 0.70710  0.73357  0.02600  Biso   1.000  C
  C6       1.0000 0.29290  0.23357  0.47400  Biso   1.000  C
  C7       1.0000 0.29290  0.26643  0.97400  Biso   1.000  C
  C8       1.0000 0.70710  0.76643  0.52600  Biso   1.000  C
  H1       1.0000 0.60900  0.71470  0.98740  Biso   1.000  H
  H2       1.0000 0.39100  0.21470  0.51260  Biso   1.000  H
  H3       1.0000 0.39100  0.28530  0.01260  Biso   1.000  H
  H4       1.0000 0.60900  0.78530  0.48740  Biso   1.000  H
  C9       1.0000 0.76500  0.81107  0.00140  Biso   1.000  C
  C10      1.0000 0.23500  0.31107  0.49860  Biso   1.000  C
  C11      1.0000 0.23500  0.18893  0.99860  Biso   1.000  C
  C12      1.0000 0.76500  0.68893  0.50140  Biso   1.000  C
  H5       1.0000 0.70440  0.84570  0.94510  Biso   1.000  H
  H6       1.0000 0.29560  0.34570  0.55490  Biso   1.000  H
  H7       1.0000 0.29560  0.15430  0.05490  Biso   1.000  H
  H8       1.0000 0.70440  0.65430  0.44510  Biso   1.000  H
  C13      1.0000 0.91310  0.83980  0.05870  Biso   1.000  C
  C14      1.0000 0.08690  0.33980  0.44130  Biso   1.000  C
  C15      1.0000 0.08690  0.16020  0.94130  Biso   1.000  C
  C16      1.0000 0.91310  0.66020  0.55870  Biso   1.000  C
  H9       1.0000 0.94830  0.89260  0.03850  Biso   1.000  H
  H10      1.0000 0.05170  0.39260  0.46150  Biso   1.000  H
  H11      1.0000 0.05170  0.10740  0.96150  Biso   1.000  H
  H12      1.0000 0.94830  0.60740  0.53850  Biso   1.000  H
  C17      1.0000 0.00730  0.79287  0.14290  Biso   1.000  C
  C18      1.0000 0.99270  0.29287  0.35710  Biso   1.000  C
  C19      1.0000 0.99270  0.20713  0.85710  Biso   1.000  C
  C20      1.0000 0.00730  0.70713  0.64290  Biso   1.000  C
  H13      1.0000 0.10500  0.81240  0.18120  Biso   1.000  H
  H14      1.0000 0.89500  0.31240  0.31880  Biso   1.000  H
  H15      1.0000 0.89500  0.18760  0.81880  Biso   1.000  H
  H16      1.0000 0.10500  0.68760  0.68120  Biso   1.000  H
  C21      1.0000 0.94850  0.71369  0.16849  Biso   1.000  C
  C22      1.0000 0.05150  0.21369  0.33151  Biso   1.000  C
  C23      1.0000 0.05150  0.28631  0.83151  Biso   1.000  C
  C24      1.0000 0.94850  0.78631  0.66849  Biso   1.000  C
  C25      1.0000 0.14420  0.64786  0.33732  Biso   1.000  C
  C26      1.0000 0.85580  0.14786  0.16268  Biso   1.000  C
  C27      1.0000 0.85580  0.35214  0.66268  Biso   1.000  C
  C28      1.0000 0.14420  0.85214  0.83732  Biso   1.000  C
  H17      1.0000 0.13980  0.59880  0.38540  Biso   1.000  H
  H18      1.0000 0.86020  0.09880  0.11460  Biso   1.000  H
  H19      1.0000 0.86020  0.40120  0.61460  Biso   1.000  H
  H20      1.0000 0.13980  0.90120  0.88540  Biso   1.000  H
  H21      1.0000 0.15180  0.70050  0.38140  Biso   1.000  H
  H22      1.0000 0.84820  0.20050  0.11860  Biso   1.000  H
  H23      1.0000 0.84820  0.29950  0.61860  Biso   1.000  H
  H24      1.0000 0.15180  0.79950  0.88140  Biso   1.000  H
  C29      1.0000 0.36820  0.70922  0.27832  Biso   1.000  C
  C30      1.0000 0.63180  0.20922  0.22168  Biso   1.000  C
  C31      1.0000 0.63180  0.29078  0.72168  Biso   1.000  C
  C32      1.0000 0.36820  0.79078  0.77832  Biso   1.000  C
  H25      1.0000 0.35440  0.76760  0.29280  Biso   1.000  H
  H26      1.0000 0.64560  0.26760  0.20720  Biso   1.000  H
  H27      1.0000 0.64560  0.23240  0.70720  Biso   1.000  H
  H28      1.0000 0.35440  0.73240  0.79280  Biso   1.000  H
  C33      1.0000 0.47660  0.67574  0.23492  Biso   1.000  C
  C34      1.0000 0.52340  0.17574  0.26508  Biso   1.000  C
  C35      1.0000 0.52340  0.32426  0.76508  Biso   1.000  C
  C36      1.0000 0.47660  0.82426  0.73492  Biso   1.000  C
  H29      1.0000 0.55150  0.70770  0.21350  Biso   1.000  H
  H30      1.0000 0.44850  0.20770  0.28650  Biso   1.000  H
  H31      1.0000 0.44850  0.29230  0.78650  Biso   1.000  H
  H32      1.0000 0.55150  0.79230  0.71350  Biso   1.000  H
  C37      1.0000 0.34130  0.56634  0.26556  Biso   1.000  C
  C38      1.0000 0.65870  0.06634  0.23444  Biso   1.000  C
  C39      1.0000 0.65870  0.43366  0.73444  Biso   1.000  C
  C40      1.0000 0.34130  0.93366  0.76556  Biso   1.000  C
  C41      1.0000 0.28550  0.47674  0.27800  Biso   1.000  C
  C42      1.0000 0.71450  0.97674  0.22200  Biso   1.000  C
  C43      1.0000 0.71450  0.52326  0.72200  Biso   1.000  C
  C44      1.0000 0.28550  0.02326  0.77800  Biso   1.000  C
  H33      1.0000 0.36880  0.44480  0.32820  Biso   1.000  H
  H34      1.0000 0.63120  0.94480  0.17180  Biso   1.000  H
  H35      1.0000 0.63120  0.55520  0.67180  Biso   1.000  H
  H36      1.0000 0.36880  0.05520  0.82820  Biso   1.000  H
  H37      1.0000 0.20210  0.48090  0.31340  Biso   1.000  H
  H38      1.0000 0.79790  0.98090  0.18660  Biso   1.000  H
  H39      1.0000 0.79790  0.51910  0.68660  Biso   1.000  H
  H40      1.0000 0.20210  0.01910  0.81340  Biso   1.000  H
  C45      1.0000 0.23090  0.42610  0.17610  Biso   1.000  C
  C46      1.0000 0.76910  0.92610  0.32390  Biso   1.000  C
  C47      1.0000 0.76910  0.57390  0.82390  Biso   1.000  C
  C48      1.0000 0.23090  0.07390  0.67610  Biso   1.000  C
  H41      1.0000 0.31220  0.42380  0.13860  Biso   1.000  H
  H42      1.0000 0.68780  0.92380  0.36140  Biso   1.000  H
  H43      1.0000 0.68780  0.57620  0.86140  Biso   1.000  H
  H44      1.0000 0.31220  0.07620  0.63860  Biso   1.000  H
  H45      1.0000 0.21120  0.36700  0.19600  Biso   1.000  H
  H46      1.0000 0.78880  0.86700  0.30400  Biso   1.000  H
  H47      1.0000 0.78880  0.63300  0.80400  Biso   1.000  H
  H48      1.0000 0.21120  0.13300  0.69600  Biso   1.000  H
  C49      1.0000 0.10560  0.45660  0.10630  Biso   1.000  C
  C50      1.0000 0.89440  0.95660  0.39370  Biso   1.000  C
  C51      1.0000 0.89440  0.54340  0.89370  Biso   1.000  C
  C52      1.0000 0.10560  0.04340  0.60630  Biso   1.000  C
  H49      1.0000 0.12210  0.51600  0.08860  Biso   1.000  H
  H50      1.0000 0.87790  0.01600  0.41140  Biso   1.000  H
  H51      1.0000 0.87790  0.48400  0.91140  Biso   1.000  H
  H52      1.0000 0.12210  0.98400  0.58860  Biso   1.000  H
  H53      1.0000 0.02150  0.45370  0.13990  Biso   1.000  H
  H54      1.0000 0.97850  0.95370  0.36010  Biso   1.000  H
  H55      1.0000 0.97850  0.54630  0.86010  Biso   1.000  H
  H56      1.0000 0.02150  0.04630  0.63990  Biso   1.000  H
  H57      1.0000 0.08140  0.42240  0.03940  Biso   1.000  H
  H58      1.0000 0.91860  0.92240  0.46060  Biso   1.000  H
  H59      1.0000 0.91860  0.57760  0.96060  Biso   1.000  H
  H60      1.0000 0.08140  0.07760  0.53940  Biso   1.000  H
  H61      1.0000 0.20920  0.46910  0.11700  Biso   1.000  H
  H62      1.0000 0.79080  0.96910  0.38300  Biso   1.000  H
  H63      1.0000 0.79080  0.53090  0.88300  Biso   1.000  H
  H64      1.0000 0.20920  0.03090  0.61700  Biso   1.000  H
  H65      1.0000 0.32140  0.39490  0.16910  Biso   1.000  H
  H66      1.0000 0.67860  0.89490  0.33090  Biso   1.000  H
  H67      1.0000 0.67860  0.60510  0.83090  Biso   1.000  H
  H68      1.0000 0.32140  0.10510  0.66910  Biso   1.000  H
  C53      1.0000 0.10670  0.36400  0.14260  Biso   1.000  C
  C54      1.0000 0.89330  0.86400  0.35740  Biso   1.000  C
  C55      1.0000 0.89330  0.63600  0.85740  Biso   1.000  C
  C56      1.0000 0.10670  0.13600  0.64260  Biso   1.000  C
  H69      1.0000 0.09040  0.35020  0.06510  Biso   1.000  H
  H70      1.0000 0.90960  0.85020  0.43490  Biso   1.000  H
  H71      1.0000 0.90960  0.64980  0.93490  Biso   1.000  H
  H72      1.0000 0.09040  0.14980  0.56510  Biso   1.000  H
  H73      1.0000 0.01410  0.38850  0.15400  Biso   1.000  H
  H74      1.0000 0.98590  0.88850  0.34600  Biso   1.000  H
  H75      1.0000 0.98590  0.61150  0.84600  Biso   1.000  H
  H76      1.0000 0.01410  0.11150  0.65400  Biso   1.000  H
  H77      1.0000 0.13310  0.31200  0.18620  Biso   1.000  H
  H78      1.0000 0.86690  0.81200  0.31380  Biso   1.000  H
  H79      1.0000 0.86690  0.68800  0.81380  Biso   1.000  H
  H80      1.0000 0.13310  0.18800  0.68620  Biso   1.000  H
  H81      1.0000 0.90790  0.54130  0.27910  Biso   1.000  H
  H82      1.0000 0.09210  0.04130  0.22090  Biso   1.000  H
  H83      1.0000 0.09210  0.45870  0.72090  Biso   1.000  H
  H84      1.0000 0.90790  0.95870  0.77910  Biso   1.000  H
