data_image0
_cell_length_a       13.1
_cell_length_b       25.4
_cell_length_c       12
_cell_angle_alpha    90
_cell_angle_beta     90
_cell_angle_gamma    90

_symmetry_space_group_name_H-M    "P 1"
_symmetry_int_tables_number       1

loop_
  _symmetry_equiv_pos_as_xyz
  'x, y, z'

loop_
  _atom_site_label
  _atom_site_occupancy
  _atom_site_fract_x
  _atom_site_fract_y
  _atom_site_fract_z
  _atom_site_thermal_displace_type
  _atom_site_B_iso_or_equiv
  _atom_site_type_symbol
  Cu1      1.0000 0.67616  0.24673  0.15769  Biso   1.000  Cu
  Cu2      1.0000 0.17616  0.25327  0.84231  Biso   1.000  Cu
  Cu3      1.0000 0.32384  0.74673  0.34231  Biso   1.000  Cu
  Cu4      1.0000 0.82384  0.75327  0.65769  Biso   1.000  Cu
  Cu5      1.0000 0.32384  0.75327  0.84231  Biso   1.000  Cu
  Cu6      1.0000 0.82384  0.74673  0.15769  Biso   1.000  Cu
  Cu7      1.0000 0.67616  0.25327  0.65769  Biso   1.000  Cu
  Cu8      1.0000 0.17616  0.24673  0.34231  Biso   1.000  Cu
  O1       1.0000 0.52490  0.24718  0.16190  Biso   1.000  O
  O2       1.0000 0.02490  0.25282  0.83810  Biso   1.000  O
  O3       1.0000 0.47510  0.74718  0.33810  Biso   1.000  O
  O4       1.0000 0.97510  0.75282  0.66190  Biso   1.000  O
  O5       1.0000 0.47510  0.75282  0.83810  Biso   1.000  O
  O6       1.0000 0.97510  0.74718  0.16190  Biso   1.000  O
  O7       1.0000 0.52490  0.25282  0.66190  Biso   1.000  O
  O8       1.0000 0.02490  0.24718  0.33810  Biso   1.000  O
  O9       1.0000 0.55840  0.31940  0.07550  Biso   1.000  O
  O10      1.0000 0.05840  0.18060  0.92450  Biso   1.000  O
  O11      1.0000 0.44160  0.81940  0.42450  Biso   1.000  O
  O12      1.0000 0.94160  0.68060  0.57550  Biso   1.000  O
  O13      1.0000 0.44160  0.68060  0.92450  Biso   1.000  O
  O14      1.0000 0.94160  0.81940  0.07550  Biso   1.000  O
  O15      1.0000 0.55840  0.18060  0.57550  Biso   1.000  O
  O16      1.0000 0.05840  0.31940  0.42450  Biso   1.000  O
  O17      1.0000 0.40120  0.29590  0.10300  Biso   1.000  O
  O18      1.0000 0.90120  0.20410  0.89700  Biso   1.000  O
  O19      1.0000 0.59880  0.79590  0.39700  Biso   1.000  O
  O20      1.0000 0.09880  0.70410  0.60300  Biso   1.000  O
  O21      1.0000 0.59880  0.70410  0.89700  Biso   1.000  O
  O22      1.0000 0.09880  0.79590  0.10300  Biso   1.000  O
  O23      1.0000 0.40120  0.20410  0.60300  Biso   1.000  O
  O24      1.0000 0.90120  0.29590  0.39700  Biso   1.000  O
  O25      1.0000 0.82650  0.24033  0.15450  Biso   1.000  O
  O26      1.0000 0.32650  0.25967  0.84550  Biso   1.000  O
  O27      1.0000 0.17350  0.74033  0.34550  Biso   1.000  O
  O28      1.0000 0.67350  0.75967  0.65450  Biso   1.000  O
  O29      1.0000 0.17350  0.75967  0.84550  Biso   1.000  O
  O30      1.0000 0.67350  0.74033  0.15450  Biso   1.000  O
  O31      1.0000 0.82650  0.25967  0.65450  Biso   1.000  O
  O32      1.0000 0.32650  0.24033  0.34550  Biso   1.000  O
  O33      1.0000 0.95380  0.28680  0.09740  Biso   1.000  O
  O34      1.0000 0.45380  0.21320  0.90260  Biso   1.000  O
  O35      1.0000 0.04620  0.78680  0.40260  Biso   1.000  O
  O36      1.0000 0.54620  0.71320  0.59740  Biso   1.000  O
  O37      1.0000 0.04620  0.71320  0.90260  Biso   1.000  O
  O38      1.0000 0.54620  0.78680  0.09740  Biso   1.000  O
  O39      1.0000 0.95380  0.21320  0.59740  Biso   1.000  O
  O40      1.0000 0.45380  0.28680  0.40260  Biso   1.000  O
  O41      1.0000 0.80010  0.31681  0.08000  Biso   1.000  O
  O42      1.0000 0.30010  0.18319  0.92000  Biso   1.000  O
  O43      1.0000 0.19990  0.81681  0.42000  Biso   1.000  O
  O44      1.0000 0.69990  0.68319  0.58000  Biso   1.000  O
  O45      1.0000 0.19990  0.68319  0.92000  Biso   1.000  O
  O46      1.0000 0.69990  0.81681  0.08000  Biso   1.000  O
  O47      1.0000 0.80010  0.18319  0.58000  Biso   1.000  O
  O48      1.0000 0.30010  0.31681  0.42000  Biso   1.000  O
  O49      1.0000 0.66350  0.16969  0.24780  Biso   1.000  O
  O50      1.0000 0.16350  0.33031  0.75220  Biso   1.000  O
  O51      1.0000 0.33650  0.66969  0.25220  Biso   1.000  O
  O52      1.0000 0.83650  0.83031  0.74780  Biso   1.000  O
  O53      1.0000 0.33650  0.83031  0.75220  Biso   1.000  O
  O54      1.0000 0.83650  0.66969  0.24780  Biso   1.000  O
  O55      1.0000 0.66350  0.33031  0.74780  Biso   1.000  O
  O56      1.0000 0.16350  0.16969  0.25220  Biso   1.000  O
  N1       1.0000 0.67120  0.21063  0.00350  Biso   1.000  N
  N2       1.0000 0.17120  0.28937  0.99650  Biso   1.000  N
  N3       1.0000 0.32880  0.71063  0.49650  Biso   1.000  N
  N4       1.0000 0.82880  0.78937  0.50350  Biso   1.000  N
  N5       1.0000 0.32880  0.78937  0.99650  Biso   1.000  N
  N6       1.0000 0.82880  0.71063  0.00350  Biso   1.000  N
  N7       1.0000 0.67120  0.28937  0.50350  Biso   1.000  N
  N8       1.0000 0.17120  0.21063  0.49650  Biso   1.000  N
  N9       1.0000 0.67850  0.21162  0.80590  Biso   1.000  N
  N10      1.0000 0.17850  0.28838  0.19410  Biso   1.000  N
  N11      1.0000 0.32150  0.71162  0.69410  Biso   1.000  N
  N12      1.0000 0.82150  0.78838  0.30590  Biso   1.000  N
  N13      1.0000 0.32150  0.78838  0.19410  Biso   1.000  N
  N14      1.0000 0.82150  0.71162  0.80590  Biso   1.000  N
  N15      1.0000 0.67850  0.28838  0.30590  Biso   1.000  N
  N16      1.0000 0.17850  0.21162  0.69410  Biso   1.000  N
  N17      1.0000 0.49160  0.28800  0.11260  Biso   1.000  N
  N18      1.0000 0.99160  0.21200  0.88740  Biso   1.000  N
  N19      1.0000 0.50840  0.78800  0.38740  Biso   1.000  N
  N20      1.0000 0.00840  0.71200  0.61260  Biso   1.000  N
  N21      1.0000 0.50840  0.71200  0.88740  Biso   1.000  N
  N22      1.0000 0.00840  0.78800  0.11260  Biso   1.000  N
  N23      1.0000 0.49160  0.21200  0.61260  Biso   1.000  N
  N24      1.0000 0.99160  0.28800  0.38740  Biso   1.000  N
  N25      1.0000 0.86250  0.28280  0.10900  Biso   1.000  N
  N26      1.0000 0.36250  0.21720  0.89100  Biso   1.000  N
  N27      1.0000 0.13750  0.78280  0.39100  Biso   1.000  N
  N28      1.0000 0.63750  0.71720  0.60900  Biso   1.000  N
  N29      1.0000 0.13750  0.71720  0.89100  Biso   1.000  N
  N30      1.0000 0.63750  0.78280  0.10900  Biso   1.000  N
  N31      1.0000 0.86250  0.21720  0.60900  Biso   1.000  N
  N32      1.0000 0.36250  0.28280  0.39100  Biso   1.000  N
  C1       1.0000 0.68020  0.23520  0.90560  Biso   1.000  C
  C2       1.0000 0.18020  0.26480  0.09440  Biso   1.000  C
  C3       1.0000 0.31980  0.73520  0.59440  Biso   1.000  C
  C4       1.0000 0.81980  0.76480  0.40560  Biso   1.000  C
  C5       1.0000 0.31980  0.76480  0.09440  Biso   1.000  C
  C6       1.0000 0.81980  0.73520  0.90560  Biso   1.000  C
  C7       1.0000 0.68020  0.26480  0.40560  Biso   1.000  C
  C8       1.0000 0.18020  0.23520  0.59440  Biso   1.000  C
  C9       1.0000 0.66000  0.15826  0.00090  Biso   1.000  C
  C10      1.0000 0.16000  0.34174  0.99910  Biso   1.000  C
  C11      1.0000 0.34000  0.65826  0.49910  Biso   1.000  C
  C12      1.0000 0.84000  0.84174  0.50090  Biso   1.000  C
  C13      1.0000 0.34000  0.84174  0.99910  Biso   1.000  C
  C14      1.0000 0.84000  0.65826  0.00090  Biso   1.000  C
  C15      1.0000 0.66000  0.34174  0.50090  Biso   1.000  C
  C16      1.0000 0.16000  0.15826  0.49910  Biso   1.000  C
  C17      1.0000 0.66070  0.12940  0.90210  Biso   1.000  C
  C18      1.0000 0.16070  0.37060  0.09790  Biso   1.000  C
  C19      1.0000 0.33930  0.62940  0.59790  Biso   1.000  C
  C20      1.0000 0.83930  0.87060  0.40210  Biso   1.000  C
  C21      1.0000 0.33930  0.87060  0.09790  Biso   1.000  C
  C22      1.0000 0.83930  0.62940  0.90210  Biso   1.000  C
  C23      1.0000 0.66070  0.37060  0.40210  Biso   1.000  C
  C24      1.0000 0.16070  0.12940  0.59790  Biso   1.000  C
  C25      1.0000 0.67020  0.15869  0.80480  Biso   1.000  C
  C26      1.0000 0.17020  0.34131  0.19520  Biso   1.000  C
  C27      1.0000 0.32980  0.65869  0.69520  Biso   1.000  C
  C28      1.0000 0.82980  0.84131  0.30480  Biso   1.000  C
  C29      1.0000 0.32980  0.84131  0.19520  Biso   1.000  C
  C30      1.0000 0.82980  0.65869  0.80480  Biso   1.000  C
  C31      1.0000 0.67020  0.34131  0.30480  Biso   1.000  C
  C32      1.0000 0.17020  0.15869  0.69520  Biso   1.000  C
  C33      1.0000 0.64760  0.07107  0.90520  Biso   1.000  C
  C34      1.0000 0.14760  0.42893  0.09480  Biso   1.000  C
  C35      1.0000 0.35240  0.57107  0.59480  Biso   1.000  C
  C36      1.0000 0.85240  0.92893  0.40520  Biso   1.000  C
  C37      1.0000 0.35240  0.92893  0.09480  Biso   1.000  C
  C38      1.0000 0.85240  0.57107  0.90520  Biso   1.000  C
  C39      1.0000 0.64760  0.42893  0.40520  Biso   1.000  C
  C40      1.0000 0.14760  0.07107  0.59480  Biso   1.000  C
  C41      1.0000 0.55990  0.04868  0.85800  Biso   1.000  C
  C42      1.0000 0.05990  0.45132  0.14200  Biso   1.000  C
  C43      1.0000 0.44010  0.54868  0.64200  Biso   1.000  C
  C44      1.0000 0.94010  0.95132  0.35800  Biso   1.000  C
  C45      1.0000 0.44010  0.95132  0.14200  Biso   1.000  C
  C46      1.0000 0.94010  0.54868  0.85800  Biso   1.000  C
  C47      1.0000 0.55990  0.45132  0.35800  Biso   1.000  C
  C48      1.0000 0.05990  0.04868  0.64200  Biso   1.000  C
  C49      1.0000 0.48090  0.07930  0.80780  Biso   1.000  C
  C50      1.0000 0.98090  0.42070  0.19220  Biso   1.000  C
  C51      1.0000 0.51910  0.57930  0.69220  Biso   1.000  C
  C52      1.0000 0.01910  0.92070  0.30780  Biso   1.000  C
  C53      1.0000 0.51910  0.92070  0.19220  Biso   1.000  C
  C54      1.0000 0.01910  0.57930  0.80780  Biso   1.000  C
  C55      1.0000 0.48090  0.42070  0.30780  Biso   1.000  C
  C56      1.0000 0.98090  0.07930  0.69220  Biso   1.000  C
  C57      1.0000 0.39810  0.05610  0.76240  Biso   1.000  C
  C58      1.0000 0.89810  0.44390  0.23760  Biso   1.000  C
  C59      1.0000 0.60190  0.55610  0.73760  Biso   1.000  C
  C60      1.0000 0.10190  0.94390  0.26240  Biso   1.000  C
  C61      1.0000 0.60190  0.94390  0.23760  Biso   1.000  C
  C62      1.0000 0.10190  0.55610  0.76240  Biso   1.000  C
  C63      1.0000 0.39810  0.44390  0.26240  Biso   1.000  C
  C64      1.0000 0.89810  0.05610  0.73760  Biso   1.000  C
  C65      1.0000 0.38710  0.00010  0.76290  Biso   1.000  C
  C66      1.0000 0.88710  0.49990  0.23710  Biso   1.000  C
  C67      1.0000 0.61290  0.50010  0.73710  Biso   1.000  C
  C68      1.0000 0.11290  0.99990  0.26290  Biso   1.000  C
  C69      1.0000 0.61290  0.99990  0.23710  Biso   1.000  C
  C70      1.0000 0.11290  0.50010  0.76290  Biso   1.000  C
  C71      1.0000 0.38710  0.49990  0.26290  Biso   1.000  C
  C72      1.0000 0.88710  0.00010  0.73710  Biso   1.000  C
  C73      1.0000 0.45780  0.96990  0.81170  Biso   1.000  C
  C74      1.0000 0.95780  0.53010  0.18830  Biso   1.000  C
  C75      1.0000 0.54220  0.46990  0.68830  Biso   1.000  C
  C76      1.0000 0.04220  0.03010  0.31170  Biso   1.000  C
  C77      1.0000 0.54220  0.03010  0.18830  Biso   1.000  C
  C78      1.0000 0.04220  0.46990  0.81170  Biso   1.000  C
  C79      1.0000 0.45780  0.53010  0.31170  Biso   1.000  C
  C80      1.0000 0.95780  0.96990  0.68830  Biso   1.000  C
  C81      1.0000 0.54640  0.99277  0.86310  Biso   1.000  C
  C82      1.0000 0.04640  0.50723  0.13690  Biso   1.000  C
  C83      1.0000 0.45360  0.49277  0.63690  Biso   1.000  C
  C84      1.0000 0.95360  0.00723  0.36310  Biso   1.000  C
  C85      1.0000 0.45360  0.00723  0.13690  Biso   1.000  C
  C86      1.0000 0.95360  0.49277  0.86310  Biso   1.000  C
  C87      1.0000 0.54640  0.50723  0.36310  Biso   1.000  C
  C88      1.0000 0.04640  0.99277  0.63690  Biso   1.000  C
  C89      1.0000 0.61740  0.96210  0.91890  Biso   1.000  C
  C90      1.0000 0.11740  0.53790  0.08110  Biso   1.000  C
  C91      1.0000 0.38260  0.46210  0.58110  Biso   1.000  C
  C92      1.0000 0.88260  0.03790  0.41890  Biso   1.000  C
  C93      1.0000 0.38260  0.03790  0.08110  Biso   1.000  C
  C94      1.0000 0.88260  0.46210  0.91890  Biso   1.000  C
  C95      1.0000 0.61740  0.53790  0.41890  Biso   1.000  C
  C96      1.0000 0.11740  0.96210  0.58110  Biso   1.000  C
  C97      1.0000 0.70350  0.98387  0.96880  Biso   1.000  C
  C98      1.0000 0.20350  0.51613  0.03120  Biso   1.000  C
  C99      1.0000 0.29650  0.48387  0.53120  Biso   1.000  C
  C100     1.0000 0.79650  0.01613  0.46880  Biso   1.000  C
  C101     1.0000 0.29650  0.01613  0.03120  Biso   1.000  C
  C102     1.0000 0.79650  0.48387  0.96880  Biso   1.000  C
  C103     1.0000 0.70350  0.51613  0.46880  Biso   1.000  C
  C104     1.0000 0.20350  0.98387  0.53120  Biso   1.000  C
  C105     1.0000 0.77580  0.95220  0.02610  Biso   1.000  C
  C106     1.0000 0.27580  0.54780  0.97390  Biso   1.000  C
  C107     1.0000 0.22420  0.45220  0.47390  Biso   1.000  C
  C108     1.0000 0.72420  0.04780  0.52610  Biso   1.000  C
  C109     1.0000 0.22420  0.04780  0.97390  Biso   1.000  C
  C110     1.0000 0.72420  0.45220  0.02610  Biso   1.000  C
  C111     1.0000 0.77580  0.54780  0.52610  Biso   1.000  C
  C112     1.0000 0.27580  0.95220  0.47390  Biso   1.000  C
  C113     1.0000 0.86130  0.97390  0.07090  Biso   1.000  C
  C114     1.0000 0.36130  0.52610  0.92910  Biso   1.000  C
  C115     1.0000 0.13870  0.47390  0.42910  Biso   1.000  C
  C116     1.0000 0.63870  0.02610  0.57090  Biso   1.000  C
  C117     1.0000 0.13870  0.02610  0.92910  Biso   1.000  C
  C118     1.0000 0.63870  0.47390  0.07090  Biso   1.000  C
  C119     1.0000 0.86130  0.52610  0.57090  Biso   1.000  C
  C120     1.0000 0.36130  0.97390  0.42910  Biso   1.000  C
  C121     1.0000 0.87900  0.02890  0.06130  Biso   1.000  C
  C122     1.0000 0.37900  0.47110  0.93870  Biso   1.000  C
  C123     1.0000 0.12100  0.52890  0.43870  Biso   1.000  C
  C124     1.0000 0.62100  0.97110  0.56130  Biso   1.000  C
  C125     1.0000 0.12100  0.97110  0.93870  Biso   1.000  C
  C126     1.0000 0.62100  0.52890  0.06130  Biso   1.000  C
  C127     1.0000 0.87900  0.47110  0.56130  Biso   1.000  C
  C128     1.0000 0.37900  0.02890  0.43870  Biso   1.000  C
  C129     1.0000 0.81090  0.06080  0.00850  Biso   1.000  C
  C130     1.0000 0.31090  0.43920  0.99150  Biso   1.000  C
  C131     1.0000 0.18910  0.56080  0.49150  Biso   1.000  C
  C132     1.0000 0.68910  0.93920  0.50850  Biso   1.000  C
  C133     1.0000 0.18910  0.93920  0.99150  Biso   1.000  C
  C134     1.0000 0.68910  0.56080  0.00850  Biso   1.000  C
  C135     1.0000 0.81090  0.43920  0.50850  Biso   1.000  C
  C136     1.0000 0.31090  0.06080  0.49150  Biso   1.000  C
  C137     1.0000 0.72030  0.03989  0.96030  Biso   1.000  C
  C138     1.0000 0.22030  0.46011  0.03970  Biso   1.000  C
  C139     1.0000 0.27970  0.53989  0.53970  Biso   1.000  C
  C140     1.0000 0.77970  0.96011  0.46030  Biso   1.000  C
  C141     1.0000 0.27970  0.96011  0.03970  Biso   1.000  C
  C142     1.0000 0.77970  0.53989  0.96030  Biso   1.000  C
  C143     1.0000 0.72030  0.46011  0.46030  Biso   1.000  C
  C144     1.0000 0.22030  0.03989  0.53970  Biso   1.000  C
  C145     1.0000 0.74240  0.13720  0.29010  Biso   1.000  C
  C146     1.0000 0.24240  0.36280  0.70990  Biso   1.000  C
  C147     1.0000 0.25760  0.63720  0.20990  Biso   1.000  C
  C148     1.0000 0.75760  0.86280  0.79010  Biso   1.000  C
  C149     1.0000 0.25760  0.86280  0.70990  Biso   1.000  C
  C150     1.0000 0.75760  0.63720  0.29010  Biso   1.000  C
  C151     1.0000 0.74240  0.36280  0.79010  Biso   1.000  C
  C152     1.0000 0.24240  0.13720  0.20990  Biso   1.000  C
  H1       1.0000 0.68500  0.27600  0.90800  Biso   1.000  H
  H2       1.0000 0.18500  0.22400  0.09200  Biso   1.000  H
  H3       1.0000 0.31500  0.77600  0.59200  Biso   1.000  H
  H4       1.0000 0.81500  0.72400  0.40800  Biso   1.000  H
  H5       1.0000 0.31500  0.72400  0.09200  Biso   1.000  H
  H6       1.0000 0.81500  0.77600  0.90800  Biso   1.000  H
  H7       1.0000 0.68500  0.22400  0.40800  Biso   1.000  H
  H8       1.0000 0.18500  0.27600  0.59200  Biso   1.000  H
  H9       1.0000 0.64700  0.14380  0.06900  Biso   1.000  H
  H10      1.0000 0.14700  0.35620  0.93100  Biso   1.000  H
  H11      1.0000 0.35300  0.64380  0.43100  Biso   1.000  H
  H12      1.0000 0.85300  0.85620  0.56900  Biso   1.000  H
  H13      1.0000 0.35300  0.85620  0.93100  Biso   1.000  H
  H14      1.0000 0.85300  0.64380  0.06900  Biso   1.000  H
  H15      1.0000 0.64700  0.35620  0.56900  Biso   1.000  H
  H16      1.0000 0.14700  0.14380  0.43100  Biso   1.000  H
  H17      1.0000 0.66700  0.14700  0.74300  Biso   1.000  H
  H18      1.0000 0.16700  0.35300  0.25700  Biso   1.000  H
  H19      1.0000 0.33300  0.64700  0.75700  Biso   1.000  H
  H20      1.0000 0.83300  0.85300  0.24300  Biso   1.000  H
  H21      1.0000 0.33300  0.85300  0.25700  Biso   1.000  H
  H22      1.0000 0.83300  0.64700  0.74300  Biso   1.000  H
  H23      1.0000 0.66700  0.35300  0.24300  Biso   1.000  H
  H24      1.0000 0.16700  0.14700  0.75700  Biso   1.000  H
  H25      1.0000 0.49300  0.11500  0.79900  Biso   1.000  H
  H26      1.0000 0.99300  0.38500  0.20100  Biso   1.000  H
  H27      1.0000 0.50700  0.61500  0.70100  Biso   1.000  H
  H28      1.0000 0.00700  0.88500  0.29900  Biso   1.000  H
  H29      1.0000 0.50700  0.88500  0.20100  Biso   1.000  H
  H30      1.0000 0.00700  0.61500  0.79900  Biso   1.000  H
  H31      1.0000 0.49300  0.38500  0.29900  Biso   1.000  H
  H32      1.0000 0.99300  0.11500  0.70100  Biso   1.000  H
  H33      1.0000 0.34200  0.07600  0.73800  Biso   1.000  H
  H34      1.0000 0.84200  0.42400  0.26200  Biso   1.000  H
  H35      1.0000 0.65800  0.57600  0.76200  Biso   1.000  H
  H36      1.0000 0.15800  0.92400  0.23800  Biso   1.000  H
  H37      1.0000 0.65800  0.92400  0.26200  Biso   1.000  H
  H38      1.0000 0.15800  0.57600  0.73800  Biso   1.000  H
  H39      1.0000 0.34200  0.42400  0.23800  Biso   1.000  H
  H40      1.0000 0.84200  0.07600  0.76200  Biso   1.000  H
  H41      1.0000 0.32900  0.98400  0.71900  Biso   1.000  H
  H42      1.0000 0.82900  0.51600  0.28100  Biso   1.000  H
  H43      1.0000 0.67100  0.48400  0.78100  Biso   1.000  H
  H44      1.0000 0.17100  0.01600  0.21900  Biso   1.000  H
  H45      1.0000 0.67100  0.01600  0.28100  Biso   1.000  H
  H46      1.0000 0.17100  0.48400  0.71900  Biso   1.000  H
  H47      1.0000 0.32900  0.51600  0.21900  Biso   1.000  H
  H48      1.0000 0.82900  0.98400  0.78100  Biso   1.000  H
  H49      1.0000 0.44700  0.93600  0.82200  Biso   1.000  H
  H50      1.0000 0.94700  0.56400  0.17800  Biso   1.000  H
  H51      1.0000 0.55300  0.43600  0.67800  Biso   1.000  H
  H52      1.0000 0.05300  0.06400  0.32200  Biso   1.000  H
  H53      1.0000 0.55300  0.06400  0.17800  Biso   1.000  H
  H54      1.0000 0.05300  0.43600  0.82200  Biso   1.000  H
  H55      1.0000 0.44700  0.56400  0.32200  Biso   1.000  H
  H56      1.0000 0.94700  0.93600  0.67800  Biso   1.000  H
  H57      1.0000 0.60500  0.92800  0.92800  Biso   1.000  H
  H58      1.0000 0.10500  0.57200  0.07200  Biso   1.000  H
  H59      1.0000 0.39500  0.42800  0.57200  Biso   1.000  H
  H60      1.0000 0.89500  0.07200  0.42800  Biso   1.000  H
  H61      1.0000 0.39500  0.07200  0.07200  Biso   1.000  H
  H62      1.0000 0.89500  0.42800  0.92800  Biso   1.000  H
  H63      1.0000 0.60500  0.57200  0.42800  Biso   1.000  H
  H64      1.0000 0.10500  0.92800  0.57200  Biso   1.000  H
  H65      1.0000 0.75700  0.91500  0.04300  Biso   1.000  H
  H66      1.0000 0.25700  0.58500  0.95700  Biso   1.000  H
  H67      1.0000 0.24300  0.41500  0.45700  Biso   1.000  H
  H68      1.0000 0.74300  0.08500  0.54300  Biso   1.000  H
  H69      1.0000 0.24300  0.08500  0.95700  Biso   1.000  H
  H70      1.0000 0.74300  0.41500  0.04300  Biso   1.000  H
  H71      1.0000 0.75700  0.58500  0.54300  Biso   1.000  H
  H72      1.0000 0.25700  0.91500  0.45700  Biso   1.000  H
  H73      1.0000 0.91300  0.95500  0.10600  Biso   1.000  H
  H74      1.0000 0.41300  0.54500  0.89400  Biso   1.000  H
  H75      1.0000 0.08700  0.45500  0.39400  Biso   1.000  H
  H76      1.0000 0.58700  0.04500  0.60600  Biso   1.000  H
  H77      1.0000 0.08700  0.04500  0.89400  Biso   1.000  H
  H78      1.0000 0.58700  0.45500  0.10600  Biso   1.000  H
  H79      1.0000 0.91300  0.54500  0.60600  Biso   1.000  H
  H80      1.0000 0.41300  0.95500  0.39400  Biso   1.000  H
  H81      1.0000 0.93800  0.05000  0.09300  Biso   1.000  H
  H82      1.0000 0.43800  0.45000  0.90700  Biso   1.000  H
  H83      1.0000 0.06200  0.55000  0.40700  Biso   1.000  H
  H84      1.0000 0.56200  0.95000  0.59300  Biso   1.000  H
  H85      1.0000 0.06200  0.95000  0.90700  Biso   1.000  H
  H86      1.0000 0.56200  0.55000  0.09300  Biso   1.000  H
  H87      1.0000 0.93800  0.45000  0.59300  Biso   1.000  H
  H88      1.0000 0.43800  0.05000  0.40700  Biso   1.000  H
  H89      1.0000 0.82700  0.09600  0.01100  Biso   1.000  H
  H90      1.0000 0.32700  0.40400  0.98900  Biso   1.000  H
  H91      1.0000 0.17300  0.59600  0.48900  Biso   1.000  H
  H92      1.0000 0.67300  0.90400  0.51100  Biso   1.000  H
  H93      1.0000 0.17300  0.90400  0.98900  Biso   1.000  H
  H94      1.0000 0.67300  0.59600  0.01100  Biso   1.000  H
  H95      1.0000 0.82700  0.40400  0.51100  Biso   1.000  H
  H96      1.0000 0.32700  0.09600  0.48900  Biso   1.000  H
  H97      1.0000 0.60400  0.16200  0.28100  Biso   1.000  H
  H98      1.0000 0.10400  0.33800  0.71900  Biso   1.000  H
  H99      1.0000 0.39600  0.66200  0.21900  Biso   1.000  H
  H100     1.0000 0.89600  0.83800  0.78100  Biso   1.000  H
  H101     1.0000 0.39600  0.83800  0.71900  Biso   1.000  H
  H102     1.0000 0.89600  0.66200  0.28100  Biso   1.000  H
  H103     1.0000 0.60400  0.33800  0.78100  Biso   1.000  H
  H104     1.0000 0.10400  0.16200  0.21900  Biso   1.000  H
  H105     1.0000 0.77300  0.11800  0.24400  Biso   1.000  H
  H106     1.0000 0.27300  0.38200  0.75600  Biso   1.000  H
  H107     1.0000 0.22700  0.61800  0.25600  Biso   1.000  H
  H108     1.0000 0.72700  0.88200  0.74400  Biso   1.000  H
  H109     1.0000 0.22700  0.88200  0.75600  Biso   1.000  H
  H110     1.0000 0.72700  0.61800  0.24400  Biso   1.000  H
  H111     1.0000 0.77300  0.38200  0.74400  Biso   1.000  H
  H112     1.0000 0.27300  0.11800  0.25600  Biso   1.000  H
  H113     1.0000 0.72000  0.11200  0.34300  Biso   1.000  H
  H114     1.0000 0.22000  0.38800  0.65700  Biso   1.000  H
  H115     1.0000 0.28000  0.61200  0.15700  Biso   1.000  H
  H116     1.0000 0.78000  0.88800  0.84300  Biso   1.000  H
  H117     1.0000 0.28000  0.88800  0.65700  Biso   1.000  H
  H118     1.0000 0.78000  0.61200  0.34300  Biso   1.000  H
  H119     1.0000 0.72000  0.38800  0.84300  Biso   1.000  H
  H120     1.0000 0.22000  0.11200  0.15700  Biso   1.000  H
  H121     1.0000 0.79100  0.15700  0.33100  Biso   1.000  H
  H122     1.0000 0.29100  0.34300  0.66900  Biso   1.000  H
  H123     1.0000 0.20900  0.65700  0.16900  Biso   1.000  H
  H124     1.0000 0.70900  0.84300  0.83100  Biso   1.000  H
  H125     1.0000 0.20900  0.84300  0.66900  Biso   1.000  H
  H126     1.0000 0.70900  0.65700  0.33100  Biso   1.000  H
  H127     1.0000 0.79100  0.34300  0.83100  Biso   1.000  H
  H128     1.0000 0.29100  0.15700  0.16900  Biso   1.000  H
  O57      1.0000 0.98720  0.15660  0.14750  Biso   1.000  O
  O58      1.0000 0.48720  0.34340  0.85250  Biso   1.000  O
  O59      1.0000 0.01280  0.65660  0.35250  Biso   1.000  O
  O60      1.0000 0.51280  0.84340  0.64750  Biso   1.000  O
  O61      1.0000 0.01280  0.84340  0.85250  Biso   1.000  O
  O62      1.0000 0.51280  0.65660  0.14750  Biso   1.000  O
  O63      1.0000 0.98720  0.34340  0.64750  Biso   1.000  O
  O64      1.0000 0.48720  0.15660  0.35250  Biso   1.000  O
  H129     1.0000 0.95000  0.18100  0.17200  Biso   1.000  H
  H130     1.0000 0.45000  0.31900  0.82800  Biso   1.000  H
  H131     1.0000 0.05000  0.68100  0.32800  Biso   1.000  H
  H132     1.0000 0.55000  0.81900  0.67200  Biso   1.000  H
  H133     1.0000 0.05000  0.81900  0.82800  Biso   1.000  H
  H134     1.0000 0.55000  0.68100  0.17200  Biso   1.000  H
  H135     1.0000 0.95000  0.31900  0.67200  Biso   1.000  H
  H136     1.0000 0.45000  0.18100  0.32800  Biso   1.000  H
  H137     1.0000 0.99500  0.16800  0.08400  Biso   1.000  H
  H138     1.0000 0.49500  0.33200  0.91600  Biso   1.000  H
  H139     1.0000 0.00500  0.66800  0.41600  Biso   1.000  H
  H140     1.0000 0.50500  0.83200  0.58400  Biso   1.000  H
  H141     1.0000 0.00500  0.83200  0.91600  Biso   1.000  H
  H142     1.0000 0.50500  0.66800  0.08400  Biso   1.000  H
  H143     1.0000 0.99500  0.33200  0.58400  Biso   1.000  H
  H144     1.0000 0.49500  0.16800  0.41600  Biso   1.000  H
