data_image0
_cell_length_a       13.734
_cell_length_b       7.248
_cell_length_c       22.423
_cell_angle_alpha    90
_cell_angle_beta     95.75
_cell_angle_gamma    90

_symmetry_space_group_name_H-M    "P 1"
_symmetry_int_tables_number       1

loop_
  _symmetry_equiv_pos_as_xyz
  'x, y, z'

loop_
  _atom_site_label
  _atom_site_occupancy
  _atom_site_fract_x
  _atom_site_fract_y
  _atom_site_fract_z
  _atom_site_thermal_displace_type
  _atom_site_B_iso_or_equiv
  _atom_site_type_symbol
  Cu1      1.0000 0.60176  0.45298  0.78484  Biso   1.000  Cu
  Cu2      1.0000 0.89824  0.95298  0.71516  Biso   1.000  Cu
  Cu3      1.0000 0.39824  0.54702  0.21516  Biso   1.000  Cu
  Cu4      1.0000 0.10176  0.04702  0.28484  Biso   1.000  Cu
  O1       1.0000 0.48210  0.30380  0.76330  Biso   1.000  O
  O2       1.0000 0.01790  0.80380  0.73670  Biso   1.000  O
  O3       1.0000 0.51790  0.69620  0.23670  Biso   1.000  O
  O4       1.0000 0.98210  0.19620  0.26330  Biso   1.000  O
  O5       1.0000 0.53770  0.59610  0.84580  Biso   1.000  O
  O6       1.0000 0.96230  0.09610  0.65420  Biso   1.000  O
  O7       1.0000 0.46230  0.40390  0.15420  Biso   1.000  O
  O8       1.0000 0.03770  0.90390  0.34580  Biso   1.000  O
  O9       1.0000 0.54080  0.98750  0.70780  Biso   1.000  O
  O10      1.0000 0.95920  0.48750  0.79220  Biso   1.000  O
  O11      1.0000 0.45920  0.01250  0.29220  Biso   1.000  O
  O12      1.0000 0.04080  0.51250  0.20780  Biso   1.000  O
  O13      1.0000 0.55320  0.69030  0.71570  Biso   1.000  O
  O14      1.0000 0.94680  0.19030  0.78430  Biso   1.000  O
  O15      1.0000 0.44680  0.30970  0.28430  Biso   1.000  O
  O16      1.0000 0.05320  0.80970  0.21570  Biso   1.000  O
  O17      1.0000 0.43590  0.83660  0.75070  Biso   1.000  O
  O18      1.0000 0.06410  0.33660  0.74930  Biso   1.000  O
  O19      1.0000 0.56410  0.16340  0.24930  Biso   1.000  O
  O20      1.0000 0.93590  0.66340  0.25070  Biso   1.000  O
  O21      1.0000 0.65600  0.23680  0.85640  Biso   1.000  O
  O22      1.0000 0.84400  0.73680  0.64360  Biso   1.000  O
  O23      1.0000 0.34400  0.76320  0.14360  Biso   1.000  O
  O24      1.0000 0.15600  0.26320  0.35640  Biso   1.000  O
  O25      1.0000 0.63180  0.94760  0.83720  Biso   1.000  O
  O26      1.0000 0.86820  0.44760  0.66280  Biso   1.000  O
  O27      1.0000 0.36820  0.05240  0.16280  Biso   1.000  O
  O28      1.0000 0.13180  0.55240  0.33720  Biso   1.000  O
  O29      1.0000 0.54560  0.08420  0.89730  Biso   1.000  O
  O30      1.0000 0.95440  0.58420  0.60270  Biso   1.000  O
  O31      1.0000 0.45440  0.91580  0.10270  Biso   1.000  O
  O32      1.0000 0.04560  0.41580  0.39730  Biso   1.000  O
  N1       1.0000 0.66270  0.32320  0.71710  Biso   1.000  N
  N2       1.0000 0.83730  0.82320  0.78290  Biso   1.000  N
  N3       1.0000 0.33730  0.67680  0.28290  Biso   1.000  N
  N4       1.0000 0.16270  0.17680  0.21710  Biso   1.000  N
  N5       1.0000 0.77380  0.09700  0.69100  Biso   1.000  N
  N6       1.0000 0.72620  0.59700  0.80900  Biso   1.000  N
  N7       1.0000 0.22620  0.90300  0.30900  Biso   1.000  N
  N8       1.0000 0.27380  0.40300  0.19100  Biso   1.000  N
  N9       1.0000 0.51030  0.84010  0.72480  Biso   1.000  N
  N10      1.0000 0.98970  0.34010  0.77520  Biso   1.000  N
  N11      1.0000 0.48970  0.15990  0.27520  Biso   1.000  N
  N12      1.0000 0.01030  0.65990  0.22480  Biso   1.000  N
  N13      1.0000 0.60990  0.08870  0.86370  Biso   1.000  N
  N14      1.0000 0.89010  0.58870  0.63630  Biso   1.000  N
  N15      1.0000 0.39010  0.91130  0.13630  Biso   1.000  N
  N16      1.0000 0.10990  0.41130  0.36370  Biso   1.000  N
  C1       1.0000 0.73560  0.20350  0.73080  Biso   1.000  C
  C2       1.0000 0.76440  0.70350  0.76920  Biso   1.000  C
  C3       1.0000 0.26440  0.79650  0.26920  Biso   1.000  C
  C4       1.0000 0.23560  0.29650  0.23080  Biso   1.000  C
  C5       1.0000 0.73510  0.10770  0.63320  Biso   1.000  C
  C6       1.0000 0.76490  0.60770  0.86680  Biso   1.000  C
  C7       1.0000 0.26490  0.89230  0.36680  Biso   1.000  C
  C8       1.0000 0.23510  0.39230  0.13320  Biso   1.000  C
  C9       1.0000 0.66100  0.23110  0.61450  Biso   1.000  C
  C10      1.0000 0.83900  0.73110  0.88550  Biso   1.000  C
  C11      1.0000 0.33900  0.76890  0.38550  Biso   1.000  C
  C12      1.0000 0.16100  0.26890  0.11450  Biso   1.000  C
  C13      1.0000 0.62740  0.33730  0.65970  Biso   1.000  C
  C14      1.0000 0.87260  0.83730  0.84030  Biso   1.000  C
  C15      1.0000 0.37260  0.66270  0.34030  Biso   1.000  C
  C16      1.0000 0.12740  0.16270  0.15970  Biso   1.000  C
  C17      1.0000 0.62070  0.25230  0.55070  Biso   1.000  C
  C18      1.0000 0.87930  0.75230  0.94930  Biso   1.000  C
  C19      1.0000 0.37930  0.74770  0.44930  Biso   1.000  C
  C20      1.0000 0.12070  0.24770  0.05070  Biso   1.000  C
  C21      1.0000 0.68420  0.29460  0.50660  Biso   1.000  C
  C22      1.0000 0.81580  0.79460  0.99340  Biso   1.000  C
  C23      1.0000 0.31580  0.70540  0.49340  Biso   1.000  C
  C24      1.0000 0.18420  0.20540  0.00660  Biso   1.000  C
  C25      1.0000 0.78720  0.32420  0.52000  Biso   1.000  C
  C26      1.0000 0.71280  0.82420  0.98000  Biso   1.000  C
  C27      1.0000 0.21280  0.67580  0.48000  Biso   1.000  C
  C28      1.0000 0.28720  0.17580  0.02000  Biso   1.000  C
  C29      1.0000 0.84510  0.36540  0.47550  Biso   1.000  C
  C30      1.0000 0.65490  0.86540  0.02450  Biso   1.000  C
  C31      1.0000 0.15490  0.63460  0.52450  Biso   1.000  C
  C32      1.0000 0.34510  0.13460  0.97550  Biso   1.000  C
  C33      1.0000 0.80660  0.37490  0.41570  Biso   1.000  C
  C34      1.0000 0.69340  0.87490  0.08430  Biso   1.000  C
  C35      1.0000 0.19340  0.62510  0.58430  Biso   1.000  C
  C36      1.0000 0.30660  0.12510  0.91570  Biso   1.000  C
  C37      1.0000 0.70970  0.35180  0.40080  Biso   1.000  C
  C38      1.0000 0.79030  0.85180  0.09920  Biso   1.000  C
  C39      1.0000 0.29030  0.64820  0.59920  Biso   1.000  C
  C40      1.0000 0.20970  0.14820  0.90080  Biso   1.000  C
  C41      1.0000 0.64470  0.31310  0.44520  Biso   1.000  C
  C42      1.0000 0.85530  0.81310  0.05480  Biso   1.000  C
  C43      1.0000 0.35530  0.68690  0.55480  Biso   1.000  C
  C44      1.0000 0.14470  0.18690  0.94520  Biso   1.000  C
  C45      1.0000 0.54410  0.30000  0.43080  Biso   1.000  C
  C46      1.0000 0.95590  0.80000  0.06920  Biso   1.000  C
  C47      1.0000 0.45590  0.70000  0.56920  Biso   1.000  C
  C48      1.0000 0.04410  0.20000  0.93080  Biso   1.000  C
  C49      1.0000 0.48030  0.26310  0.47300  Biso   1.000  C
  C50      1.0000 0.01970  0.76310  0.02700  Biso   1.000  C
  C51      1.0000 0.51970  0.73690  0.52700  Biso   1.000  C
  C52      1.0000 0.98030  0.23690  0.97300  Biso   1.000  C
  C53      1.0000 0.37750  0.25210  0.45710  Biso   1.000  C
  C54      1.0000 0.12250  0.75210  0.04290  Biso   1.000  C
  C55      1.0000 0.62250  0.74790  0.54290  Biso   1.000  C
  C56      1.0000 0.87750  0.24790  0.95710  Biso   1.000  C
  C57      1.0000 0.31560  0.21170  0.49830  Biso   1.000  C
  C58      1.0000 0.18440  0.71170  0.00170  Biso   1.000  C
  C59      1.0000 0.68440  0.78830  0.50170  Biso   1.000  C
  C60      1.0000 0.81560  0.28830  0.99830  Biso   1.000  C
  C61      1.0000 0.35340  0.17060  0.55910  Biso   1.000  C
  C62      1.0000 0.14660  0.67060  0.94090  Biso   1.000  C
  C63      1.0000 0.64660  0.82940  0.44090  Biso   1.000  C
  C64      1.0000 0.85340  0.32940  0.05910  Biso   1.000  C
  C65      1.0000 0.45110  0.18090  0.57600  Biso   1.000  C
  C66      1.0000 0.04890  0.68090  0.92400  Biso   1.000  C
  C67      1.0000 0.54890  0.81910  0.42400  Biso   1.000  C
  C68      1.0000 0.95110  0.31910  0.07600  Biso   1.000  C
  C69      1.0000 0.51910  0.23290  0.53440  Biso   1.000  C
  C70      1.0000 0.98090  0.73290  0.96560  Biso   1.000  C
  C71      1.0000 0.48090  0.76710  0.46560  Biso   1.000  C
  C72      1.0000 0.01910  0.26710  0.03440  Biso   1.000  C
  C73      1.0000 0.38910  0.36450  0.74300  Biso   1.000  C
  C74      1.0000 0.11090  0.86450  0.75700  Biso   1.000  C
  C75      1.0000 0.61090  0.63550  0.25700  Biso   1.000  C
  C76      1.0000 0.88910  0.13550  0.24300  Biso   1.000  C
  C77      1.0000 0.30950  0.25460  0.73400  Biso   1.000  C
  C78      1.0000 0.19050  0.75460  0.76600  Biso   1.000  C
  C79      1.0000 0.69050  0.74540  0.26600  Biso   1.000  C
  C80      1.0000 0.80950  0.24540  0.23400  Biso   1.000  C
  C81      1.0000 0.49000  0.54110  0.89510  Biso   1.000  C
  C82      1.0000 0.01000  0.04110  0.60490  Biso   1.000  C
  C83      1.0000 0.51000  0.45890  0.10490  Biso   1.000  C
  C84      1.0000 0.99000  0.95890  0.39510  Biso   1.000  C
  C85      1.0000 0.42760  0.64150  0.92110  Biso   1.000  C
  C86      1.0000 0.07240  0.14150  0.57890  Biso   1.000  C
  C87      1.0000 0.57240  0.35850  0.07890  Biso   1.000  C
  C88      1.0000 0.92760  0.85850  0.42110  Biso   1.000  C
  H1       1.0000 0.76200  0.20200  0.76700  Biso   1.000  H
  H2       1.0000 0.73800  0.70200  0.73300  Biso   1.000  H
  H3       1.0000 0.23800  0.79800  0.23300  Biso   1.000  H
  H4       1.0000 0.26200  0.29800  0.26700  Biso   1.000  H
  H5       1.0000 0.76900  0.03200  0.60500  Biso   1.000  H
  H6       1.0000 0.73100  0.53200  0.89500  Biso   1.000  H
  H7       1.0000 0.23100  0.96800  0.39500  Biso   1.000  H
  H8       1.0000 0.26900  0.46800  0.10500  Biso   1.000  H
  H9       1.0000 0.59000  0.40800  0.65300  Biso   1.000  H
  H10      1.0000 0.91000  0.90800  0.84700  Biso   1.000  H
  H11      1.0000 0.41000  0.59200  0.34700  Biso   1.000  H
  H12      1.0000 0.09000  0.09200  0.15300  Biso   1.000  H
  H13      1.0000 0.82100  0.31800  0.56000  Biso   1.000  H
  H14      1.0000 0.67900  0.81800  0.94000  Biso   1.000  H
  H15      1.0000 0.17900  0.68200  0.44000  Biso   1.000  H
  H16      1.0000 0.32100  0.18200  0.06000  Biso   1.000  H
  H17      1.0000 0.91700  0.41500  0.48300  Biso   1.000  H
  H18      1.0000 0.58300  0.91500  0.01700  Biso   1.000  H
  H19      1.0000 0.08300  0.58500  0.51700  Biso   1.000  H
  H20      1.0000 0.41700  0.08500  0.98300  Biso   1.000  H
  H21      1.0000 0.83700  0.39000  0.38500  Biso   1.000  H
  H22      1.0000 0.66300  0.89000  0.11500  Biso   1.000  H
  H23      1.0000 0.16300  0.61000  0.61500  Biso   1.000  H
  H24      1.0000 0.33700  0.11000  0.88500  Biso   1.000  H
  H25      1.0000 0.67900  0.36900  0.36800  Biso   1.000  H
  H26      1.0000 0.82100  0.86900  0.13200  Biso   1.000  H
  H27      1.0000 0.32100  0.63100  0.63200  Biso   1.000  H
  H28      1.0000 0.17900  0.13100  0.86800  Biso   1.000  H
  H29      1.0000 0.52100  0.31100  0.39100  Biso   1.000  H
  H30      1.0000 0.97900  0.81100  0.10900  Biso   1.000  H
  H31      1.0000 0.47900  0.68900  0.60900  Biso   1.000  H
  H32      1.0000 0.02100  0.18900  0.89100  Biso   1.000  H
  H33      1.0000 0.36000  0.27900  0.41600  Biso   1.000  H
  H34      1.0000 0.14000  0.77900  0.08400  Biso   1.000  H
  H35      1.0000 0.64000  0.72100  0.58400  Biso   1.000  H
  H36      1.0000 0.86000  0.22100  0.91600  Biso   1.000  H
  H37      1.0000 0.24600  0.20900  0.48800  Biso   1.000  H
  H38      1.0000 0.25400  0.70900  0.01200  Biso   1.000  H
  H39      1.0000 0.75400  0.79100  0.51200  Biso   1.000  H
  H40      1.0000 0.74600  0.29100  0.98800  Biso   1.000  H
  H41      1.0000 0.31600  0.13600  0.58800  Biso   1.000  H
  H42      1.0000 0.18400  0.63600  0.91200  Biso   1.000  H
  H43      1.0000 0.68400  0.86400  0.41200  Biso   1.000  H
  H44      1.0000 0.81600  0.36400  0.08800  Biso   1.000  H
  H45      1.0000 0.47400  0.14000  0.62000  Biso   1.000  H
  H46      1.0000 0.02600  0.64000  0.88000  Biso   1.000  H
  H47      1.0000 0.52600  0.86000  0.38000  Biso   1.000  H
  H48      1.0000 0.97400  0.36000  0.12000  Biso   1.000  H
  H49      1.0000 0.48700  0.21600  0.74600  Biso   1.000  H
  H50      1.0000 0.01300  0.71600  0.75400  Biso   1.000  H
  H51      1.0000 0.51300  0.78400  0.25400  Biso   1.000  H
  H52      1.0000 0.98700  0.28400  0.24600  Biso   1.000  H
  H53      1.0000 0.39710  0.41630  0.70320  Biso   1.000  H
  H54      1.0000 0.10290  0.91630  0.79680  Biso   1.000  H
  H55      1.0000 0.60290  0.58370  0.29680  Biso   1.000  H
  H56      1.0000 0.89710  0.08370  0.20320  Biso   1.000  H
  H57      1.0000 0.37470  0.46140  0.76810  Biso   1.000  H
  H58      1.0000 0.12530  0.96140  0.73190  Biso   1.000  H
  H59      1.0000 0.62530  0.53860  0.23190  Biso   1.000  H
  H60      1.0000 0.87470  0.03860  0.26810  Biso   1.000  H
  H61      1.0000 0.31920  0.15860  0.70710  Biso   1.000  H
  H62      1.0000 0.18080  0.65860  0.79290  Biso   1.000  H
  H63      1.0000 0.68080  0.84140  0.29290  Biso   1.000  H
  H64      1.0000 0.81920  0.34140  0.20710  Biso   1.000  H
  H65      1.0000 0.25390  0.32690  0.71870  Biso   1.000  H
  H66      1.0000 0.24610  0.82690  0.78130  Biso   1.000  H
  H67      1.0000 0.74610  0.67310  0.28130  Biso   1.000  H
  H68      1.0000 0.75390  0.17310  0.21870  Biso   1.000  H
  H69      1.0000 0.29640  0.20470  0.77180  Biso   1.000  H
  H70      1.0000 0.20360  0.70470  0.72820  Biso   1.000  H
  H71      1.0000 0.70360  0.79530  0.22820  Biso   1.000  H
  H72      1.0000 0.79640  0.29530  0.27180  Biso   1.000  H
  H73      1.0000 0.54900  0.67700  0.84500  Biso   1.000  H
  H74      1.0000 0.95100  0.17700  0.65500  Biso   1.000  H
  H75      1.0000 0.45100  0.32300  0.15500  Biso   1.000  H
  H76      1.0000 0.04900  0.82300  0.34500  Biso   1.000  H
  H77      1.0000 0.46660  0.42040  0.88750  Biso   1.000  H
  H78      1.0000 0.03340  0.92040  0.61250  Biso   1.000  H
  H79      1.0000 0.53340  0.57960  0.11250  Biso   1.000  H
  H80      1.0000 0.96660  0.07960  0.38750  Biso   1.000  H
  H81      1.0000 0.54610  0.52600  0.92800  Biso   1.000  H
  H82      1.0000 0.95390  0.02600  0.57200  Biso   1.000  H
  H83      1.0000 0.45390  0.47400  0.07200  Biso   1.000  H
  H84      1.0000 0.04610  0.97400  0.42800  Biso   1.000  H
  H85      1.0000 0.44870  0.75840  0.93080  Biso   1.000  H
  H86      1.0000 0.05130  0.25840  0.56920  Biso   1.000  H
  H87      1.0000 0.55130  0.24160  0.06920  Biso   1.000  H
  H88      1.0000 0.94870  0.74160  0.43080  Biso   1.000  H
  H89      1.0000 0.40360  0.57930  0.95420  Biso   1.000  H
  H90      1.0000 0.09640  0.07930  0.54580  Biso   1.000  H
  H91      1.0000 0.59640  0.42070  0.04580  Biso   1.000  H
  H92      1.0000 0.90360  0.92070  0.45420  Biso   1.000  H
  H93      1.0000 0.36900  0.65220  0.89050  Biso   1.000  H
  H94      1.0000 0.13100  0.15220  0.60950  Biso   1.000  H
  H95      1.0000 0.63100  0.34780  0.10950  Biso   1.000  H
  H96      1.0000 0.86900  0.84780  0.39050  Biso   1.000  H
