data_image0
_cell_length_a       13.668
_cell_length_b       13.668
_cell_length_c       17.2
_cell_angle_alpha    90
_cell_angle_beta     90
_cell_angle_gamma    120

_symmetry_space_group_name_H-M    "P 1"
_symmetry_int_tables_number       1

loop_
  _symmetry_equiv_pos_as_xyz
  'x, y, z'

loop_
  _atom_site_label
  _atom_site_occupancy
  _atom_site_fract_x
  _atom_site_fract_y
  _atom_site_fract_z
  _atom_site_thermal_displace_type
  _atom_site_B_iso_or_equiv
  _atom_site_type_symbol
  Cu1      1.0000 0.77654  0.81874  0.26159  Biso   1.000  Cu
  Cu2      1.0000 0.18126  0.95780  0.26159  Biso   1.000  Cu
  Cu3      1.0000 0.04220  0.22346  0.26159  Biso   1.000  Cu
  Cu4      1.0000 0.22346  0.18126  0.76159  Biso   1.000  Cu
  Cu5      1.0000 0.81874  0.04220  0.76159  Biso   1.000  Cu
  Cu6      1.0000 0.95780  0.77654  0.76159  Biso   1.000  Cu
  Cl1      1.0000 0.00000  0.00000  0.50431  Biso   1.000  Cl
  Cl2      1.0000 0.00000  0.00000  0.00431  Biso   1.000  Cl
  Cl3      1.0000 0.61050  0.63396  0.54838  Biso   1.000  Cl
  Cl4      1.0000 0.36604  0.97654  0.54838  Biso   1.000  Cl
  Cl5      1.0000 0.02346  0.38950  0.54838  Biso   1.000  Cl
  Cl6      1.0000 0.38950  0.36604  0.04838  Biso   1.000  Cl
  Cl7      1.0000 0.63396  0.02346  0.04838  Biso   1.000  Cl
  Cl8      1.0000 0.97654  0.61050  0.04838  Biso   1.000  Cl
  O1       1.0000 0.89702  0.97865  0.26645  Biso   1.000  O
  O2       1.0000 0.02135  0.91837  0.26645  Biso   1.000  O
  O3       1.0000 0.08163  0.10298  0.26645  Biso   1.000  O
  O4       1.0000 0.10298  0.02135  0.76645  Biso   1.000  O
  O5       1.0000 0.97865  0.08163  0.76645  Biso   1.000  O
  O6       1.0000 0.91837  0.89702  0.76645  Biso   1.000  O
  O7       1.0000 0.00000  0.00000  0.58870  Biso   1.000  O
  O8       1.0000 0.00000  0.00000  0.08870  Biso   1.000  O
  O9       1.0000 0.02300  0.91410  0.47651  Biso   1.000  O
  O10      1.0000 0.08590  0.10890  0.47651  Biso   1.000  O
  O11      1.0000 0.89110  0.97700  0.47651  Biso   1.000  O
  O12      1.0000 0.97700  0.08590  0.97651  Biso   1.000  O
  O13      1.0000 0.91410  0.89110  0.97651  Biso   1.000  O
  O14      1.0000 0.10890  0.02300  0.97651  Biso   1.000  O
  O15      1.0000 0.57290  0.64110  0.47481  Biso   1.000  O
  O16      1.0000 0.35890  0.93180  0.47481  Biso   1.000  O
  O17      1.0000 0.06820  0.42710  0.47481  Biso   1.000  O
  O18      1.0000 0.42710  0.35890  0.97481  Biso   1.000  O
  O19      1.0000 0.64110  0.06820  0.97481  Biso   1.000  O
  O20      1.0000 0.93180  0.57290  0.97481  Biso   1.000  O
  O21      1.0000 0.55910  0.66340  0.60660  Biso   1.000  O
  O22      1.0000 0.33660  0.89570  0.60660  Biso   1.000  O
  O23      1.0000 0.10430  0.44090  0.60660  Biso   1.000  O
  O24      1.0000 0.44090  0.33660  0.10660  Biso   1.000  O
  O25      1.0000 0.66340  0.10430  0.10660  Biso   1.000  O
  O26      1.0000 0.89570  0.55910  0.10660  Biso   1.000  O
  O27      1.0000 0.63800  0.56000  0.57850  Biso   1.000  O
  O28      1.0000 0.44000  0.07800  0.57850  Biso   1.000  O
  O29      1.0000 0.92200  0.36200  0.57850  Biso   1.000  O
  O30      1.0000 0.36200  0.44000  0.07850  Biso   1.000  O
  O31      1.0000 0.56000  0.92200  0.07850  Biso   1.000  O
  O32      1.0000 0.07800  0.63800  0.07850  Biso   1.000  O
  O33      1.0000 0.55050  0.51040  0.55380  Biso   1.000  O
  O34      1.0000 0.48960  0.04010  0.55380  Biso   1.000  O
  O35      1.0000 0.95990  0.44950  0.55380  Biso   1.000  O
  O36      1.0000 0.44950  0.48960  0.05380  Biso   1.000  O
  O37      1.0000 0.51040  0.95990  0.05380  Biso   1.000  O
  O38      1.0000 0.04010  0.55050  0.05380  Biso   1.000  O
  O39      1.0000 0.71040  0.74450  0.55340  Biso   1.000  O
  O40      1.0000 0.25550  0.96590  0.55340  Biso   1.000  O
  O41      1.0000 0.03410  0.28960  0.55340  Biso   1.000  O
  O42      1.0000 0.28960  0.25550  0.05340  Biso   1.000  O
  O43      1.0000 0.74450  0.03410  0.05340  Biso   1.000  O
  O44      1.0000 0.96590  0.71040  0.05340  Biso   1.000  O
  O45      1.0000 0.72400  0.65800  0.54770  Biso   1.000  O
  O46      1.0000 0.34200  0.06600  0.54770  Biso   1.000  O
  O47      1.0000 0.93400  0.27600  0.54770  Biso   1.000  O
  O48      1.0000 0.27600  0.34200  0.04770  Biso   1.000  O
  O49      1.0000 0.65800  0.93400  0.04770  Biso   1.000  O
  O50      1.0000 0.06600  0.72400  0.04770  Biso   1.000  O
  N1       1.0000 0.69020  0.64600  0.24047  Biso   1.000  N
  N2       1.0000 0.35400  0.04420  0.24047  Biso   1.000  N
  N3       1.0000 0.95580  0.30980  0.24047  Biso   1.000  N
  N4       1.0000 0.30980  0.35400  0.74047  Biso   1.000  N
  N5       1.0000 0.64600  0.95580  0.74047  Biso   1.000  N
  N6       1.0000 0.04420  0.69020  0.74047  Biso   1.000  N
  N7       1.0000 0.82160  0.77210  0.36097  Biso   1.000  N
  N8       1.0000 0.22790  0.04950  0.36097  Biso   1.000  N
  N9       1.0000 0.95050  0.17840  0.36097  Biso   1.000  N
  N10      1.0000 0.17840  0.22790  0.86097  Biso   1.000  N
  N11      1.0000 0.77210  0.95050  0.86097  Biso   1.000  N
  N12      1.0000 0.04950  0.82160  0.86097  Biso   1.000  N
  H1       1.0000 0.89890  0.81250  0.36600  Biso   1.000  H
  H2       1.0000 0.18750  0.08640  0.36600  Biso   1.000  H
  H3       1.0000 0.91360  0.10110  0.36600  Biso   1.000  H
  H4       1.0000 0.10110  0.18750  0.86600  Biso   1.000  H
  H5       1.0000 0.81250  0.91360  0.86600  Biso   1.000  H
  H6       1.0000 0.08640  0.89890  0.86600  Biso   1.000  H
  H7       1.0000 0.79090  0.78940  0.40270  Biso   1.000  H
  H8       1.0000 0.21060  0.00150  0.40270  Biso   1.000  H
  H9       1.0000 0.99850  0.20910  0.40270  Biso   1.000  H
  H10      1.0000 0.20910  0.21060  0.90270  Biso   1.000  H
  H11      1.0000 0.78940  0.99850  0.90270  Biso   1.000  H
  H12      1.0000 0.00150  0.79090  0.90270  Biso   1.000  H
  N13      1.0000 0.76160  0.83120  0.14590  Biso   1.000  N
  N14      1.0000 0.16880  0.93040  0.14590  Biso   1.000  N
  N15      1.0000 0.06960  0.23840  0.14590  Biso   1.000  N
  N16      1.0000 0.23840  0.16880  0.64590  Biso   1.000  N
  N17      1.0000 0.83120  0.06960  0.64590  Biso   1.000  N
  N18      1.0000 0.93040  0.76160  0.64590  Biso   1.000  N
  H13      1.0000 0.74090  0.88450  0.13600  Biso   1.000  H
  H14      1.0000 0.11550  0.85640  0.13600  Biso   1.000  H
  H15      1.0000 0.14360  0.25910  0.13600  Biso   1.000  H
  H16      1.0000 0.25910  0.11550  0.63600  Biso   1.000  H
  H17      1.0000 0.88450  0.14360  0.63600  Biso   1.000  H
  H18      1.0000 0.85640  0.74090  0.63600  Biso   1.000  H
  H19      1.0000 0.83020  0.85440  0.12240  Biso   1.000  H
  H20      1.0000 0.14560  0.97580  0.12240  Biso   1.000  H
  H21      1.0000 0.02420  0.16980  0.12240  Biso   1.000  H
  H22      1.0000 0.16980  0.14560  0.62240  Biso   1.000  H
  H23      1.0000 0.85440  0.02420  0.62240  Biso   1.000  H
  H24      1.0000 0.97580  0.83020  0.62240  Biso   1.000  H
  N19      1.0000 0.39790  0.42180  0.30857  Biso   1.000  N
  N20      1.0000 0.57820  0.97610  0.30857  Biso   1.000  N
  N21      1.0000 0.02390  0.60210  0.30857  Biso   1.000  N
  N22      1.0000 0.60210  0.57820  0.80857  Biso   1.000  N
  N23      1.0000 0.42180  0.02390  0.80857  Biso   1.000  N
  N24      1.0000 0.97610  0.39790  0.80857  Biso   1.000  N
  N25      1.0000 0.21240  0.34740  0.30559  Biso   1.000  N
  N26      1.0000 0.65260  0.86500  0.30559  Biso   1.000  N
  N27      1.0000 0.13500  0.78760  0.30559  Biso   1.000  N
  N28      1.0000 0.78760  0.65260  0.80559  Biso   1.000  N
  N29      1.0000 0.34740  0.13500  0.80559  Biso   1.000  N
  N30      1.0000 0.86500  0.21240  0.80559  Biso   1.000  N
  N31      1.0000 0.66670  0.33330  0.00920  Biso   1.000  N
  N32      1.0000 0.33330  0.66670  0.50920  Biso   1.000  N
  N33      1.0000 0.66670  0.33330  0.38550  Biso   1.000  N
  N34      1.0000 0.33330  0.66670  0.88550  Biso   1.000  N
  N35      1.0000 0.33330  0.66670  0.38740  Biso   1.000  N
  N36      1.0000 0.66670  0.33330  0.88740  Biso   1.000  N
  C1       1.0000 0.76370  0.61010  0.27850  Biso   1.000  C
  C2       1.0000 0.38990  0.15360  0.27850  Biso   1.000  C
  C3       1.0000 0.84640  0.23630  0.27850  Biso   1.000  C
  C4       1.0000 0.23630  0.38990  0.77850  Biso   1.000  C
  C5       1.0000 0.61010  0.84640  0.77850  Biso   1.000  C
  C6       1.0000 0.15360  0.76370  0.77850  Biso   1.000  C
  H25      1.0000 0.83660  0.64200  0.25050  Biso   1.000  H
  H26      1.0000 0.35800  0.19460  0.25050  Biso   1.000  H
  H27      1.0000 0.80540  0.16340  0.25050  Biso   1.000  H
  H28      1.0000 0.16340  0.35800  0.75050  Biso   1.000  H
  H29      1.0000 0.64200  0.80540  0.75050  Biso   1.000  H
  H30      1.0000 0.19460  0.83660  0.75050  Biso   1.000  H
  H31      1.0000 0.72730  0.52670  0.27750  Biso   1.000  H
  H32      1.0000 0.47330  0.20060  0.27750  Biso   1.000  H
  H33      1.0000 0.79940  0.27270  0.27750  Biso   1.000  H
  H34      1.0000 0.27270  0.47330  0.77750  Biso   1.000  H
  H35      1.0000 0.52670  0.79940  0.77750  Biso   1.000  H
  H36      1.0000 0.20060  0.72730  0.77750  Biso   1.000  H
  C7       1.0000 0.78400  0.65190  0.36240  Biso   1.000  C
  C8       1.0000 0.34810  0.13210  0.36240  Biso   1.000  C
  C9       1.0000 0.86790  0.21600  0.36240  Biso   1.000  C
  C10      1.0000 0.21600  0.34810  0.86240  Biso   1.000  C
  C11      1.0000 0.65190  0.86790  0.86240  Biso   1.000  C
  C12      1.0000 0.13210  0.78400  0.86240  Biso   1.000  C
  H37      1.0000 0.71330  0.61060  0.39280  Biso   1.000  H
  H38      1.0000 0.38940  0.10270  0.39280  Biso   1.000  H
  H39      1.0000 0.89730  0.28670  0.39280  Biso   1.000  H
  H40      1.0000 0.28670  0.38940  0.89280  Biso   1.000  H
  H41      1.0000 0.61060  0.89730  0.89280  Biso   1.000  H
  H42      1.0000 0.10270  0.71330  0.89280  Biso   1.000  H
  H43      1.0000 0.84220  0.63910  0.38670  Biso   1.000  H
  H44      1.0000 0.36090  0.20310  0.38670  Biso   1.000  H
  H45      1.0000 0.79690  0.15780  0.38670  Biso   1.000  H
  H46      1.0000 0.15780  0.36090  0.88670  Biso   1.000  H
  H47      1.0000 0.63910  0.79690  0.88670  Biso   1.000  H
  H48      1.0000 0.20310  0.84220  0.88670  Biso   1.000  H
  C13      1.0000 0.68780  0.63010  0.15360  Biso   1.000  C
  C14      1.0000 0.36990  0.05770  0.15360  Biso   1.000  C
  C15      1.0000 0.94230  0.31220  0.15360  Biso   1.000  C
  C16      1.0000 0.31220  0.36990  0.65360  Biso   1.000  C
  C17      1.0000 0.63010  0.94230  0.65360  Biso   1.000  C
  C18      1.0000 0.05770  0.68780  0.65360  Biso   1.000  C
  H49      1.0000 0.75840  0.63300  0.13660  Biso   1.000  H
  H50      1.0000 0.36700  0.12540  0.13660  Biso   1.000  H
  H51      1.0000 0.87460  0.24160  0.13660  Biso   1.000  H
  H52      1.0000 0.24160  0.36700  0.63660  Biso   1.000  H
  H53      1.0000 0.63300  0.87460  0.63660  Biso   1.000  H
  H54      1.0000 0.12540  0.75840  0.63660  Biso   1.000  H
  H55      1.0000 0.62350  0.55520  0.13950  Biso   1.000  H
  H56      1.0000 0.44480  0.06830  0.13950  Biso   1.000  H
  H57      1.0000 0.93170  0.37650  0.13950  Biso   1.000  H
  H58      1.0000 0.37650  0.44480  0.63950  Biso   1.000  H
  H59      1.0000 0.55520  0.93170  0.63950  Biso   1.000  H
  H60      1.0000 0.06830  0.62350  0.63950  Biso   1.000  H
  C19      1.0000 0.67600  0.72110  0.11310  Biso   1.000  C
  C20      1.0000 0.27890  0.95490  0.11310  Biso   1.000  C
  C21      1.0000 0.04510  0.32400  0.11310  Biso   1.000  C
  C22      1.0000 0.32400  0.27890  0.61310  Biso   1.000  C
  C23      1.0000 0.72110  0.04510  0.61310  Biso   1.000  C
  C24      1.0000 0.95490  0.67600  0.61310  Biso   1.000  C
  H61      1.0000 0.68820  0.71910  0.05650  Biso   1.000  H
  H62      1.0000 0.28090  0.96910  0.05650  Biso   1.000  H
  H63      1.0000 0.03090  0.31180  0.05650  Biso   1.000  H
  H64      1.0000 0.31180  0.28090  0.55650  Biso   1.000  H
  H65      1.0000 0.71910  0.03090  0.55650  Biso   1.000  H
  H66      1.0000 0.96910  0.68820  0.55650  Biso   1.000  H
  H67      1.0000 0.59920  0.70950  0.12140  Biso   1.000  H
  H68      1.0000 0.29050  0.88970  0.12140  Biso   1.000  H
  H69      1.0000 0.11030  0.40080  0.12140  Biso   1.000  H
  H70      1.0000 0.40080  0.29050  0.62140  Biso   1.000  H
  H71      1.0000 0.70950  0.11030  0.62140  Biso   1.000  H
  H72      1.0000 0.88970  0.59920  0.62140  Biso   1.000  H
  C25      1.0000 0.57380  0.59410  0.27410  Biso   1.000  C
  C26      1.0000 0.40590  0.97970  0.27410  Biso   1.000  C
  C27      1.0000 0.02030  0.42620  0.27410  Biso   1.000  C
  C28      1.0000 0.42620  0.40590  0.77410  Biso   1.000  C
  C29      1.0000 0.59410  0.02030  0.77410  Biso   1.000  C
  C30      1.0000 0.97970  0.57380  0.77410  Biso   1.000  C
  H73      1.0000 0.52750  0.61450  0.24100  Biso   1.000  H
  H74      1.0000 0.38550  0.91300  0.24100  Biso   1.000  H
  H75      1.0000 0.08700  0.47250  0.24100  Biso   1.000  H
  H76      1.0000 0.47250  0.38550  0.74100  Biso   1.000  H
  H77      1.0000 0.61450  0.08700  0.74100  Biso   1.000  H
  H78      1.0000 0.91300  0.52750  0.74100  Biso   1.000  H
  H79      1.0000 0.57860  0.62690  0.32630  Biso   1.000  H
  H80      1.0000 0.37310  0.95170  0.32630  Biso   1.000  H
  H81      1.0000 0.04830  0.42140  0.32630  Biso   1.000  H
  H82      1.0000 0.42140  0.37310  0.82630  Biso   1.000  H
  H83      1.0000 0.62690  0.04830  0.82630  Biso   1.000  H
  H84      1.0000 0.95170  0.57860  0.82630  Biso   1.000  H
  C31      1.0000 0.51460  0.46700  0.28140  Biso   1.000  C
  C32      1.0000 0.53300  0.04760  0.28140  Biso   1.000  C
  C33      1.0000 0.95240  0.48540  0.28140  Biso   1.000  C
  C34      1.0000 0.48540  0.53300  0.78140  Biso   1.000  C
  C35      1.0000 0.46700  0.95240  0.78140  Biso   1.000  C
  C36      1.0000 0.04760  0.51460  0.78140  Biso   1.000  C
  H85      1.0000 0.51410  0.43350  0.23030  Biso   1.000  H
  H86      1.0000 0.56650  0.08060  0.23030  Biso   1.000  H
  H87      1.0000 0.91940  0.48590  0.23030  Biso   1.000  H
  H88      1.0000 0.48590  0.56650  0.73030  Biso   1.000  H
  H89      1.0000 0.43350  0.91940  0.73030  Biso   1.000  H
  H90      1.0000 0.08060  0.51410  0.73030  Biso   1.000  H
  H91      1.0000 0.55610  0.44580  0.31860  Biso   1.000  H
  H92      1.0000 0.55420  0.11030  0.31860  Biso   1.000  H
  H93      1.0000 0.88970  0.44390  0.31860  Biso   1.000  H
  H94      1.0000 0.44390  0.55420  0.81860  Biso   1.000  H
  H95      1.0000 0.44580  0.88970  0.81860  Biso   1.000  H
  H96      1.0000 0.11030  0.55610  0.81860  Biso   1.000  H
  C37      1.0000 0.30430  0.38280  0.26400  Biso   1.000  C
  C38      1.0000 0.61720  0.92150  0.26400  Biso   1.000  C
  C39      1.0000 0.07850  0.69570  0.26400  Biso   1.000  C
  C40      1.0000 0.69570  0.61720  0.76400  Biso   1.000  C
  C41      1.0000 0.38280  0.07850  0.76400  Biso   1.000  C
  C42      1.0000 0.92150  0.30430  0.76400  Biso   1.000  C
  H97      1.0000 0.30500  0.38120  0.20880  Biso   1.000  H
  H98      1.0000 0.61880  0.92380  0.20880  Biso   1.000  H
  H99      1.0000 0.07620  0.69500  0.20880  Biso   1.000  H
  H100     1.0000 0.69500  0.61880  0.70880  Biso   1.000  H
  H101     1.0000 0.38120  0.07620  0.70880  Biso   1.000  H
  H102     1.0000 0.92380  0.30500  0.70880  Biso   1.000  H
  C43      1.0000 0.24920  0.36580  0.38130  Biso   1.000  C
  C44      1.0000 0.63420  0.88340  0.38130  Biso   1.000  C
  C45      1.0000 0.11660  0.75080  0.38130  Biso   1.000  C
  C46      1.0000 0.75080  0.63420  0.88130  Biso   1.000  C
  C47      1.0000 0.36580  0.11660  0.88130  Biso   1.000  C
  C48      1.0000 0.88340  0.24920  0.88130  Biso   1.000  C
  H103     1.0000 0.20150  0.34740  0.42550  Biso   1.000  H
  H104     1.0000 0.65260  0.85410  0.42550  Biso   1.000  H
  H105     1.0000 0.14590  0.79850  0.42550  Biso   1.000  H
  H106     1.0000 0.79850  0.65260  0.92550  Biso   1.000  H
  H107     1.0000 0.34740  0.14590  0.92550  Biso   1.000  H
  H108     1.0000 0.85410  0.20150  0.92550  Biso   1.000  H
  C49      1.0000 0.36130  0.41320  0.38400  Biso   1.000  C
  C50      1.0000 0.58680  0.94810  0.38400  Biso   1.000  C
  C51      1.0000 0.05190  0.63870  0.38400  Biso   1.000  C
  C52      1.0000 0.63870  0.58680  0.88400  Biso   1.000  C
  C53      1.0000 0.41320  0.05190  0.88400  Biso   1.000  C
  C54      1.0000 0.94810  0.36130  0.88400  Biso   1.000  C
  H109     1.0000 0.40720  0.43660  0.42940  Biso   1.000  H
  H110     1.0000 0.56340  0.97060  0.42940  Biso   1.000  H
  H111     1.0000 0.02940  0.59280  0.42940  Biso   1.000  H
  H112     1.0000 0.59280  0.56340  0.92940  Biso   1.000  H
  H113     1.0000 0.43660  0.02940  0.92940  Biso   1.000  H
  H114     1.0000 0.97060  0.40720  0.92940  Biso   1.000  H
  C55      1.0000 0.00000  0.00000  0.26700  Biso   1.000  C
  C56      1.0000 0.00000  0.00000  0.76700  Biso   1.000  C
  C57      1.0000 0.66670  0.33330  0.07530  Biso   1.000  C
  C58      1.0000 0.33330  0.66670  0.57530  Biso   1.000  C
  C59      1.0000 0.66670  0.33330  0.17320  Biso   1.000  C
  C60      1.0000 0.33330  0.66670  0.67320  Biso   1.000  C
  H115     1.0000 0.69990  0.28880  0.19220  Biso   1.000  H
  H116     1.0000 0.71120  0.41110  0.19220  Biso   1.000  H
  H117     1.0000 0.58890  0.30010  0.19220  Biso   1.000  H
  H118     1.0000 0.30010  0.71120  0.69220  Biso   1.000  H
  H119     1.0000 0.28880  0.58890  0.69220  Biso   1.000  H
  H120     1.0000 0.41110  0.69990  0.69220  Biso   1.000  H
  C61      1.0000 0.66670  0.33330  0.44950  Biso   1.000  C
  C62      1.0000 0.33330  0.66670  0.94950  Biso   1.000  C
  C63      1.0000 0.66670  0.33330  0.53230  Biso   1.000  C
  C64      1.0000 0.33330  0.66670  0.03230  Biso   1.000  C
  H121     1.0000 0.67570  0.40500  0.55130  Biso   1.000  H
  H122     1.0000 0.59500  0.27070  0.55130  Biso   1.000  H
  H123     1.0000 0.72930  0.32430  0.55130  Biso   1.000  H
  H124     1.0000 0.32430  0.59500  0.05130  Biso   1.000  H
  H125     1.0000 0.40500  0.72930  0.05130  Biso   1.000  H
  H126     1.0000 0.27070  0.67570  0.05130  Biso   1.000  H
  C65      1.0000 0.33330  0.66670  0.32060  Biso   1.000  C
  C66      1.0000 0.66670  0.33330  0.82060  Biso   1.000  C
  C67      1.0000 0.33330  0.66670  0.23160  Biso   1.000  C
  C68      1.0000 0.66670  0.33330  0.73160  Biso   1.000  C
  H127     1.0000 0.39510  0.65620  0.21260  Biso   1.000  H
  H128     1.0000 0.34380  0.73890  0.21260  Biso   1.000  H
  H129     1.0000 0.26110  0.60490  0.21260  Biso   1.000  H
  H130     1.0000 0.60490  0.34380  0.71260  Biso   1.000  H
  H131     1.0000 0.65620  0.26110  0.71260  Biso   1.000  H
  H132     1.0000 0.73890  0.39510  0.71260  Biso   1.000  H
