data_image0
_cell_length_a       13.057
_cell_length_b       23.092
_cell_length_c       19.966
_cell_angle_alpha    90
_cell_angle_beta     106.095
_cell_angle_gamma    90

_symmetry_space_group_name_H-M    "P 1"
_symmetry_int_tables_number       1

loop_
  _symmetry_equiv_pos_as_xyz
  'x, y, z'

loop_
  _atom_site_label
  _atom_site_occupancy
  _atom_site_fract_x
  _atom_site_fract_y
  _atom_site_fract_z
  _atom_site_thermal_displace_type
  _atom_site_B_iso_or_equiv
  _atom_site_type_symbol
  Cu1      1.0000 0.25000  0.25000  0.50000  Biso   1.000  Cu
  Cu2      1.0000 0.75000  0.75000  0.50000  Biso   1.000  Cu
  Cu3      1.0000 0.25000  0.75000  0.00000  Biso   1.000  Cu
  Cu4      1.0000 0.75000  0.25000  0.00000  Biso   1.000  Cu
  Cu5      1.0000 0.50000  0.50000  0.00000  Biso   1.000  Cu
  Cu6      1.0000 0.00000  0.00000  0.00000  Biso   1.000  Cu
  Cu7      1.0000 0.50000  0.50000  0.50000  Biso   1.000  Cu
  Cu8      1.0000 0.00000  0.00000  0.50000  Biso   1.000  Cu
  N1       1.0000 0.17280  0.23970  0.57720  Biso   1.000  N
  N2       1.0000 0.67280  0.73970  0.57720  Biso   1.000  N
  N3       1.0000 0.17280  0.76030  0.07720  Biso   1.000  N
  N4       1.0000 0.67280  0.26030  0.07720  Biso   1.000  N
  N5       1.0000 0.82720  0.76030  0.42280  Biso   1.000  N
  N6       1.0000 0.32720  0.26030  0.42280  Biso   1.000  N
  N7       1.0000 0.82720  0.23970  0.92280  Biso   1.000  N
  N8       1.0000 0.32720  0.73970  0.92280  Biso   1.000  N
  C1       1.0000 0.14260  0.28700  0.60860  Biso   1.000  C
  C2       1.0000 0.64260  0.78700  0.60860  Biso   1.000  C
  C3       1.0000 0.14260  0.71300  0.10860  Biso   1.000  C
  C4       1.0000 0.64260  0.21300  0.10860  Biso   1.000  C
  C5       1.0000 0.85740  0.71300  0.39140  Biso   1.000  C
  C6       1.0000 0.35740  0.21300  0.39140  Biso   1.000  C
  C7       1.0000 0.85740  0.28700  0.89140  Biso   1.000  C
  C8       1.0000 0.35740  0.78700  0.89140  Biso   1.000  C
  H1       1.0000 0.16590  0.32370  0.60060  Biso   1.000  H
  H2       1.0000 0.66590  0.82370  0.60060  Biso   1.000  H
  H3       1.0000 0.16590  0.67630  0.10060  Biso   1.000  H
  H4       1.0000 0.66590  0.17630  0.10060  Biso   1.000  H
  H5       1.0000 0.83410  0.67630  0.39940  Biso   1.000  H
  H6       1.0000 0.33410  0.17630  0.39940  Biso   1.000  H
  H7       1.0000 0.83410  0.32370  0.89940  Biso   1.000  H
  H8       1.0000 0.33410  0.82370  0.89940  Biso   1.000  H
  C9       1.0000 0.07810  0.28010  0.65160  Biso   1.000  C
  C10      1.0000 0.57810  0.78010  0.65160  Biso   1.000  C
  C11      1.0000 0.07810  0.71990  0.15160  Biso   1.000  C
  C12      1.0000 0.57810  0.21990  0.15160  Biso   1.000  C
  C13      1.0000 0.92190  0.71990  0.34840  Biso   1.000  C
  C14      1.0000 0.42190  0.21990  0.34840  Biso   1.000  C
  C15      1.0000 0.92190  0.28010  0.84840  Biso   1.000  C
  C16      1.0000 0.42190  0.78010  0.84840  Biso   1.000  C
  H9       1.0000 0.05760  0.31220  0.67300  Biso   1.000  H
  H10      1.0000 0.55760  0.81220  0.67300  Biso   1.000  H
  H11      1.0000 0.05760  0.68780  0.17300  Biso   1.000  H
  H12      1.0000 0.55760  0.18780  0.17300  Biso   1.000  H
  H13      1.0000 0.94240  0.68780  0.32700  Biso   1.000  H
  H14      1.0000 0.44240  0.18780  0.32700  Biso   1.000  H
  H15      1.0000 0.94240  0.31220  0.82700  Biso   1.000  H
  H16      1.0000 0.44240  0.81220  0.82700  Biso   1.000  H
  C17      1.0000 0.04380  0.22590  0.66330  Biso   1.000  C
  C18      1.0000 0.54380  0.72590  0.66330  Biso   1.000  C
  C19      1.0000 0.04380  0.77410  0.16330  Biso   1.000  C
  C20      1.0000 0.54380  0.27410  0.16330  Biso   1.000  C
  C21      1.0000 0.95620  0.77410  0.33670  Biso   1.000  C
  C22      1.0000 0.45620  0.27410  0.33670  Biso   1.000  C
  C23      1.0000 0.95620  0.22590  0.83670  Biso   1.000  C
  C24      1.0000 0.45620  0.72590  0.83670  Biso   1.000  C
  C25      1.0000 0.07410  0.17870  0.63200  Biso   1.000  C
  C26      1.0000 0.57410  0.67870  0.63200  Biso   1.000  C
  C27      1.0000 0.07410  0.82130  0.13200  Biso   1.000  C
  C28      1.0000 0.57410  0.32130  0.13200  Biso   1.000  C
  C29      1.0000 0.92590  0.82130  0.36800  Biso   1.000  C
  C30      1.0000 0.42590  0.32130  0.36800  Biso   1.000  C
  C31      1.0000 0.92590  0.17870  0.86800  Biso   1.000  C
  C32      1.0000 0.42590  0.67870  0.86800  Biso   1.000  C
  H17      1.0000 0.05080  0.14190  0.63990  Biso   1.000  H
  H18      1.0000 0.55080  0.64190  0.63990  Biso   1.000  H
  H19      1.0000 0.05080  0.85810  0.13990  Biso   1.000  H
  H20      1.0000 0.55080  0.35810  0.13990  Biso   1.000  H
  H21      1.0000 0.94920  0.85810  0.36010  Biso   1.000  H
  H22      1.0000 0.44920  0.35810  0.36010  Biso   1.000  H
  H23      1.0000 0.94920  0.14190  0.86010  Biso   1.000  H
  H24      1.0000 0.44920  0.64190  0.86010  Biso   1.000  H
  C33      1.0000 0.13860  0.18560  0.58890  Biso   1.000  C
  C34      1.0000 0.63860  0.68560  0.58890  Biso   1.000  C
  C35      1.0000 0.13860  0.81440  0.08890  Biso   1.000  C
  C36      1.0000 0.63860  0.31440  0.08890  Biso   1.000  C
  C37      1.0000 0.86140  0.81440  0.41110  Biso   1.000  C
  C38      1.0000 0.36140  0.31440  0.41110  Biso   1.000  C
  C39      1.0000 0.86140  0.18560  0.91110  Biso   1.000  C
  C40      1.0000 0.36140  0.68560  0.91110  Biso   1.000  C
  H25      1.0000 0.15910  0.15350  0.56760  Biso   1.000  H
  H26      1.0000 0.65910  0.65350  0.56760  Biso   1.000  H
  H27      1.0000 0.15910  0.84650  0.06760  Biso   1.000  H
  H28      1.0000 0.65910  0.34650  0.06760  Biso   1.000  H
  H29      1.0000 0.84090  0.84650  0.43240  Biso   1.000  H
  H30      1.0000 0.34090  0.34650  0.43240  Biso   1.000  H
  H31      1.0000 0.84090  0.15350  0.93240  Biso   1.000  H
  H32      1.0000 0.34090  0.65350  0.93240  Biso   1.000  H
  C41      1.0000 0.97280  0.22020  0.71130  Biso   1.000  C
  C42      1.0000 0.47280  0.72020  0.71130  Biso   1.000  C
  C43      1.0000 0.97280  0.77980  0.21130  Biso   1.000  C
  C44      1.0000 0.47280  0.27980  0.21130  Biso   1.000  C
  C45      1.0000 0.02720  0.77980  0.28870  Biso   1.000  C
  C46      1.0000 0.52720  0.27980  0.28870  Biso   1.000  C
  C47      1.0000 0.02720  0.22020  0.78870  Biso   1.000  C
  C48      1.0000 0.52720  0.72020  0.78870  Biso   1.000  C
  H33      1.0000 0.92190  0.25180  0.70130  Biso   1.000  H
  H34      1.0000 0.42190  0.75180  0.70130  Biso   1.000  H
  H35      1.0000 0.92190  0.74820  0.20130  Biso   1.000  H
  H36      1.0000 0.42190  0.24820  0.20130  Biso   1.000  H
  H37      1.0000 0.07810  0.74820  0.29870  Biso   1.000  H
  H38      1.0000 0.57810  0.24820  0.29870  Biso   1.000  H
  H39      1.0000 0.07810  0.25180  0.79870  Biso   1.000  H
  H40      1.0000 0.57810  0.75180  0.79870  Biso   1.000  H
  H41      1.0000 0.93280  0.18440  0.69990  Biso   1.000  H
  H42      1.0000 0.43280  0.68440  0.69990  Biso   1.000  H
  H43      1.0000 0.93280  0.81560  0.19990  Biso   1.000  H
  H44      1.0000 0.43280  0.31560  0.19990  Biso   1.000  H
  H45      1.0000 0.06720  0.81560  0.30010  Biso   1.000  H
  H46      1.0000 0.56720  0.31560  0.30010  Biso   1.000  H
  H47      1.0000 0.06720  0.18440  0.80010  Biso   1.000  H
  H48      1.0000 0.56720  0.68440  0.80010  Biso   1.000  H
  N9       1.0000 0.17670  0.23910  0.57610  Biso   1.000  N
  N10      1.0000 0.67670  0.73910  0.57610  Biso   1.000  N
  N11      1.0000 0.17670  0.76090  0.07610  Biso   1.000  N
  N12      1.0000 0.67670  0.26090  0.07610  Biso   1.000  N
  N13      1.0000 0.82330  0.76090  0.42390  Biso   1.000  N
  N14      1.0000 0.32330  0.26090  0.42390  Biso   1.000  N
  N15      1.0000 0.82330  0.23910  0.92390  Biso   1.000  N
  N16      1.0000 0.32330  0.73910  0.92390  Biso   1.000  N
  C49      1.0000 0.20540  0.27420  0.63440  Biso   1.000  C
  C50      1.0000 0.70540  0.77420  0.63440  Biso   1.000  C
  C51      1.0000 0.20540  0.72580  0.13440  Biso   1.000  C
  C52      1.0000 0.70540  0.22580  0.13440  Biso   1.000  C
  C53      1.0000 0.79460  0.72580  0.36560  Biso   1.000  C
  C54      1.0000 0.29460  0.22580  0.36560  Biso   1.000  C
  C55      1.0000 0.79460  0.27420  0.86560  Biso   1.000  C
  C56      1.0000 0.29460  0.77420  0.86560  Biso   1.000  C
  H49      1.0000 0.25460  0.30380  0.63690  Biso   1.000  H
  H50      1.0000 0.75460  0.80380  0.63690  Biso   1.000  H
  H51      1.0000 0.25460  0.69620  0.13690  Biso   1.000  H
  H52      1.0000 0.75460  0.19620  0.13690  Biso   1.000  H
  H53      1.0000 0.74540  0.69620  0.36310  Biso   1.000  H
  H54      1.0000 0.24540  0.19620  0.36310  Biso   1.000  H
  H55      1.0000 0.74540  0.30380  0.86310  Biso   1.000  H
  H56      1.0000 0.24540  0.80380  0.86310  Biso   1.000  H
  C57      1.0000 0.16110  0.26520  0.68880  Biso   1.000  C
  C58      1.0000 0.66110  0.76520  0.68880  Biso   1.000  C
  C59      1.0000 0.16110  0.73480  0.18880  Biso   1.000  C
  C60      1.0000 0.66110  0.23480  0.18880  Biso   1.000  C
  C61      1.0000 0.83890  0.73480  0.31120  Biso   1.000  C
  C62      1.0000 0.33890  0.23480  0.31120  Biso   1.000  C
  C63      1.0000 0.83890  0.26520  0.81120  Biso   1.000  C
  C64      1.0000 0.33890  0.76520  0.81120  Biso   1.000  C
  H57      1.0000 0.18040  0.28880  0.72800  Biso   1.000  H
  H58      1.0000 0.68040  0.78880  0.72800  Biso   1.000  H
  H59      1.0000 0.18040  0.71120  0.22800  Biso   1.000  H
  H60      1.0000 0.68040  0.21120  0.22800  Biso   1.000  H
  H61      1.0000 0.81960  0.71120  0.27200  Biso   1.000  H
  H62      1.0000 0.31960  0.21120  0.27200  Biso   1.000  H
  H63      1.0000 0.81960  0.28880  0.77200  Biso   1.000  H
  H64      1.0000 0.31960  0.78880  0.77200  Biso   1.000  H
  C65      1.0000 0.08800  0.22120  0.68500  Biso   1.000  C
  C66      1.0000 0.58800  0.72120  0.68500  Biso   1.000  C
  C67      1.0000 0.08800  0.77880  0.18500  Biso   1.000  C
  C68      1.0000 0.58800  0.27880  0.18500  Biso   1.000  C
  C69      1.0000 0.91200  0.77880  0.31500  Biso   1.000  C
  C70      1.0000 0.41200  0.27880  0.31500  Biso   1.000  C
  C71      1.0000 0.91200  0.22120  0.81500  Biso   1.000  C
  C72      1.0000 0.41200  0.72120  0.81500  Biso   1.000  C
  C73      1.0000 0.05930  0.18610  0.62670  Biso   1.000  C
  C74      1.0000 0.55930  0.68610  0.62670  Biso   1.000  C
  C75      1.0000 0.05930  0.81390  0.12670  Biso   1.000  C
  C76      1.0000 0.55930  0.31390  0.12670  Biso   1.000  C
  C77      1.0000 0.94070  0.81390  0.37330  Biso   1.000  C
  C78      1.0000 0.44070  0.31390  0.37330  Biso   1.000  C
  C79      1.0000 0.94070  0.18610  0.87330  Biso   1.000  C
  C80      1.0000 0.44070  0.68610  0.87330  Biso   1.000  C
  H65      1.0000 0.01010  0.15650  0.62410  Biso   1.000  H
  H66      1.0000 0.51010  0.65650  0.62410  Biso   1.000  H
  H67      1.0000 0.01010  0.84350  0.12410  Biso   1.000  H
  H68      1.0000 0.51010  0.34350  0.12410  Biso   1.000  H
  H69      1.0000 0.98990  0.84350  0.37590  Biso   1.000  H
  H70      1.0000 0.48990  0.34350  0.37590  Biso   1.000  H
  H71      1.0000 0.98990  0.15650  0.87590  Biso   1.000  H
  H72      1.0000 0.48990  0.65650  0.87590  Biso   1.000  H
  C81      1.0000 0.10370  0.19510  0.57230  Biso   1.000  C
  C82      1.0000 0.60370  0.69510  0.57230  Biso   1.000  C
  C83      1.0000 0.10370  0.80490  0.07230  Biso   1.000  C
  C84      1.0000 0.60370  0.30490  0.07230  Biso   1.000  C
  C85      1.0000 0.89630  0.80490  0.42770  Biso   1.000  C
  C86      1.0000 0.39630  0.30490  0.42770  Biso   1.000  C
  C87      1.0000 0.89630  0.19510  0.92770  Biso   1.000  C
  C88      1.0000 0.39630  0.69510  0.92770  Biso   1.000  C
  H73      1.0000 0.08430  0.17150  0.53300  Biso   1.000  H
  H74      1.0000 0.58430  0.67150  0.53300  Biso   1.000  H
  H75      1.0000 0.08430  0.82850  0.03300  Biso   1.000  H
  H76      1.0000 0.58430  0.32850  0.03300  Biso   1.000  H
  H77      1.0000 0.91570  0.82850  0.46700  Biso   1.000  H
  H78      1.0000 0.41570  0.32850  0.46700  Biso   1.000  H
  H79      1.0000 0.91570  0.17150  0.96700  Biso   1.000  H
  H80      1.0000 0.41570  0.67150  0.96700  Biso   1.000  H
  C89      1.0000 0.05880  0.21570  0.75290  Biso   1.000  C
  C90      1.0000 0.55880  0.71570  0.75290  Biso   1.000  C
  C91      1.0000 0.05880  0.78430  0.25290  Biso   1.000  C
  C92      1.0000 0.55880  0.28430  0.25290  Biso   1.000  C
  C93      1.0000 0.94120  0.78430  0.24710  Biso   1.000  C
  C94      1.0000 0.44120  0.28430  0.24710  Biso   1.000  C
  C95      1.0000 0.94120  0.21570  0.74710  Biso   1.000  C
  C96      1.0000 0.44120  0.71570  0.74710  Biso   1.000  C
  H81      1.0000 0.08930  0.18000  0.77550  Biso   1.000  H
  H82      1.0000 0.58930  0.68000  0.77550  Biso   1.000  H
  H83      1.0000 0.08930  0.82000  0.27550  Biso   1.000  H
  H84      1.0000 0.58930  0.32000  0.27550  Biso   1.000  H
  H85      1.0000 0.91070  0.82000  0.22450  Biso   1.000  H
  H86      1.0000 0.41070  0.32000  0.22450  Biso   1.000  H
  H87      1.0000 0.91070  0.18000  0.72450  Biso   1.000  H
  H88      1.0000 0.41070  0.68000  0.72450  Biso   1.000  H
  H89      1.0000 0.09170  0.24750  0.78300  Biso   1.000  H
  H90      1.0000 0.59170  0.74750  0.78300  Biso   1.000  H
  H91      1.0000 0.09170  0.75250  0.28300  Biso   1.000  H
  H92      1.0000 0.59170  0.25250  0.28300  Biso   1.000  H
  H93      1.0000 0.90830  0.75250  0.21700  Biso   1.000  H
  H94      1.0000 0.40830  0.25250  0.21700  Biso   1.000  H
  H95      1.0000 0.90830  0.24750  0.71700  Biso   1.000  H
  H96      1.0000 0.40830  0.74750  0.71700  Biso   1.000  H
  N17      1.0000 0.58840  0.57133  0.99800  Biso   1.000  N
  N18      1.0000 0.08840  0.07133  0.99800  Biso   1.000  N
  N19      1.0000 0.58840  0.42867  0.49800  Biso   1.000  N
  N20      1.0000 0.08840  0.92867  0.49800  Biso   1.000  N
  N21      1.0000 0.41160  0.42867  0.00200  Biso   1.000  N
  N22      1.0000 0.91160  0.92867  0.00200  Biso   1.000  N
  N23      1.0000 0.41160  0.57133  0.50200  Biso   1.000  N
  N24      1.0000 0.91160  0.07133  0.50200  Biso   1.000  N
  C97      1.0000 0.58740  0.61390  0.04300  Biso   1.000  C
  C98      1.0000 0.08740  0.11390  0.04300  Biso   1.000  C
  C99      1.0000 0.58740  0.38610  0.54300  Biso   1.000  C
  C100     1.0000 0.08740  0.88610  0.54300  Biso   1.000  C
  C101     1.0000 0.41260  0.38610  0.95700  Biso   1.000  C
  C102     1.0000 0.91260  0.88610  0.95700  Biso   1.000  C
  C103     1.0000 0.41260  0.61390  0.45700  Biso   1.000  C
  C104     1.0000 0.91260  0.11390  0.45700  Biso   1.000  C
  H97      1.0000 0.54520  0.60940  0.07330  Biso   1.000  H
  H98      1.0000 0.04520  0.10940  0.07330  Biso   1.000  H
  H99      1.0000 0.54520  0.39060  0.57330  Biso   1.000  H
  H100     1.0000 0.04520  0.89060  0.57330  Biso   1.000  H
  H101     1.0000 0.45480  0.39060  0.92670  Biso   1.000  H
  H102     1.0000 0.95480  0.89060  0.92670  Biso   1.000  H
  H103     1.0000 0.45480  0.60940  0.42670  Biso   1.000  H
  H104     1.0000 0.95480  0.10940  0.42670  Biso   1.000  H
  C105     1.0000 0.64580  0.66410  0.04670  Biso   1.000  C
  C106     1.0000 0.14580  0.16410  0.04670  Biso   1.000  C
  C107     1.0000 0.64580  0.33590  0.54670  Biso   1.000  C
  C108     1.0000 0.14580  0.83590  0.54670  Biso   1.000  C
  C109     1.0000 0.35420  0.33590  0.95330  Biso   1.000  C
  C110     1.0000 0.85420  0.83590  0.95330  Biso   1.000  C
  C111     1.0000 0.35420  0.66410  0.45330  Biso   1.000  C
  C112     1.0000 0.85420  0.16410  0.45330  Biso   1.000  C
  H105     1.0000 0.63950  0.69360  0.07700  Biso   1.000  H
  H106     1.0000 0.13950  0.19360  0.07700  Biso   1.000  H
  H107     1.0000 0.63950  0.30640  0.57700  Biso   1.000  H
  H108     1.0000 0.13950  0.80640  0.57700  Biso   1.000  H
  H109     1.0000 0.36050  0.30640  0.92300  Biso   1.000  H
  H110     1.0000 0.86050  0.80640  0.92300  Biso   1.000  H
  H111     1.0000 0.36050  0.69360  0.42300  Biso   1.000  H
  H112     1.0000 0.86050  0.19360  0.42300  Biso   1.000  H
  C113     1.0000 0.71360  0.67010  0.00500  Biso   1.000  C
  C114     1.0000 0.21360  0.17010  0.00500  Biso   1.000  C
  C115     1.0000 0.71360  0.32990  0.50500  Biso   1.000  C
  C116     1.0000 0.21360  0.82990  0.50500  Biso   1.000  C
  C117     1.0000 0.28640  0.32990  0.99500  Biso   1.000  C
  C118     1.0000 0.78640  0.82990  0.99500  Biso   1.000  C
  C119     1.0000 0.28640  0.67010  0.49500  Biso   1.000  C
  C120     1.0000 0.78640  0.17010  0.49500  Biso   1.000  C
  C121     1.0000 0.71720  0.62540  0.96080  Biso   1.000  C
  C122     1.0000 0.21720  0.12540  0.96080  Biso   1.000  C
  C123     1.0000 0.71720  0.37460  0.46080  Biso   1.000  C
  C124     1.0000 0.21720  0.87460  0.46080  Biso   1.000  C
  C125     1.0000 0.28280  0.37460  0.03920  Biso   1.000  C
  C126     1.0000 0.78280  0.87460  0.03920  Biso   1.000  C
  C127     1.0000 0.28280  0.62540  0.53920  Biso   1.000  C
  C128     1.0000 0.78280  0.12540  0.53920  Biso   1.000  C
  H113     1.0000 0.76220  0.62790  0.93200  Biso   1.000  H
  H114     1.0000 0.26220  0.12790  0.93200  Biso   1.000  H
  H115     1.0000 0.76220  0.37210  0.43200  Biso   1.000  H
  H116     1.0000 0.26220  0.87210  0.43200  Biso   1.000  H
  H117     1.0000 0.23780  0.37210  0.06800  Biso   1.000  H
  H118     1.0000 0.73780  0.87210  0.06800  Biso   1.000  H
  H119     1.0000 0.23780  0.62790  0.56800  Biso   1.000  H
  H120     1.0000 0.73780  0.12790  0.56800  Biso   1.000  H
  C129     1.0000 0.65520  0.57670  0.95810  Biso   1.000  C
  C130     1.0000 0.15520  0.07670  0.95810  Biso   1.000  C
  C131     1.0000 0.65520  0.42330  0.45810  Biso   1.000  C
  C132     1.0000 0.15520  0.92330  0.45810  Biso   1.000  C
  C133     1.0000 0.34480  0.42330  0.04190  Biso   1.000  C
  C134     1.0000 0.84480  0.92330  0.04190  Biso   1.000  C
  C135     1.0000 0.34480  0.57670  0.54190  Biso   1.000  C
  C136     1.0000 0.84480  0.07670  0.54190  Biso   1.000  C
  H121     1.0000 0.65990  0.54680  0.92790  Biso   1.000  H
  H122     1.0000 0.15990  0.04680  0.92790  Biso   1.000  H
  H123     1.0000 0.65990  0.45320  0.42790  Biso   1.000  H
  H124     1.0000 0.15990  0.95320  0.42790  Biso   1.000  H
  H125     1.0000 0.34010  0.45320  0.07210  Biso   1.000  H
  H126     1.0000 0.84010  0.95320  0.07210  Biso   1.000  H
  H127     1.0000 0.34010  0.54680  0.57210  Biso   1.000  H
  H128     1.0000 0.84010  0.04680  0.57210  Biso   1.000  H
  C137     1.0000 0.78320  0.72321  0.00930  Biso   1.000  C
  C138     1.0000 0.28320  0.22321  0.00930  Biso   1.000  C
  C139     1.0000 0.78320  0.27679  0.50930  Biso   1.000  C
  C140     1.0000 0.28320  0.77679  0.50930  Biso   1.000  C
  C141     1.0000 0.21680  0.27679  0.99070  Biso   1.000  C
  C142     1.0000 0.71680  0.77679  0.99070  Biso   1.000  C
  C143     1.0000 0.21680  0.72321  0.49070  Biso   1.000  C
  C144     1.0000 0.71680  0.22321  0.49070  Biso   1.000  C
  H129     1.0000 0.82720  0.71880  0.97760  Biso   1.000  H
  H130     1.0000 0.32720  0.21880  0.97760  Biso   1.000  H
  H131     1.0000 0.82720  0.28120  0.47760  Biso   1.000  H
  H132     1.0000 0.32720  0.78120  0.47760  Biso   1.000  H
  H133     1.0000 0.17280  0.28120  0.02240  Biso   1.000  H
  H134     1.0000 0.67280  0.78120  0.02240  Biso   1.000  H
  H135     1.0000 0.17280  0.71880  0.52240  Biso   1.000  H
  H136     1.0000 0.67280  0.21880  0.52240  Biso   1.000  H
  H137     1.0000 0.83000  0.72690  0.05620  Biso   1.000  H
  H138     1.0000 0.33000  0.22690  0.05620  Biso   1.000  H
  H139     1.0000 0.83000  0.27310  0.55620  Biso   1.000  H
  H140     1.0000 0.33000  0.77310  0.55620  Biso   1.000  H
  H141     1.0000 0.17000  0.27310  0.94380  Biso   1.000  H
  H142     1.0000 0.67000  0.77310  0.94380  Biso   1.000  H
  H143     1.0000 0.17000  0.72690  0.44380  Biso   1.000  H
  H144     1.0000 0.67000  0.22690  0.44380  Biso   1.000  H
  N25      1.0000 0.11490  0.28635  0.43654  Biso   1.000  N
  N26      1.0000 0.61490  0.78635  0.43654  Biso   1.000  N
  N27      1.0000 0.11490  0.71365  0.93654  Biso   1.000  N
  N28      1.0000 0.61490  0.21365  0.93654  Biso   1.000  N
  N29      1.0000 0.88510  0.71365  0.56346  Biso   1.000  N
  N30      1.0000 0.38510  0.21365  0.56346  Biso   1.000  N
  N31      1.0000 0.88510  0.28635  0.06346  Biso   1.000  N
  N32      1.0000 0.38510  0.78635  0.06346  Biso   1.000  N
  C145     1.0000 0.05410  0.25730  0.38300  Biso   1.000  C
  C146     1.0000 0.55410  0.75730  0.38300  Biso   1.000  C
  C147     1.0000 0.05410  0.74270  0.88300  Biso   1.000  C
  C148     1.0000 0.55410  0.24270  0.88300  Biso   1.000  C
  C149     1.0000 0.94590  0.74270  0.61700  Biso   1.000  C
  C150     1.0000 0.44590  0.24270  0.61700  Biso   1.000  C
  C151     1.0000 0.94590  0.25730  0.11700  Biso   1.000  C
  C152     1.0000 0.44590  0.75730  0.11700  Biso   1.000  C
  H145     1.0000 0.07260  0.21920  0.37650  Biso   1.000  H
  H146     1.0000 0.57260  0.71920  0.37650  Biso   1.000  H
  H147     1.0000 0.07260  0.78080  0.87650  Biso   1.000  H
  H148     1.0000 0.57260  0.28080  0.87650  Biso   1.000  H
  H149     1.0000 0.92740  0.78080  0.62350  Biso   1.000  H
  H150     1.0000 0.42740  0.28080  0.62350  Biso   1.000  H
  H151     1.0000 0.92740  0.21920  0.12350  Biso   1.000  H
  H152     1.0000 0.42740  0.71920  0.12350  Biso   1.000  H
  C153     1.0000 0.96510  0.28030  0.33640  Biso   1.000  C
  C154     1.0000 0.46510  0.78030  0.33640  Biso   1.000  C
  C155     1.0000 0.96510  0.71970  0.83640  Biso   1.000  C
  C156     1.0000 0.46510  0.21970  0.83640  Biso   1.000  C
  C157     1.0000 0.03490  0.71970  0.66360  Biso   1.000  C
  C158     1.0000 0.53490  0.21970  0.66360  Biso   1.000  C
  C159     1.0000 0.03490  0.28030  0.16360  Biso   1.000  C
  C160     1.0000 0.53490  0.78030  0.16360  Biso   1.000  C
  H153     1.0000 0.92520  0.25780  0.29970  Biso   1.000  H
  H154     1.0000 0.42520  0.75780  0.29970  Biso   1.000  H
  H155     1.0000 0.92520  0.74220  0.79970  Biso   1.000  H
  H156     1.0000 0.42520  0.24220  0.79970  Biso   1.000  H
  H157     1.0000 0.07480  0.74220  0.70030  Biso   1.000  H
  H158     1.0000 0.57480  0.24220  0.70030  Biso   1.000  H
  H159     1.0000 0.07480  0.25780  0.20030  Biso   1.000  H
  H160     1.0000 0.57480  0.75780  0.20030  Biso   1.000  H
  C161     1.0000 0.93490  0.33700  0.34400  Biso   1.000  C
  C162     1.0000 0.43490  0.83700  0.34400  Biso   1.000  C
  C163     1.0000 0.93490  0.66300  0.84400  Biso   1.000  C
  C164     1.0000 0.43490  0.16300  0.84400  Biso   1.000  C
  C165     1.0000 0.06510  0.66300  0.65600  Biso   1.000  C
  C166     1.0000 0.56510  0.16300  0.65600  Biso   1.000  C
  C167     1.0000 0.06510  0.33700  0.15600  Biso   1.000  C
  C168     1.0000 0.56510  0.83700  0.15600  Biso   1.000  C
  C169     1.0000 0.99580  0.36640  0.40140  Biso   1.000  C
  C170     1.0000 0.49580  0.86640  0.40140  Biso   1.000  C
  C171     1.0000 0.99580  0.63360  0.90140  Biso   1.000  C
  C172     1.0000 0.49580  0.13360  0.90140  Biso   1.000  C
  C173     1.0000 0.00420  0.63360  0.59860  Biso   1.000  C
  C174     1.0000 0.50420  0.13360  0.59860  Biso   1.000  C
  C175     1.0000 0.00420  0.36640  0.09860  Biso   1.000  C
  C176     1.0000 0.50420  0.86640  0.09860  Biso   1.000  C
  H161     1.0000 0.97750  0.40410  0.41010  Biso   1.000  H
  H162     1.0000 0.47750  0.90410  0.41010  Biso   1.000  H
  H163     1.0000 0.97750  0.59590  0.91010  Biso   1.000  H
  H164     1.0000 0.47750  0.09590  0.91010  Biso   1.000  H
  H165     1.0000 0.02250  0.59590  0.58990  Biso   1.000  H
  H166     1.0000 0.52250  0.09590  0.58990  Biso   1.000  H
  H167     1.0000 0.02250  0.40410  0.08990  Biso   1.000  H
  H168     1.0000 0.52250  0.90410  0.08990  Biso   1.000  H
  C177     1.0000 0.08450  0.34020  0.44620  Biso   1.000  C
  C178     1.0000 0.58450  0.84020  0.44620  Biso   1.000  C
  C179     1.0000 0.08450  0.65980  0.94620  Biso   1.000  C
  C180     1.0000 0.58450  0.15980  0.94620  Biso   1.000  C
  C181     1.0000 0.91550  0.65980  0.55380  Biso   1.000  C
  C182     1.0000 0.41550  0.15980  0.55380  Biso   1.000  C
  C183     1.0000 0.91550  0.34020  0.05380  Biso   1.000  C
  C184     1.0000 0.41550  0.84020  0.05380  Biso   1.000  C
  H169     1.0000 0.12420  0.36100  0.48450  Biso   1.000  H
  H170     1.0000 0.62420  0.86100  0.48450  Biso   1.000  H
  H171     1.0000 0.12420  0.63900  0.98450  Biso   1.000  H
  H172     1.0000 0.62420  0.13900  0.98450  Biso   1.000  H
  H173     1.0000 0.87580  0.63900  0.51550  Biso   1.000  H
  H174     1.0000 0.37580  0.13900  0.51550  Biso   1.000  H
  H175     1.0000 0.87580  0.36100  0.01550  Biso   1.000  H
  H176     1.0000 0.37580  0.86100  0.01550  Biso   1.000  H
  C185     1.0000 0.83980  0.36290  0.29060  Biso   1.000  C
  C186     1.0000 0.33980  0.86290  0.29060  Biso   1.000  C
  C187     1.0000 0.83980  0.63710  0.79060  Biso   1.000  C
  C188     1.0000 0.33980  0.13710  0.79060  Biso   1.000  C
  C189     1.0000 0.16020  0.63710  0.70940  Biso   1.000  C
  C190     1.0000 0.66020  0.13710  0.70940  Biso   1.000  C
  C191     1.0000 0.16020  0.36290  0.20940  Biso   1.000  C
  C192     1.0000 0.66020  0.86290  0.20940  Biso   1.000  C
  H177     1.0000 0.84250  0.35040  0.24480  Biso   1.000  H
  H178     1.0000 0.34250  0.85040  0.24480  Biso   1.000  H
  H179     1.0000 0.84250  0.64960  0.74480  Biso   1.000  H
  H180     1.0000 0.34250  0.14960  0.74480  Biso   1.000  H
  H181     1.0000 0.15750  0.64960  0.75520  Biso   1.000  H
  H182     1.0000 0.65750  0.14960  0.75520  Biso   1.000  H
  H183     1.0000 0.15750  0.35040  0.25520  Biso   1.000  H
  H184     1.0000 0.65750  0.85040  0.25520  Biso   1.000  H
  H185     1.0000 0.77560  0.34660  0.29850  Biso   1.000  H
  H186     1.0000 0.27560  0.84660  0.29850  Biso   1.000  H
  H187     1.0000 0.77560  0.65340  0.79850  Biso   1.000  H
  H188     1.0000 0.27560  0.15340  0.79850  Biso   1.000  H
  H189     1.0000 0.22440  0.65340  0.70150  Biso   1.000  H
  H190     1.0000 0.72440  0.15340  0.70150  Biso   1.000  H
  H191     1.0000 0.22440  0.34660  0.20150  Biso   1.000  H
  H192     1.0000 0.72440  0.84660  0.20150  Biso   1.000  H
  N33      1.0000 0.60260  0.48012  0.09689  Biso   1.000  N
  N34      1.0000 0.10260  0.98012  0.09689  Biso   1.000  N
  N35      1.0000 0.60260  0.51988  0.59689  Biso   1.000  N
  N36      1.0000 0.10260  0.01988  0.59689  Biso   1.000  N
  N37      1.0000 0.39740  0.51988  0.90311  Biso   1.000  N
  N38      1.0000 0.89740  0.01988  0.90311  Biso   1.000  N
  N39      1.0000 0.39740  0.48012  0.40311  Biso   1.000  N
  N40      1.0000 0.89740  0.98012  0.40311  Biso   1.000  N
  C193     1.0000 0.69970  0.45980  0.09890  Biso   1.000  C
  C194     1.0000 0.19970  0.95980  0.09890  Biso   1.000  C
  C195     1.0000 0.69970  0.54020  0.59890  Biso   1.000  C
  C196     1.0000 0.19970  0.04020  0.59890  Biso   1.000  C
  C197     1.0000 0.30030  0.54020  0.90110  Biso   1.000  C
  C198     1.0000 0.80030  0.04020  0.90110  Biso   1.000  C
  C199     1.0000 0.30030  0.45980  0.40110  Biso   1.000  C
  C200     1.0000 0.80030  0.95980  0.40110  Biso   1.000  C
  H193     1.0000 0.71760  0.45560  0.05720  Biso   1.000  H
  H194     1.0000 0.21760  0.95560  0.05720  Biso   1.000  H
  H195     1.0000 0.71760  0.54440  0.55720  Biso   1.000  H
  H196     1.0000 0.21760  0.04440  0.55720  Biso   1.000  H
  H197     1.0000 0.28240  0.54440  0.94280  Biso   1.000  H
  H198     1.0000 0.78240  0.04440  0.94280  Biso   1.000  H
  H199     1.0000 0.28240  0.45560  0.44280  Biso   1.000  H
  H200     1.0000 0.78240  0.95560  0.44280  Biso   1.000  H
  C201     1.0000 0.77360  0.44490  0.15970  Biso   1.000  C
  C202     1.0000 0.27360  0.94490  0.15970  Biso   1.000  C
  C203     1.0000 0.77360  0.55510  0.65970  Biso   1.000  C
  C204     1.0000 0.27360  0.05510  0.65970  Biso   1.000  C
  C205     1.0000 0.22640  0.55510  0.84030  Biso   1.000  C
  C206     1.0000 0.72640  0.05510  0.84030  Biso   1.000  C
  C207     1.0000 0.22640  0.44490  0.34030  Biso   1.000  C
  C208     1.0000 0.72640  0.94490  0.34030  Biso   1.000  C
  H201     1.0000 0.84100  0.43270  0.15850  Biso   1.000  H
  H202     1.0000 0.34100  0.93270  0.15850  Biso   1.000  H
  H203     1.0000 0.84100  0.56730  0.65850  Biso   1.000  H
  H204     1.0000 0.34100  0.06730  0.65850  Biso   1.000  H
  H205     1.0000 0.15900  0.56730  0.84150  Biso   1.000  H
  H206     1.0000 0.65900  0.06730  0.84150  Biso   1.000  H
  H207     1.0000 0.15900  0.43270  0.34150  Biso   1.000  H
  H208     1.0000 0.65900  0.93270  0.34150  Biso   1.000  H
  C209     1.0000 0.74950  0.44770  0.22330  Biso   1.000  C
  C210     1.0000 0.24950  0.94770  0.22330  Biso   1.000  C
  C211     1.0000 0.74950  0.55230  0.72330  Biso   1.000  C
  C212     1.0000 0.24950  0.05230  0.72330  Biso   1.000  C
  C213     1.0000 0.25050  0.55230  0.77670  Biso   1.000  C
  C214     1.0000 0.75050  0.05230  0.77670  Biso   1.000  C
  C215     1.0000 0.25050  0.44770  0.27670  Biso   1.000  C
  C216     1.0000 0.75050  0.94770  0.27670  Biso   1.000  C
  C217     1.0000 0.65350  0.47220  0.22140  Biso   1.000  C
  C218     1.0000 0.15350  0.97220  0.22140  Biso   1.000  C
  C219     1.0000 0.65350  0.52780  0.72140  Biso   1.000  C
  C220     1.0000 0.15350  0.02780  0.72140  Biso   1.000  C
  C221     1.0000 0.34650  0.52780  0.77860  Biso   1.000  C
  C222     1.0000 0.84650  0.02780  0.77860  Biso   1.000  C
  C223     1.0000 0.34650  0.47220  0.27860  Biso   1.000  C
  C224     1.0000 0.84650  0.97220  0.27860  Biso   1.000  C
  H209     1.0000 0.63510  0.47840  0.26260  Biso   1.000  H
  H210     1.0000 0.13510  0.97840  0.26260  Biso   1.000  H
  H211     1.0000 0.63510  0.52160  0.76260  Biso   1.000  H
  H212     1.0000 0.13510  0.02160  0.76260  Biso   1.000  H
  H213     1.0000 0.36490  0.52160  0.73740  Biso   1.000  H
  H214     1.0000 0.86490  0.02160  0.73740  Biso   1.000  H
  H215     1.0000 0.36490  0.47840  0.23740  Biso   1.000  H
  H216     1.0000 0.86490  0.97840  0.23740  Biso   1.000  H
  C225     1.0000 0.58290  0.48800  0.15760  Biso   1.000  C
  C226     1.0000 0.08290  0.98800  0.15760  Biso   1.000  C
  C227     1.0000 0.58290  0.51200  0.65760  Biso   1.000  C
  C228     1.0000 0.08290  0.01200  0.65760  Biso   1.000  C
  C229     1.0000 0.41710  0.51200  0.84240  Biso   1.000  C
  C230     1.0000 0.91710  0.01200  0.84240  Biso   1.000  C
  C231     1.0000 0.41710  0.48800  0.34240  Biso   1.000  C
  C232     1.0000 0.91710  0.98800  0.34240  Biso   1.000  C
  H217     1.0000 0.51850  0.50500  0.15790  Biso   1.000  H
  H218     1.0000 0.01850  0.00500  0.15790  Biso   1.000  H
  H219     1.0000 0.51850  0.49500  0.65790  Biso   1.000  H
  H220     1.0000 0.01850  0.99500  0.65790  Biso   1.000  H
  H221     1.0000 0.48150  0.49500  0.84210  Biso   1.000  H
  H222     1.0000 0.98150  0.99500  0.84210  Biso   1.000  H
  H223     1.0000 0.48150  0.50500  0.34210  Biso   1.000  H
  H224     1.0000 0.98150  0.00500  0.34210  Biso   1.000  H
  C233     1.0000 0.82940  0.42710  0.28970  Biso   1.000  C
  C234     1.0000 0.32940  0.92710  0.28970  Biso   1.000  C
  C235     1.0000 0.82940  0.57290  0.78970  Biso   1.000  C
  C236     1.0000 0.32940  0.07290  0.78970  Biso   1.000  C
  C237     1.0000 0.17060  0.57290  0.71030  Biso   1.000  C
  C238     1.0000 0.67060  0.07290  0.71030  Biso   1.000  C
  C239     1.0000 0.17060  0.42710  0.21030  Biso   1.000  C
  C240     1.0000 0.67060  0.92710  0.21030  Biso   1.000  C
  H225     1.0000 0.89830  0.44440  0.29310  Biso   1.000  H
  H226     1.0000 0.39830  0.94440  0.29310  Biso   1.000  H
  H227     1.0000 0.89830  0.55560  0.79310  Biso   1.000  H
  H228     1.0000 0.39830  0.05560  0.79310  Biso   1.000  H
  H229     1.0000 0.10170  0.55560  0.70690  Biso   1.000  H
  H230     1.0000 0.60170  0.05560  0.70690  Biso   1.000  H
  H231     1.0000 0.10170  0.44440  0.20690  Biso   1.000  H
  H232     1.0000 0.60170  0.94440  0.20690  Biso   1.000  H
  H233     1.0000 0.80670  0.43950  0.32970  Biso   1.000  H
  H234     1.0000 0.30670  0.93950  0.32970  Biso   1.000  H
  H235     1.0000 0.80670  0.56050  0.82970  Biso   1.000  H
  H236     1.0000 0.30670  0.06050  0.82970  Biso   1.000  H
  H237     1.0000 0.19330  0.56050  0.67030  Biso   1.000  H
  H238     1.0000 0.69330  0.06050  0.67030  Biso   1.000  H
  H239     1.0000 0.19330  0.43950  0.17030  Biso   1.000  H
  H240     1.0000 0.69330  0.93950  0.17030  Biso   1.000  H
  S1       1.0000 0.16846  0.09503  0.41141  Biso   1.000  S
  S2       1.0000 0.66846  0.59503  0.41141  Biso   1.000  S
  S3       1.0000 0.16846  0.90497  0.91141  Biso   1.000  S
  S4       1.0000 0.66846  0.40497  0.91141  Biso   1.000  S
  S5       1.0000 0.83154  0.90497  0.58859  Biso   1.000  S
  S6       1.0000 0.33154  0.40497  0.58859  Biso   1.000  S
  S7       1.0000 0.83154  0.09503  0.08859  Biso   1.000  S
  S8       1.0000 0.33154  0.59503  0.08859  Biso   1.000  S
  O1       1.0000 0.18750  0.14703  0.45548  Biso   1.000  O
  O2       1.0000 0.68750  0.64703  0.45548  Biso   1.000  O
  O3       1.0000 0.18750  0.85297  0.95548  Biso   1.000  O
  O4       1.0000 0.68750  0.35297  0.95548  Biso   1.000  O
  O5       1.0000 0.81250  0.85297  0.54452  Biso   1.000  O
  O6       1.0000 0.31250  0.35297  0.54452  Biso   1.000  O
  O7       1.0000 0.81250  0.14703  0.04452  Biso   1.000  O
  O8       1.0000 0.31250  0.64703  0.04452  Biso   1.000  O
  O9       1.0000 0.11260  0.05123  0.44154  Biso   1.000  O
  O10      1.0000 0.61260  0.55123  0.44154  Biso   1.000  O
  O11      1.0000 0.11260  0.94877  0.94154  Biso   1.000  O
  O12      1.0000 0.61260  0.44877  0.94154  Biso   1.000  O
  O13      1.0000 0.88740  0.94877  0.55846  Biso   1.000  O
  O14      1.0000 0.38740  0.44877  0.55846  Biso   1.000  O
  O15      1.0000 0.88740  0.05123  0.05846  Biso   1.000  O
  O16      1.0000 0.38740  0.55123  0.05846  Biso   1.000  O
  O17      1.0000 0.27050  0.07240  0.40720  Biso   1.000  O
  O18      1.0000 0.77050  0.57240  0.40720  Biso   1.000  O
  O19      1.0000 0.27050  0.92760  0.90720  Biso   1.000  O
  O20      1.0000 0.77050  0.42760  0.90720  Biso   1.000  O
  O21      1.0000 0.72950  0.92760  0.59280  Biso   1.000  O
  O22      1.0000 0.22950  0.42760  0.59280  Biso   1.000  O
  O23      1.0000 0.72950  0.07240  0.09280  Biso   1.000  O
  O24      1.0000 0.22950  0.57240  0.09280  Biso   1.000  O
  O25      1.0000 0.10130  0.11110  0.34242  Biso   1.000  O
  O26      1.0000 0.60130  0.61110  0.34242  Biso   1.000  O
  O27      1.0000 0.10130  0.88890  0.84242  Biso   1.000  O
  O28      1.0000 0.60130  0.38890  0.84242  Biso   1.000  O
  O29      1.0000 0.89870  0.88890  0.65758  Biso   1.000  O
  O30      1.0000 0.39870  0.38890  0.65758  Biso   1.000  O
  O31      1.0000 0.89870  0.11110  0.15758  Biso   1.000  O
  O32      1.0000 0.39870  0.61110  0.15758  Biso   1.000  O
  O33      1.0000 0.11380  0.14210  0.21300  Biso   1.000  O
  O34      1.0000 0.61380  0.64210  0.21300  Biso   1.000  O
  O35      1.0000 0.11380  0.85790  0.71300  Biso   1.000  O
  O36      1.0000 0.61380  0.35790  0.71300  Biso   1.000  O
  O37      1.0000 0.88620  0.85790  0.78700  Biso   1.000  O
  O38      1.0000 0.38620  0.35790  0.78700  Biso   1.000  O
  O39      1.0000 0.88620  0.14210  0.28700  Biso   1.000  O
  O40      1.0000 0.38620  0.64210  0.28700  Biso   1.000  O
  O41      1.0000 0.38750  0.07540  0.31410  Biso   1.000  O
  O42      1.0000 0.88750  0.57540  0.31410  Biso   1.000  O
  O43      1.0000 0.38750  0.92460  0.81410  Biso   1.000  O
  O44      1.0000 0.88750  0.42460  0.81410  Biso   1.000  O
  O45      1.0000 0.61250  0.92460  0.68590  Biso   1.000  O
  O46      1.0000 0.11250  0.42460  0.68590  Biso   1.000  O
  O47      1.0000 0.61250  0.07540  0.18590  Biso   1.000  O
  O48      1.0000 0.11250  0.57540  0.18590  Biso   1.000  O
  O49      1.0000 0.39660  0.01250  0.98410  Biso   1.000  O
  O50      1.0000 0.89660  0.51250  0.98410  Biso   1.000  O
  O51      1.0000 0.39660  0.98750  0.48410  Biso   1.000  O
  O52      1.0000 0.89660  0.48750  0.48410  Biso   1.000  O
  O53      1.0000 0.60340  0.98750  0.01590  Biso   1.000  O
  O54      1.0000 0.10340  0.48750  0.01590  Biso   1.000  O
  O55      1.0000 0.60340  0.01250  0.51590  Biso   1.000  O
  O56      1.0000 0.10340  0.51250  0.51590  Biso   1.000  O
  O57      1.0000 0.68170  0.13170  0.30730  Biso   1.000  O
  O58      1.0000 0.18170  0.63170  0.30730  Biso   1.000  O
  O59      1.0000 0.68170  0.86830  0.80730  Biso   1.000  O
  O60      1.0000 0.18170  0.36830  0.80730  Biso   1.000  O
  O61      1.0000 0.31830  0.86830  0.69270  Biso   1.000  O
  O62      1.0000 0.81830  0.36830  0.69270  Biso   1.000  O
  O63      1.0000 0.31830  0.13170  0.19270  Biso   1.000  O
  O64      1.0000 0.81830  0.63170  0.19270  Biso   1.000  O
  O65      1.0000 0.59200  0.08580  0.40010  Biso   1.000  O
  O66      1.0000 0.09200  0.58580  0.40010  Biso   1.000  O
  O67      1.0000 0.59200  0.91420  0.90010  Biso   1.000  O
  O68      1.0000 0.09200  0.41420  0.90010  Biso   1.000  O
  O69      1.0000 0.40800  0.91420  0.59990  Biso   1.000  O
  O70      1.0000 0.90800  0.41420  0.59990  Biso   1.000  O
  O71      1.0000 0.40800  0.08580  0.09990  Biso   1.000  O
  O72      1.0000 0.90800  0.58580  0.09990  Biso   1.000  O
