data_image0
_cell_length_a       9.399
_cell_length_b       9.496
_cell_length_c       10.073
_cell_angle_alpha    62.11
_cell_angle_beta     89.18
_cell_angle_gamma    73

_symmetry_space_group_name_H-M    "P 1"
_symmetry_int_tables_number       1

loop_
  _symmetry_equiv_pos_as_xyz
  'x, y, z'

loop_
  _atom_site_label
  _atom_site_occupancy
  _atom_site_fract_x
  _atom_site_fract_y
  _atom_site_fract_z
  _atom_site_thermal_displace_type
  _atom_site_B_iso_or_equiv
  _atom_site_type_symbol
  Cu1      1.0000 0.50000  0.00000  0.50000  Biso   1.000  Cu
  Cu2      1.0000 0.50000  0.50000  0.50000  Biso   1.000  Cu
  N1       1.0000 0.38670  0.06290  0.64540  Biso   1.000  N
  N2       1.0000 0.61330  0.93710  0.35460  Biso   1.000  N
  C1       1.0000 0.45110  0.10720  0.73110  Biso   1.000  C
  C2       1.0000 0.54890  0.89280  0.26890  Biso   1.000  C
  H1       1.0000 0.54680  0.11590  0.71660  Biso   1.000  H
  H2       1.0000 0.45320  0.88410  0.28340  Biso   1.000  H
  C3       1.0000 0.38280  0.14040  0.83920  Biso   1.000  C
  C4       1.0000 0.61720  0.85960  0.16080  Biso   1.000  C
  H3       1.0000 0.43170  0.17150  0.89560  Biso   1.000  H
  H4       1.0000 0.56830  0.82850  0.10440  Biso   1.000  H
  C5       1.0000 0.24090  0.12760  0.86410  Biso   1.000  C
  C6       1.0000 0.75910  0.87240  0.13590  Biso   1.000  C
  C7       1.0000 0.17180  0.08650  0.77220  Biso   1.000  C
  C8       1.0000 0.82820  0.91350  0.22780  Biso   1.000  C
  H5       1.0000 0.07540  0.07910  0.78320  Biso   1.000  H
  H6       1.0000 0.92460  0.92090  0.21680  Biso   1.000  H
  C9       1.0000 0.24720  0.05680  0.66470  Biso   1.000  C
  C10      1.0000 0.75280  0.94320  0.33530  Biso   1.000  C
  H7       1.0000 0.19880  0.03130  0.60290  Biso   1.000  H
  H8       1.0000 0.80120  0.96870  0.39710  Biso   1.000  H
  C11      1.0000 0.16750  0.15580  0.98760  Biso   1.000  C
  C12      1.0000 0.83250  0.84420  0.01240  Biso   1.000  C
  H9       1.0000 0.24530  0.12210  0.06880  Biso   1.000  H
  H10      1.0000 0.75470  0.87790  0.93120  Biso   1.000  H
  H11      1.0000 0.10530  0.08390  0.02890  Biso   1.000  H
  H12      1.0000 0.89470  0.91610  0.97110  Biso   1.000  H
  C13      1.0000 0.07010  0.33880  0.93410  Biso   1.000  C
  C14      1.0000 0.92990  0.66120  0.06590  Biso   1.000  C
  H13      1.0000 0.04180  0.35210  0.02150  Biso   1.000  H
  H14      1.0000 0.95820  0.64790  0.97850  Biso   1.000  H
  H15      1.0000 0.12790  0.41310  0.88130  Biso   1.000  H
  H16      1.0000 0.87210  0.58690  0.11870  Biso   1.000  H
  N3       1.0000 0.67930  0.45190  0.63940  Biso   1.000  N
  N4       1.0000 0.32070  0.54810  0.36060  Biso   1.000  N
  C15      1.0000 0.79170  0.50930  0.58450  Biso   1.000  C
  C16      1.0000 0.20830  0.49070  0.41550  Biso   1.000  C
  H17      1.0000 0.78600  0.57130  0.47980  Biso   1.000  H
  H18      1.0000 0.21400  0.42870  0.52020  Biso   1.000  H
  C17      1.0000 0.91710  0.48170  0.67490  Biso   1.000  C
  C18      1.0000 0.08290  0.51830  0.32510  Biso   1.000  C
  H19      1.0000 0.99200  0.52670  0.63100  Biso   1.000  H
  H20      1.0000 0.00800  0.47330  0.36900  Biso   1.000  H
  C19      1.0000 0.93020  0.38750  0.82970  Biso   1.000  C
  C20      1.0000 0.06980  0.61250  0.17030  Biso   1.000  C
  C21      1.0000 0.81100  0.32980  0.88840  Biso   1.000  C
  C22      1.0000 0.18900  0.67020  0.11160  Biso   1.000  C
  H21      1.0000 0.81430  0.26700  0.99280  Biso   1.000  H
  H22      1.0000 0.18570  0.73300  0.00720  Biso   1.000  H
  C23      1.0000 0.68810  0.36660  0.79040  Biso   1.000  C
  C24      1.0000 0.31190  0.63340  0.20960  Biso   1.000  C
  H23      1.0000 0.60790  0.33050  0.83120  Biso   1.000  H
  H24      1.0000 0.39210  0.66950  0.16880  Biso   1.000  H
  S1       1.0000 0.69305  0.32469  0.35208  Biso   1.000  S
  S2       1.0000 0.30695  0.67531  0.64792  Biso   1.000  S
  O1       1.0000 0.63040  0.49030  0.35060  Biso   1.000  O
  O2       1.0000 0.36960  0.50970  0.64940  Biso   1.000  O
  O3       1.0000 0.60940  0.21420  0.44650  Biso   1.000  O
  O4       1.0000 0.39060  0.78580  0.55350  Biso   1.000  O
  O5       1.0000 0.67640  0.35850  0.19490  Biso   1.000  O
  O6       1.0000 0.32360  0.64150  0.80510  Biso   1.000  O
  O7       1.0000 0.85260  0.25110  0.41680  Biso   1.000  O
  O8       1.0000 0.14740  0.74890  0.58320  Biso   1.000  O
  O9       1.0000 0.67110  0.83480  0.66670  Biso   1.000  O
  O10      1.0000 0.32890  0.16520  0.33330  Biso   1.000  O
  O11      1.0000 0.91520  0.92580  0.67670  Biso   1.000  O
  O12      1.0000 0.08480  0.07420  0.32330  Biso   1.000  O
  O13      1.0000 0.56320  0.68230  0.93160  Biso   1.000  O
  O14      1.0000 0.43680  0.31770  0.06840  Biso   1.000  O
