data_image0
_cell_length_a       7.4036
_cell_length_b       7.5691
_cell_length_c       10.8319
_cell_angle_alpha    92.44
_cell_angle_beta     108.409
_cell_angle_gamma    91.124

_symmetry_space_group_name_H-M    "P 1"
_symmetry_int_tables_number       1

loop_
  _symmetry_equiv_pos_as_xyz
  'x, y, z'

loop_
  _atom_site_label
  _atom_site_occupancy
  _atom_site_fract_x
  _atom_site_fract_y
  _atom_site_fract_z
  _atom_site_thermal_displace_type
  _atom_site_B_iso_or_equiv
  _atom_site_type_symbol
  Cu1      1.0000 0.00000  0.50000  0.00000  Biso   1.000  Cu
  Cu2      1.0000 0.50000  0.50000  0.00000  Biso   1.000  Cu
  P1       1.0000 0.24592  0.15195  0.00120  Biso   1.000  P
  P2       1.0000 0.75408  0.84805  0.99880  Biso   1.000  P
  O1       1.0000 0.07710  0.25930  0.00217  Biso   1.000  O
  O2       1.0000 0.92290  0.74070  0.99783  Biso   1.000  O
  O3       1.0000 0.18090  0.00880  0.88298  Biso   1.000  O
  O4       1.0000 0.81910  0.99120  0.11702  Biso   1.000  O
  H1       1.0000 0.15100  0.05800  0.81300  Biso   1.000  H
  H2       1.0000 0.84900  0.94200  0.18700  Biso   1.000  H
  O5       1.0000 0.41530  0.25730  0.99103  Biso   1.000  O
  O6       1.0000 0.58470  0.74270  0.00897  Biso   1.000  O
  O7       1.0000 0.19590  0.61350  0.86190  Biso   1.000  O
  O8       1.0000 0.80410  0.38650  0.13810  Biso   1.000  O
  H3       1.0000 0.20100  0.72200  0.87700  Biso   1.000  H
  H4       1.0000 0.79900  0.27800  0.12300  Biso   1.000  H
  H5       1.0000 0.20000  0.59600  0.78700  Biso   1.000  H
  H6       1.0000 0.80000  0.40400  0.21300  Biso   1.000  H
  N1       1.0000 0.76660  0.43030  0.84640  Biso   1.000  N
  N2       1.0000 0.23340  0.56970  0.15360  Biso   1.000  N
  N3       1.0000 0.58960  0.44130  0.84480  Biso   1.000  N
  N4       1.0000 0.41040  0.55870  0.15520  Biso   1.000  N
  N5       1.0000 0.77070  0.36780  0.73020  Biso   1.000  N
  N6       1.0000 0.22930  0.63220  0.26980  Biso   1.000  N
  N7       1.0000 0.47160  0.38610  0.72790  Biso   1.000  N
  N8       1.0000 0.52840  0.61390  0.27210  Biso   1.000  N
  C1       1.0000 0.31440  0.01440  0.13780  Biso   1.000  C
  C2       1.0000 0.68560  0.98560  0.86220  Biso   1.000  C
  H7       1.0000 0.20340  0.93790  0.13550  Biso   1.000  H
  H8       1.0000 0.79660  0.06210  0.86450  Biso   1.000  H
  H9       1.0000 0.41540  0.93630  0.12820  Biso   1.000  H
  H10      1.0000 0.58460  0.06370  0.87180  Biso   1.000  H
  C3       1.0000 0.38630  0.11250  0.26950  Biso   1.000  C
  C4       1.0000 0.61370  0.88750  0.73050  Biso   1.000  C
  C5       1.0000 0.26170  0.19180  0.32580  Biso   1.000  C
  C6       1.0000 0.73830  0.80820  0.67420  Biso   1.000  C
  H11      1.0000 0.12980  0.19270  0.27800  Biso   1.000  H
  H12      1.0000 0.87020  0.80730  0.72200  Biso   1.000  H
  C7       1.0000 0.57900  0.11770  0.34040  Biso   1.000  C
  C8       1.0000 0.42100  0.88230  0.65960  Biso   1.000  C
  H13      1.0000 0.66690  0.06760  0.30240  Biso   1.000  H
  H14      1.0000 0.33310  0.93240  0.69760  Biso   1.000  H
  C9       1.0000 0.32720  0.26990  0.45100  Biso   1.000  C
  C10      1.0000 0.67280  0.73010  0.54900  Biso   1.000  C
  H15      1.0000 0.23990  0.32410  0.48770  Biso   1.000  H
  H16      1.0000 0.76010  0.67590  0.51230  Biso   1.000  H
  C11      1.0000 0.64570  0.19490  0.46600  Biso   1.000  C
  C12      1.0000 0.35430  0.80510  0.53400  Biso   1.000  C
  H17      1.0000 0.77800  0.19660  0.51300  Biso   1.000  H
  H18      1.0000 0.22200  0.80340  0.48700  Biso   1.000  H
  C13      1.0000 0.51950  0.26950  0.52300  Biso   1.000  C
  C14      1.0000 0.48050  0.73050  0.47700  Biso   1.000  C
  C15      1.0000 0.58690  0.34180  0.65910  Biso   1.000  C
  C16      1.0000 0.41310  0.65820  0.34090  Biso   1.000  C
  O9       1.0000 0.09710  0.21500  0.68760  Biso   1.000  O
  O10      1.0000 0.90290  0.78500  0.31240  Biso   1.000  O
  H19      1.0000 0.19700  0.28200  0.69900  Biso   1.000  H
  H20      1.0000 0.80300  0.71800  0.30100  Biso   1.000  H
  H21      1.0000 0.00600  0.28000  0.70400  Biso   1.000  H
  H22      1.0000 0.99400  0.72000  0.29600  Biso   1.000  H
