data_image0
_cell_length_a       12.7742
_cell_length_b       12.4069
_cell_length_c       13.5064
_cell_angle_alpha    90
_cell_angle_beta     106.894
_cell_angle_gamma    90

_symmetry_space_group_name_H-M    "P 1"
_symmetry_int_tables_number       1

loop_
  _symmetry_equiv_pos_as_xyz
  'x, y, z'

loop_
  _atom_site_label
  _atom_site_occupancy
  _atom_site_fract_x
  _atom_site_fract_y
  _atom_site_fract_z
  _atom_site_thermal_displace_type
  _atom_site_B_iso_or_equiv
  _atom_site_type_symbol
  Cu1      1.0000 0.25137  0.22347  0.41067  Biso   1.000  Cu
  Cu2      1.0000 0.74863  0.72347  0.08933  Biso   1.000  Cu
  Cu3      1.0000 0.74863  0.77653  0.58933  Biso   1.000  Cu
  Cu4      1.0000 0.25137  0.27653  0.91067  Biso   1.000  Cu
  N1       1.0000 0.25269  0.22312  0.56037  Biso   1.000  N
  N2       1.0000 0.74731  0.72312  0.93963  Biso   1.000  N
  N3       1.0000 0.74731  0.77688  0.43963  Biso   1.000  N
  N4       1.0000 0.25269  0.27688  0.06037  Biso   1.000  N
  C1       1.0000 0.28770  0.14650  0.63136  Biso   1.000  C
  C2       1.0000 0.71230  0.64650  0.86864  Biso   1.000  C
  C3       1.0000 0.71230  0.85350  0.36864  Biso   1.000  C
  C4       1.0000 0.28770  0.35350  0.13136  Biso   1.000  C
  H1       1.0000 0.30800  0.08700  0.61200  Biso   1.000  H
  H2       1.0000 0.69200  0.58700  0.88800  Biso   1.000  H
  H3       1.0000 0.69200  0.91300  0.38800  Biso   1.000  H
  H4       1.0000 0.30800  0.41300  0.11200  Biso   1.000  H
  C5       1.0000 0.28540  0.16190  0.73205  Biso   1.000  C
  C6       1.0000 0.71460  0.66190  0.76795  Biso   1.000  C
  C7       1.0000 0.71460  0.83810  0.26795  Biso   1.000  C
  C8       1.0000 0.28540  0.33810  0.23205  Biso   1.000  C
  H5       1.0000 0.30600  0.10600  0.77900  Biso   1.000  H
  H6       1.0000 0.69400  0.60600  0.72100  Biso   1.000  H
  H7       1.0000 0.69400  0.89400  0.22100  Biso   1.000  H
  H8       1.0000 0.30600  0.39400  0.27900  Biso   1.000  H
  N5       1.0000 0.24825  0.25383  0.76134  Biso   1.000  N
  N6       1.0000 0.75175  0.75383  0.73866  Biso   1.000  N
  N7       1.0000 0.75175  0.74617  0.23866  Biso   1.000  N
  N8       1.0000 0.24825  0.24617  0.26134  Biso   1.000  N
  C9       1.0000 0.21180  0.32990  0.68950  Biso   1.000  C
  C10      1.0000 0.78820  0.82990  0.81050  Biso   1.000  C
  C11      1.0000 0.78820  0.67010  0.31050  Biso   1.000  C
  C12      1.0000 0.21180  0.17010  0.18950  Biso   1.000  C
  H9       1.0000 0.18300  0.39100  0.70700  Biso   1.000  H
  H10      1.0000 0.81700  0.89100  0.79300  Biso   1.000  H
  H11      1.0000 0.81700  0.60900  0.29300  Biso   1.000  H
  H12      1.0000 0.18300  0.10900  0.20700  Biso   1.000  H
  C13      1.0000 0.21460  0.31460  0.58925  Biso   1.000  C
  C14      1.0000 0.78540  0.81460  0.91075  Biso   1.000  C
  C15      1.0000 0.78540  0.68540  0.41075  Biso   1.000  C
  C16      1.0000 0.21460  0.18540  0.08925  Biso   1.000  C
  C17      1.0000 0.17760  0.39440  0.50296  Biso   1.000  C
  C18      1.0000 0.82240  0.89440  0.99704  Biso   1.000  C
  C19      1.0000 0.82240  0.60560  0.49704  Biso   1.000  C
  C20      1.0000 0.17760  0.10560  0.00296  Biso   1.000  C
  O1       1.0000 0.18681  0.36881  0.41634  Biso   1.000  O
  O2       1.0000 0.81319  0.86881  0.08366  Biso   1.000  O
  O3       1.0000 0.81319  0.63119  0.58366  Biso   1.000  O
  O4       1.0000 0.18681  0.13119  0.91634  Biso   1.000  O
  N9       1.0000 0.13890  0.48710  0.52060  Biso   1.000  N
  N10      1.0000 0.86110  0.98710  0.97940  Biso   1.000  N
  N11      1.0000 0.86110  0.51290  0.47940  Biso   1.000  N
  N12      1.0000 0.13890  0.01290  0.02060  Biso   1.000  N
  H13      1.0000 0.11600  0.52700  0.47300  Biso   1.000  H
  H14      1.0000 0.88400  0.02700  0.02700  Biso   1.000  H
  H15      1.0000 0.88400  0.47300  0.52700  Biso   1.000  H
  H16      1.0000 0.11600  0.97300  0.97300  Biso   1.000  H
  H17      1.0000 0.13400  0.50100  0.57800  Biso   1.000  H
  H18      1.0000 0.86600  0.00100  0.92200  Biso   1.000  H
  H19      1.0000 0.86600  0.49900  0.42200  Biso   1.000  H
  H20      1.0000 0.13400  0.99900  0.07800  Biso   1.000  H
  N13      1.0000 0.08100  0.14440  0.35900  Biso   1.000  N
  N14      1.0000 0.91900  0.64440  0.14100  Biso   1.000  N
  N15      1.0000 0.91900  0.85560  0.64100  Biso   1.000  N
  N16      1.0000 0.08100  0.35560  0.85900  Biso   1.000  N
  C21      1.0000 0.99690  0.10740  0.34000  Biso   1.000  C
  C22      1.0000 0.00310  0.60740  0.16000  Biso   1.000  C
  C23      1.0000 0.00310  0.89260  0.66000  Biso   1.000  C
  C24      1.0000 0.99690  0.39260  0.84000  Biso   1.000  C
  C25      1.0000 0.88880  0.05860  0.31470  Biso   1.000  C
  C26      1.0000 0.11120  0.55860  0.18530  Biso   1.000  C
  C27      1.0000 0.11120  0.94140  0.68530  Biso   1.000  C
  C28      1.0000 0.88880  0.44140  0.81470  Biso   1.000  C
  H21      1.0000 0.88270  0.00370  0.26220  Biso   1.000  H
  H22      1.0000 0.11730  0.50370  0.23780  Biso   1.000  H
  H23      1.0000 0.11730  0.99630  0.73780  Biso   1.000  H
  H24      1.0000 0.88270  0.49630  0.76220  Biso   1.000  H
  H25      1.0000 0.83370  0.11360  0.28870  Biso   1.000  H
  H26      1.0000 0.16630  0.61360  0.21130  Biso   1.000  H
  H27      1.0000 0.16630  0.88640  0.71130  Biso   1.000  H
  H28      1.0000 0.83370  0.38640  0.78870  Biso   1.000  H
  H29      1.0000 0.87810  0.02610  0.37630  Biso   1.000  H
  H30      1.0000 0.12190  0.52610  0.12370  Biso   1.000  H
  H31      1.0000 0.12190  0.97390  0.62370  Biso   1.000  H
  H32      1.0000 0.87810  0.47390  0.87630  Biso   1.000  H
  N17      1.0000 0.42550  0.30900  0.46100  Biso   1.000  N
  N18      1.0000 0.57450  0.80900  0.03900  Biso   1.000  N
  N19      1.0000 0.57450  0.69100  0.53900  Biso   1.000  N
  N20      1.0000 0.42550  0.19100  0.96100  Biso   1.000  N
  C29      1.0000 0.50940  0.34050  0.46520  Biso   1.000  C
  C30      1.0000 0.49060  0.84050  0.03480  Biso   1.000  C
  C31      1.0000 0.49060  0.65950  0.53480  Biso   1.000  C
  C32      1.0000 0.50940  0.15950  0.96520  Biso   1.000  C
  C33      1.0000 0.61740  0.38030  0.46980  Biso   1.000  C
  C34      1.0000 0.38260  0.88030  0.03020  Biso   1.000  C
  C35      1.0000 0.38260  0.61970  0.53020  Biso   1.000  C
  C36      1.0000 0.61740  0.11970  0.96980  Biso   1.000  C
  H33      1.0000 0.65620  0.39970  0.54050  Biso   1.000  H
  H34      1.0000 0.34380  0.89970  0.95950  Biso   1.000  H
  H35      1.0000 0.34380  0.60030  0.45950  Biso   1.000  H
  H36      1.0000 0.65620  0.10030  0.04050  Biso   1.000  H
  H37      1.0000 0.61070  0.44320  0.42570  Biso   1.000  H
  H38      1.0000 0.38930  0.94320  0.07430  Biso   1.000  H
  H39      1.0000 0.38930  0.55680  0.57430  Biso   1.000  H
  H40      1.0000 0.61070  0.05680  0.92570  Biso   1.000  H
  H41      1.0000 0.65780  0.32460  0.44610  Biso   1.000  H
  H42      1.0000 0.34220  0.82460  0.05390  Biso   1.000  H
  H43      1.0000 0.34220  0.67540  0.55390  Biso   1.000  H
  H44      1.0000 0.65780  0.17540  0.94610  Biso   1.000  H
  N21      1.0000 0.31679  0.07699  0.41339  Biso   1.000  N
  N22      1.0000 0.68321  0.57699  0.08661  Biso   1.000  N
  N23      1.0000 0.68321  0.92301  0.58661  Biso   1.000  N
  N24      1.0000 0.31679  0.42301  0.91339  Biso   1.000  N
  C37      1.0000 0.34910  0.99480  0.40270  Biso   1.000  C
  C38      1.0000 0.65090  0.49480  0.09730  Biso   1.000  C
  C39      1.0000 0.65090  0.00520  0.59730  Biso   1.000  C
  C40      1.0000 0.34910  0.50520  0.90270  Biso   1.000  C
  C41      1.0000 0.39140  0.88900  0.38820  Biso   1.000  C
  C42      1.0000 0.60860  0.38900  0.11180  Biso   1.000  C
  C43      1.0000 0.60860  0.11100  0.61180  Biso   1.000  C
  C44      1.0000 0.39140  0.61100  0.88820  Biso   1.000  C
  H45      1.0000 0.41710  0.89000  0.32730  Biso   1.000  H
  H46      1.0000 0.58290  0.39000  0.17270  Biso   1.000  H
  H47      1.0000 0.58290  0.11000  0.67270  Biso   1.000  H
  H48      1.0000 0.41710  0.61000  0.82730  Biso   1.000  H
  H49      1.0000 0.33380  0.83570  0.37920  Biso   1.000  H
  H50      1.0000 0.66620  0.33570  0.12080  Biso   1.000  H
  H51      1.0000 0.66620  0.16430  0.62080  Biso   1.000  H
  H52      1.0000 0.33380  0.66430  0.87920  Biso   1.000  H
  H53      1.0000 0.45160  0.87070  0.44850  Biso   1.000  H
  H54      1.0000 0.54840  0.37070  0.05150  Biso   1.000  H
  H55      1.0000 0.54840  0.12930  0.55150  Biso   1.000  H
  H56      1.0000 0.45160  0.62930  0.94850  Biso   1.000  H
  Cl1      1.0000 0.53731  0.11263  0.25969  Biso   1.000  Cl
  Cl2      1.0000 0.46269  0.61263  0.24031  Biso   1.000  Cl
  Cl3      1.0000 0.46269  0.88737  0.74031  Biso   1.000  Cl
  Cl4      1.0000 0.53731  0.38737  0.75969  Biso   1.000  Cl
  O5       1.0000 0.57430  0.08090  0.36565  Biso   1.000  O
  O6       1.0000 0.42570  0.58090  0.13435  Biso   1.000  O
  O7       1.0000 0.42570  0.91910  0.63435  Biso   1.000  O
  O8       1.0000 0.57430  0.41910  0.86565  Biso   1.000  O
  O9       1.0000 0.43160  0.06470  0.21410  Biso   1.000  O
  O10      1.0000 0.56840  0.56470  0.28590  Biso   1.000  O
  O11      1.0000 0.56840  0.93530  0.78590  Biso   1.000  O
  O12      1.0000 0.43160  0.43530  0.71410  Biso   1.000  O
  O13      1.0000 0.51970  0.22390  0.25010  Biso   1.000  O
  O14      1.0000 0.48030  0.72390  0.24990  Biso   1.000  O
  O15      1.0000 0.48030  0.77610  0.74990  Biso   1.000  O
  O16      1.0000 0.51970  0.27610  0.75010  Biso   1.000  O
  O17      1.0000 0.60960  0.07510  0.20570  Biso   1.000  O
  O18      1.0000 0.39040  0.57510  0.29430  Biso   1.000  O
  O19      1.0000 0.39040  0.92490  0.79430  Biso   1.000  O
  O20      1.0000 0.60960  0.42490  0.70570  Biso   1.000  O
  Cl5      1.0000 0.08120  0.73110  0.92430  Biso   1.000  Cl
  Cl6      1.0000 0.91880  0.23110  0.57570  Biso   1.000  Cl
  Cl7      1.0000 0.91880  0.26890  0.07570  Biso   1.000  Cl
  Cl8      1.0000 0.08120  0.76890  0.42430  Biso   1.000  Cl
  O21      1.0000 0.00050  0.67300  0.84840  Biso   1.000  O
  O22      1.0000 0.99950  0.17300  0.65160  Biso   1.000  O
  O23      1.0000 0.99950  0.32700  0.15160  Biso   1.000  O
  O24      1.0000 0.00050  0.82700  0.34840  Biso   1.000  O
  O25      1.0000 0.12610  0.81520  0.87930  Biso   1.000  O
  O26      1.0000 0.87390  0.31520  0.62070  Biso   1.000  O
  O27      1.0000 0.87390  0.18480  0.12070  Biso   1.000  O
  O28      1.0000 0.12610  0.68480  0.37930  Biso   1.000  O
  O29      1.0000 0.16340  0.65620  0.97150  Biso   1.000  O
  O30      1.0000 0.83660  0.15620  0.52850  Biso   1.000  O
  O31      1.0000 0.83660  0.34380  0.02850  Biso   1.000  O
  O32      1.0000 0.16340  0.84380  0.47150  Biso   1.000  O
  O33      1.0000 0.03370  0.77500  0.99780  Biso   1.000  O
  O34      1.0000 0.96630  0.27500  0.50220  Biso   1.000  O
  O35      1.0000 0.96630  0.22500  0.00220  Biso   1.000  O
  O36      1.0000 0.03370  0.72500  0.49780  Biso   1.000  O
  Cl9      1.0000 0.08500  0.73370  0.93360  Biso   1.000  Cl
  Cl10     1.0000 0.91500  0.23370  0.56640  Biso   1.000  Cl
  Cl11     1.0000 0.91500  0.26630  0.06640  Biso   1.000  Cl
  Cl12     1.0000 0.08500  0.76630  0.43360  Biso   1.000  Cl
  O37      1.0000 0.99180  0.66600  0.91700  Biso   1.000  O
  O38      1.0000 0.00820  0.16600  0.58300  Biso   1.000  O
  O39      1.0000 0.00820  0.33400  0.08300  Biso   1.000  O
  O40      1.0000 0.99180  0.83400  0.41700  Biso   1.000  O
  O41      1.0000 0.04230  0.83790  0.89090  Biso   1.000  O
  O42      1.0000 0.95770  0.33790  0.60910  Biso   1.000  O
  O43      1.0000 0.95770  0.16210  0.10910  Biso   1.000  O
  O44      1.0000 0.04230  0.66210  0.39090  Biso   1.000  O
  O45      1.0000 0.15580  0.69740  0.88080  Biso   1.000  O
  O46      1.0000 0.84420  0.19740  0.61920  Biso   1.000  O
  O47      1.0000 0.84420  0.30260  0.11920  Biso   1.000  O
  O48      1.0000 0.15580  0.80260  0.38080  Biso   1.000  O
  O49      1.0000 0.13920  0.74870  0.04060  Biso   1.000  O
  O50      1.0000 0.86080  0.24870  0.45940  Biso   1.000  O
  O51      1.0000 0.86080  0.25130  0.95940  Biso   1.000  O
  O52      1.0000 0.13920  0.75130  0.54060  Biso   1.000  O
  O53      1.0000 0.10260  0.91260  0.19400  Biso   1.000  O
  O54      1.0000 0.89740  0.41260  0.30600  Biso   1.000  O
  O55      1.0000 0.89740  0.08740  0.80600  Biso   1.000  O
  O56      1.0000 0.10260  0.58740  0.69400  Biso   1.000  O
  H57      1.0000 0.10600  0.89400  0.25600  Biso   1.000  H
  H58      1.0000 0.89400  0.39400  0.24400  Biso   1.000  H
  H59      1.0000 0.89400  0.10600  0.74400  Biso   1.000  H
  H60      1.0000 0.10600  0.60600  0.75600  Biso   1.000  H
  H61      1.0000 0.13500  0.86900  0.17800  Biso   1.000  H
  H62      1.0000 0.86500  0.36900  0.32200  Biso   1.000  H
  H63      1.0000 0.86500  0.13100  0.82200  Biso   1.000  H
  H64      1.0000 0.13500  0.63100  0.67800  Biso   1.000  H
