data_image0
_cell_length_a       10.328
_cell_length_b       8.082
_cell_length_c       22.896
_cell_angle_alpha    90
_cell_angle_beta     93.609
_cell_angle_gamma    90

_symmetry_space_group_name_H-M    "P 1"
_symmetry_int_tables_number       1

loop_
  _symmetry_equiv_pos_as_xyz
  'x, y, z'

loop_
  _atom_site_label
  _atom_site_occupancy
  _atom_site_fract_x
  _atom_site_fract_y
  _atom_site_fract_z
  _atom_site_thermal_displace_type
  _atom_site_B_iso_or_equiv
  _atom_site_type_symbol
  Cu1      1.0000 0.61243  0.07038  0.58851  Biso   1.000  Cu
  Cu2      1.0000 0.88757  0.57038  0.91149  Biso   1.000  Cu
  Cu3      1.0000 0.38757  0.92962  0.41149  Biso   1.000  Cu
  Cu4      1.0000 0.11243  0.42962  0.08851  Biso   1.000  Cu
  N1       1.0000 0.61130  0.29180  0.62921  Biso   1.000  N
  N2       1.0000 0.88870  0.79180  0.87079  Biso   1.000  N
  N3       1.0000 0.38870  0.70820  0.37079  Biso   1.000  N
  N4       1.0000 0.11130  0.20820  0.12921  Biso   1.000  N
  N5       1.0000 0.98440  0.67130  0.32349  Biso   1.000  N
  N6       1.0000 0.51560  0.17130  0.17651  Biso   1.000  N
  N7       1.0000 0.01560  0.32870  0.67651  Biso   1.000  N
  N8       1.0000 0.48440  0.82870  0.82349  Biso   1.000  N
  N9       1.0000 0.79260  0.95750  0.65028  Biso   1.000  N
  N10      1.0000 0.70740  0.45750  0.84972  Biso   1.000  N
  N11      1.0000 0.20740  0.04250  0.34972  Biso   1.000  N
  N12      1.0000 0.29260  0.54250  0.15028  Biso   1.000  N
  O1       1.0000 0.75080  0.14600  0.54297  Biso   1.000  O
  O2       1.0000 0.74920  0.64600  0.95703  Biso   1.000  O
  O3       1.0000 0.24920  0.85400  0.45703  Biso   1.000  O
  O4       1.0000 0.25080  0.35400  0.04297  Biso   1.000  O
  O5       1.0000 0.63090  0.28950  0.47561  Biso   1.000  O
  O6       1.0000 0.86910  0.78950  0.02439  Biso   1.000  O
  O7       1.0000 0.36910  0.71050  0.52439  Biso   1.000  O
  O8       1.0000 0.13090  0.21050  0.97561  Biso   1.000  O
  O9       1.0000 0.47900  0.98310  0.63513  Biso   1.000  O
  O10      1.0000 0.02100  0.48310  0.86487  Biso   1.000  O
  O11      1.0000 0.52100  0.01690  0.36487  Biso   1.000  O
  O12      1.0000 0.97900  0.51690  0.13513  Biso   1.000  O
  O13      1.0000 0.32540  0.09380  0.57362  Biso   1.000  O
  O14      1.0000 0.17460  0.59380  0.92638  Biso   1.000  O
  O15      1.0000 0.67460  0.90620  0.42638  Biso   1.000  O
  O16      1.0000 0.82540  0.40620  0.07362  Biso   1.000  O
  C1       1.0000 0.73510  0.23930  0.49830  Biso   1.000  C
  C2       1.0000 0.76490  0.73930  0.00170  Biso   1.000  C
  C3       1.0000 0.26490  0.76070  0.50170  Biso   1.000  C
  C4       1.0000 0.23510  0.26070  0.99830  Biso   1.000  C
  C5       1.0000 0.86030  0.29100  0.47287  Biso   1.000  C
  C6       1.0000 0.63970  0.79100  0.02713  Biso   1.000  C
  C7       1.0000 0.13970  0.70900  0.52713  Biso   1.000  C
  C8       1.0000 0.36030  0.20900  0.97287  Biso   1.000  C
  C9       1.0000 0.85960  0.40600  0.42813  Biso   1.000  C
  C10      1.0000 0.64040  0.90600  0.07187  Biso   1.000  C
  C11      1.0000 0.14040  0.59400  0.57187  Biso   1.000  C
  C12      1.0000 0.35960  0.09400  0.92813  Biso   1.000  C
  H1       1.0000 0.78180  0.45170  0.41320  Biso   1.000  H
  H2       1.0000 0.71820  0.95170  0.08680  Biso   1.000  H
  H3       1.0000 0.21820  0.54830  0.58680  Biso   1.000  H
  H4       1.0000 0.28180  0.04830  0.91320  Biso   1.000  H
  C13      1.0000 0.97610  0.45260  0.40576  Biso   1.000  C
  C14      1.0000 0.52390  0.95260  0.09424  Biso   1.000  C
  C15      1.0000 0.02390  0.54740  0.59424  Biso   1.000  C
  C16      1.0000 0.47610  0.04740  0.90576  Biso   1.000  C
  C17      1.0000 0.09340  0.38290  0.42736  Biso   1.000  C
  C18      1.0000 0.40660  0.88290  0.07264  Biso   1.000  C
  C19      1.0000 0.90660  0.61710  0.57264  Biso   1.000  C
  C20      1.0000 0.59340  0.11710  0.92736  Biso   1.000  C
  H5       1.0000 0.17110  0.41480  0.41220  Biso   1.000  H
  H6       1.0000 0.32890  0.91480  0.08780  Biso   1.000  H
  H7       1.0000 0.82890  0.58520  0.58780  Biso   1.000  H
  H8       1.0000 0.67110  0.08520  0.91220  Biso   1.000  H
  C21      1.0000 0.09270  0.26630  0.47138  Biso   1.000  C
  C22      1.0000 0.40730  0.76630  0.02862  Biso   1.000  C
  C23      1.0000 0.90730  0.73370  0.52862  Biso   1.000  C
  C24      1.0000 0.59270  0.23370  0.97138  Biso   1.000  C
  H9       1.0000 0.17010  0.21780  0.48560  Biso   1.000  H
  H10      1.0000 0.32990  0.71780  0.01440  Biso   1.000  H
  H11      1.0000 0.82990  0.78220  0.51440  Biso   1.000  H
  H12      1.0000 0.67010  0.28220  0.98560  Biso   1.000  H
  C25      1.0000 0.97720  0.22150  0.49442  Biso   1.000  C
  C26      1.0000 0.52280  0.72150  0.00558  Biso   1.000  C
  C27      1.0000 0.02280  0.77850  0.50558  Biso   1.000  C
  C28      1.0000 0.47720  0.27850  0.99442  Biso   1.000  C
  H13      1.0000 0.97750  0.14430  0.52460  Biso   1.000  H
  H14      1.0000 0.52250  0.64430  0.97540  Biso   1.000  H
  H15      1.0000 0.02250  0.85570  0.47540  Biso   1.000  H
  H16      1.0000 0.47750  0.35570  0.02460  Biso   1.000  H
  C29      1.0000 0.97870  0.57510  0.35967  Biso   1.000  C
  C30      1.0000 0.52130  0.07510  0.14033  Biso   1.000  C
  C31      1.0000 0.02130  0.42490  0.64033  Biso   1.000  C
  C32      1.0000 0.47870  0.92490  0.85967  Biso   1.000  C
  C33      1.0000 0.36110  0.01300  0.61791  Biso   1.000  C
  C34      1.0000 0.13890  0.51300  0.88209  Biso   1.000  C
  C35      1.0000 0.63890  0.98700  0.38209  Biso   1.000  C
  C36      1.0000 0.86110  0.48700  0.11791  Biso   1.000  C
  C37      1.0000 0.25960  0.94150  0.65510  Biso   1.000  C
  C38      1.0000 0.24040  0.44150  0.84490  Biso   1.000  C
  C39      1.0000 0.74040  0.05850  0.34490  Biso   1.000  C
  C40      1.0000 0.75960  0.55850  0.15510  Biso   1.000  C
  C41      1.0000 0.12960  0.97050  0.64134  Biso   1.000  C
  C42      1.0000 0.37040  0.47050  0.85866  Biso   1.000  C
  C43      1.0000 0.87040  0.02950  0.35866  Biso   1.000  C
  C44      1.0000 0.62960  0.52950  0.14134  Biso   1.000  C
  H17      1.0000 0.10430  0.03480  0.60890  Biso   1.000  H
  H18      1.0000 0.39570  0.53480  0.89110  Biso   1.000  H
  H19      1.0000 0.89570  0.96520  0.39110  Biso   1.000  H
  H20      1.0000 0.60430  0.46520  0.10890  Biso   1.000  H
  C45      1.0000 0.03660  0.90440  0.67557  Biso   1.000  C
  C46      1.0000 0.46340  0.40440  0.82443  Biso   1.000  C
  C47      1.0000 0.96340  0.09560  0.32443  Biso   1.000  C
  C48      1.0000 0.53660  0.59560  0.17557  Biso   1.000  C
  C49      1.0000 0.07370  0.80820  0.72479  Biso   1.000  C
  C50      1.0000 0.42630  0.30820  0.77521  Biso   1.000  C
  C51      1.0000 0.92630  0.19180  0.27521  Biso   1.000  C
  C52      1.0000 0.57370  0.69180  0.22479  Biso   1.000  C
  H21      1.0000 0.01140  0.76350  0.74780  Biso   1.000  H
  H22      1.0000 0.48860  0.26350  0.75220  Biso   1.000  H
  H23      1.0000 0.98860  0.23650  0.25220  Biso   1.000  H
  H24      1.0000 0.51140  0.73650  0.24780  Biso   1.000  H
  C53      1.0000 0.20370  0.78100  0.73851  Biso   1.000  C
  C54      1.0000 0.29630  0.28100  0.76149  Biso   1.000  C
  C55      1.0000 0.79630  0.21900  0.26149  Biso   1.000  C
  C56      1.0000 0.70370  0.71900  0.23851  Biso   1.000  C
  H25      1.0000 0.22910  0.71800  0.77120  Biso   1.000  H
  H26      1.0000 0.27090  0.21800  0.72880  Biso   1.000  H
  H27      1.0000 0.77090  0.28200  0.22880  Biso   1.000  H
  H28      1.0000 0.72910  0.78200  0.27120  Biso   1.000  H
  C57      1.0000 0.29700  0.84630  0.70422  Biso   1.000  C
  C58      1.0000 0.20300  0.34630  0.79578  Biso   1.000  C
  C59      1.0000 0.70300  0.15370  0.29578  Biso   1.000  C
  C60      1.0000 0.79700  0.65370  0.20422  Biso   1.000  C
  H29      1.0000 0.38440  0.82670  0.71390  Biso   1.000  H
  H30      1.0000 0.11560  0.32670  0.78610  Biso   1.000  H
  H31      1.0000 0.61560  0.17330  0.28610  Biso   1.000  H
  H32      1.0000 0.88440  0.67330  0.21390  Biso   1.000  H
  C61      1.0000 0.90020  0.93460  0.66152  Biso   1.000  C
  C62      1.0000 0.59980  0.43460  0.83848  Biso   1.000  C
  C63      1.0000 0.09980  0.06540  0.33848  Biso   1.000  C
  C64      1.0000 0.40020  0.56540  0.16152  Biso   1.000  C
  C65      1.0000 0.52340  0.40750  0.61276  Biso   1.000  C
  C66      1.0000 0.97660  0.90750  0.88724  Biso   1.000  C
  C67      1.0000 0.47660  0.59250  0.38724  Biso   1.000  C
  C68      1.0000 0.02340  0.09250  0.11276  Biso   1.000  C
  H33      1.0000 0.45990  0.38150  0.58360  Biso   1.000  H
  H34      1.0000 0.04010  0.88150  0.91640  Biso   1.000  H
  H35      1.0000 0.54010  0.61850  0.41640  Biso   1.000  H
  H36      1.0000 0.95990  0.11850  0.08360  Biso   1.000  H
  C69      1.0000 0.52300  0.56370  0.63726  Biso   1.000  C
  C70      1.0000 0.97700  0.06370  0.86274  Biso   1.000  C
  C71      1.0000 0.47700  0.43630  0.36274  Biso   1.000  C
  C72      1.0000 0.02300  0.93630  0.13726  Biso   1.000  C
  H37      1.0000 0.46130  0.64140  0.62430  Biso   1.000  H
  H38      1.0000 0.03870  0.14140  0.87570  Biso   1.000  H
  H39      1.0000 0.53870  0.35860  0.37570  Biso   1.000  H
  H40      1.0000 0.96130  0.85860  0.12430  Biso   1.000  H
  C73      1.0000 0.61450  0.60230  0.68084  Biso   1.000  C
  C74      1.0000 0.88550  0.10230  0.81916  Biso   1.000  C
  C75      1.0000 0.38550  0.39770  0.31916  Biso   1.000  C
  C76      1.0000 0.11450  0.89770  0.18084  Biso   1.000  C
  H41      1.0000 0.61530  0.70610  0.69840  Biso   1.000  H
  H42      1.0000 0.88470  0.20610  0.80160  Biso   1.000  H
  H43      1.0000 0.38470  0.29390  0.30160  Biso   1.000  H
  H44      1.0000 0.11530  0.79390  0.19840  Biso   1.000  H
  C77      1.0000 0.70610  0.48410  0.69834  Biso   1.000  C
  C78      1.0000 0.79390  0.98410  0.80166  Biso   1.000  C
  C79      1.0000 0.29390  0.51590  0.30166  Biso   1.000  C
  C80      1.0000 0.20610  0.01590  0.19834  Biso   1.000  C
  H45      1.0000 0.77040  0.50770  0.72740  Biso   1.000  H
  H46      1.0000 0.72960  0.00770  0.77260  Biso   1.000  H
  H47      1.0000 0.22960  0.49230  0.27260  Biso   1.000  H
  H48      1.0000 0.27040  0.99230  0.22740  Biso   1.000  H
  C81      1.0000 0.70020  0.33010  0.67179  Biso   1.000  C
  C82      1.0000 0.79980  0.83010  0.82821  Biso   1.000  C
  C83      1.0000 0.29980  0.66990  0.32821  Biso   1.000  C
  C84      1.0000 0.20020  0.16990  0.17179  Biso   1.000  C
  H49      1.0000 0.76070  0.25030  0.68420  Biso   1.000  H
  H50      1.0000 0.73930  0.75030  0.81580  Biso   1.000  H
  H51      1.0000 0.23930  0.74970  0.31580  Biso   1.000  H
  H52      1.0000 0.26070  0.24970  0.18420  Biso   1.000  H
  O17      1.0000 0.59430  0.87530  0.53686  Biso   1.000  O
  O18      1.0000 0.90570  0.37530  0.96314  Biso   1.000  O
  O19      1.0000 0.40570  0.12470  0.46314  Biso   1.000  O
  O20      1.0000 0.09430  0.62470  0.03686  Biso   1.000  O
  H53      1.0000 0.51410  0.85100  0.53740  Biso   1.000  H
  H54      1.0000 0.98590  0.35100  0.96260  Biso   1.000  H
  H55      1.0000 0.48590  0.14900  0.46260  Biso   1.000  H
  H56      1.0000 0.01410  0.64900  0.03740  Biso   1.000  H
  H57      1.0000 0.61100  0.88600  0.50090  Biso   1.000  H
  H58      1.0000 0.88900  0.38600  0.99910  Biso   1.000  H
  H59      1.0000 0.38900  0.11400  0.49910  Biso   1.000  H
  H60      1.0000 0.11100  0.61400  0.00090  Biso   1.000  H
