data_image0
_cell_length_a       5.94
_cell_length_b       8.214
_cell_length_c       19.44
_cell_angle_alpha    90
_cell_angle_beta     92.18
_cell_angle_gamma    90

_symmetry_space_group_name_H-M    "P 1"
_symmetry_int_tables_number       1

loop_
  _symmetry_equiv_pos_as_xyz
  'x, y, z'

loop_
  _atom_site_label
  _atom_site_occupancy
  _atom_site_fract_x
  _atom_site_fract_y
  _atom_site_fract_z
  _atom_site_thermal_displace_type
  _atom_site_B_iso_or_equiv
  _atom_site_type_symbol
  Cu1      1.0000 0.50305  0.25401  0.07824  Biso   1.000  Cu
  Cu2      1.0000 0.99695  0.75401  0.42176  Biso   1.000  Cu
  Cu3      1.0000 0.49695  0.74599  0.92176  Biso   1.000  Cu
  Cu4      1.0000 0.00305  0.24599  0.57824  Biso   1.000  Cu
  O1       1.0000 0.79240  0.37460  0.08189  Biso   1.000  O
  O2       1.0000 0.70760  0.87460  0.41811  Biso   1.000  O
  O3       1.0000 0.20760  0.62540  0.91811  Biso   1.000  O
  O4       1.0000 0.29240  0.12540  0.58189  Biso   1.000  O
  O5       1.0000 0.21150  0.13610  0.08253  Biso   1.000  O
  O6       1.0000 0.28850  0.63610  0.41747  Biso   1.000  O
  O7       1.0000 0.78850  0.86390  0.91747  Biso   1.000  O
  O8       1.0000 0.71150  0.36390  0.58253  Biso   1.000  O
  O9       1.0000 0.70430  0.00300  0.07239  Biso   1.000  O
  O10      1.0000 0.79570  0.50300  0.42761  Biso   1.000  O
  O11      1.0000 0.29570  0.99700  0.92761  Biso   1.000  O
  O12      1.0000 0.20430  0.49700  0.57239  Biso   1.000  O
  O13      1.0000 0.29340  0.51430  0.07945  Biso   1.000  O
  O14      1.0000 0.20660  0.01430  0.42055  Biso   1.000  O
  O15      1.0000 0.70660  0.48570  0.92055  Biso   1.000  O
  O16      1.0000 0.79340  0.98570  0.57945  Biso   1.000  O
  N1       1.0000 0.51770  0.25050  0.18011  Biso   1.000  N
  N2       1.0000 0.98230  0.75050  0.31989  Biso   1.000  N
  N3       1.0000 0.48230  0.74950  0.81989  Biso   1.000  N
  N4       1.0000 0.01770  0.24950  0.68011  Biso   1.000  N
  O17      1.0000 0.47530  0.26160  0.97888  Biso   1.000  O
  O18      1.0000 0.02470  0.76160  0.52112  Biso   1.000  O
  O19      1.0000 0.52470  0.73840  0.02112  Biso   1.000  O
  O20      1.0000 0.97530  0.23840  0.47888  Biso   1.000  O
  C1       1.0000 0.13400  0.50670  0.03585  Biso   1.000  C
  C2       1.0000 0.36600  0.00670  0.46415  Biso   1.000  C
  C3       1.0000 0.86600  0.49330  0.96415  Biso   1.000  C
  C4       1.0000 0.63400  0.99330  0.53585  Biso   1.000  C
  C5       1.0000 0.09770  0.06270  0.03629  Biso   1.000  C
  C6       1.0000 0.40230  0.56270  0.46371  Biso   1.000  C
  C7       1.0000 0.90230  0.93730  0.96371  Biso   1.000  C
  C8       1.0000 0.59770  0.43730  0.53629  Biso   1.000  C
  C9       1.0000 0.86680  0.00130  0.03258  Biso   1.000  C
  C10      1.0000 0.63320  0.50130  0.46742  Biso   1.000  C
  C11      1.0000 0.13320  0.99870  0.96742  Biso   1.000  C
  C12      1.0000 0.36680  0.49870  0.53258  Biso   1.000  C
  C13      1.0000 0.90340  0.44220  0.03574  Biso   1.000  C
  C14      1.0000 0.59660  0.94220  0.46426  Biso   1.000  C
  C15      1.0000 0.09660  0.55780  0.96426  Biso   1.000  C
  C16      1.0000 0.40340  0.05780  0.53574  Biso   1.000  C
  C17      1.0000 0.53840  0.24030  0.32270  Biso   1.000  C
  C18      1.0000 0.96160  0.74030  0.17730  Biso   1.000  C
  C19      1.0000 0.46160  0.75970  0.67730  Biso   1.000  C
  C20      1.0000 0.03840  0.25970  0.82270  Biso   1.000  C
  H1       1.0000 0.54490  0.23710  0.37060  Biso   1.000  H
  H2       1.0000 0.95510  0.73710  0.12940  Biso   1.000  H
  H3       1.0000 0.45510  0.76290  0.62940  Biso   1.000  H
  H4       1.0000 0.04490  0.26290  0.87060  Biso   1.000  H
  C21      1.0000 0.34910  0.31100  0.21650  Biso   1.000  C
  C22      1.0000 0.15090  0.81100  0.28350  Biso   1.000  C
  C23      1.0000 0.65090  0.68900  0.78350  Biso   1.000  C
  C24      1.0000 0.84910  0.18900  0.71650  Biso   1.000  C
  H5       1.0000 0.22440  0.35640  0.19330  Biso   1.000  H
  H6       1.0000 0.27560  0.85640  0.30670  Biso   1.000  H
  H7       1.0000 0.77560  0.64360  0.80670  Biso   1.000  H
  H8       1.0000 0.72440  0.14360  0.69330  Biso   1.000  H
  C25      1.0000 0.69430  0.18720  0.21450  Biso   1.000  C
  C26      1.0000 0.80570  0.68720  0.28550  Biso   1.000  C
  C27      1.0000 0.30570  0.81280  0.78550  Biso   1.000  C
  C28      1.0000 0.19430  0.31280  0.71450  Biso   1.000  C
  H9       1.0000 0.81290  0.14730  0.18950  Biso   1.000  H
  H10      1.0000 0.68710  0.64730  0.31050  Biso   1.000  H
  H11      1.0000 0.18710  0.85270  0.81050  Biso   1.000  H
  H12      1.0000 0.31290  0.35270  0.68950  Biso   1.000  H
  C29      1.0000 0.35730  0.30740  0.28790  Biso   1.000  C
  C30      1.0000 0.14270  0.80740  0.21210  Biso   1.000  C
  C31      1.0000 0.64270  0.69260  0.71210  Biso   1.000  C
  C32      1.0000 0.85730  0.19260  0.78790  Biso   1.000  C
  H13      1.0000 0.23920  0.35080  0.31200  Biso   1.000  H
  H14      1.0000 0.26080  0.85080  0.18800  Biso   1.000  H
  H15      1.0000 0.76080  0.64920  0.68800  Biso   1.000  H
  H16      1.0000 0.73920  0.14920  0.81200  Biso   1.000  H
  C33      1.0000 0.71080  0.17750  0.28570  Biso   1.000  C
  C34      1.0000 0.78920  0.67750  0.21430  Biso   1.000  C
  C35      1.0000 0.28920  0.82250  0.71430  Biso   1.000  C
  C36      1.0000 0.21080  0.32250  0.78570  Biso   1.000  C
  H17      1.0000 0.83560  0.12970  0.30780  Biso   1.000  H
  H18      1.0000 0.66440  0.62970  0.19220  Biso   1.000  H
  H19      1.0000 0.16440  0.87030  0.69220  Biso   1.000  H
  H20      1.0000 0.33560  0.37030  0.80780  Biso   1.000  H
  H21      1.0000 0.44300  0.18500  0.96000  Biso   1.000  H
  H22      1.0000 0.05700  0.68500  0.54000  Biso   1.000  H
  H23      1.0000 0.55700  0.81500  0.04000  Biso   1.000  H
  H24      1.0000 0.94300  0.31500  0.46000  Biso   1.000  H
  H25      1.0000 0.53400  0.31700  0.95800  Biso   1.000  H
  H26      1.0000 0.96600  0.81700  0.54200  Biso   1.000  H
  H27      1.0000 0.46600  0.68300  0.04200  Biso   1.000  H
  H28      1.0000 0.03400  0.18300  0.45800  Biso   1.000  H
