data_image0
_cell_length_a       11.2341
_cell_length_b       6.7272
_cell_length_c       7.2149
_cell_angle_alpha    90
_cell_angle_beta     104.718
_cell_angle_gamma    90

_symmetry_space_group_name_H-M    "P 1"
_symmetry_int_tables_number       1

loop_
  _symmetry_equiv_pos_as_xyz
  'x, y, z'

loop_
  _atom_site_label
  _atom_site_occupancy
  _atom_site_fract_x
  _atom_site_fract_y
  _atom_site_fract_z
  _atom_site_thermal_displace_type
  _atom_site_B_iso_or_equiv
  _atom_site_type_symbol
  Cu1      1.0000 0.50000  0.00000  0.00000  Biso   1.000  Cu
  Cu2      1.0000 0.50000  0.50000  0.50000  Biso   1.000  Cu
  Cl1      1.0000 0.42250  0.21100  0.75560  Biso   1.000  Cl
  Cl2      1.0000 0.57750  0.71100  0.74440  Biso   1.000  Cl
  Cl3      1.0000 0.57750  0.78900  0.24440  Biso   1.000  Cl
  Cl4      1.0000 0.42250  0.28900  0.25560  Biso   1.000  Cl
  N1       1.0000 0.80000  0.38500  0.12500  Biso   1.000  N
  N2       1.0000 0.20000  0.88500  0.37500  Biso   1.000  N
  N3       1.0000 0.20000  0.61500  0.87500  Biso   1.000  N
  N4       1.0000 0.80000  0.11500  0.62500  Biso   1.000  N
  N5       1.0000 0.84100  0.22300  0.05400  Biso   1.000  N
  N6       1.0000 0.15900  0.72300  0.44600  Biso   1.000  N
  N7       1.0000 0.15900  0.77700  0.94600  Biso   1.000  N
  N8       1.0000 0.84100  0.27700  0.55400  Biso   1.000  N
  N9       1.0000 0.78000  0.05600  0.06200  Biso   1.000  N
  N10      1.0000 0.22000  0.55600  0.43800  Biso   1.000  N
  N11      1.0000 0.22000  0.94400  0.93800  Biso   1.000  N
  N12      1.0000 0.78000  0.44400  0.56200  Biso   1.000  N
  N13      1.0000 0.67600  0.16200  0.06100  Biso   1.000  N
  N14      1.0000 0.32400  0.66200  0.43900  Biso   1.000  N
  N15      1.0000 0.32400  0.83800  0.93900  Biso   1.000  N
  N16      1.0000 0.67600  0.33800  0.56100  Biso   1.000  N
  C1       1.0000 0.67800  0.34700  0.06400  Biso   1.000  C
  C2       1.0000 0.32200  0.84700  0.43600  Biso   1.000  C
  C3       1.0000 0.32200  0.65300  0.93600  Biso   1.000  C
  C4       1.0000 0.67800  0.15300  0.56400  Biso   1.000  C
  H1       1.0000 0.61100  0.49900  0.03900  Biso   1.000  H
  H2       1.0000 0.38900  0.99900  0.46100  Biso   1.000  H
  H3       1.0000 0.38900  0.50100  0.96100  Biso   1.000  H
  H4       1.0000 0.61100  0.00100  0.53900  Biso   1.000  H
  C5       1.0000 0.84800  0.57500  0.10800  Biso   1.000  C
  C6       1.0000 0.15200  0.07500  0.39200  Biso   1.000  C
  C7       1.0000 0.15200  0.42500  0.89200  Biso   1.000  C
  C8       1.0000 0.84800  0.92500  0.60800  Biso   1.000  C
  H5       1.0000 0.93600  0.57600  0.15200  Biso   1.000  H
  H6       1.0000 0.06400  0.07600  0.34800  Biso   1.000  H
  H7       1.0000 0.06400  0.42400  0.84800  Biso   1.000  H
  H8       1.0000 0.93600  0.92400  0.65200  Biso   1.000  H
  H9       1.0000 0.82500  0.61700  0.97400  Biso   1.000  H
  H10      1.0000 0.17500  0.11700  0.52600  Biso   1.000  H
  H11      1.0000 0.17500  0.38300  0.02600  Biso   1.000  H
  H12      1.0000 0.82500  0.88300  0.47400  Biso   1.000  H
  H13      1.0000 0.81400  0.67000  0.18000  Biso   1.000  H
  H14      1.0000 0.18600  0.17000  0.32000  Biso   1.000  H
  H15      1.0000 0.18600  0.33000  0.82000  Biso   1.000  H
  H16      1.0000 0.81400  0.83000  0.68000  Biso   1.000  H
