data_image0
_cell_length_a       8.689
_cell_length_b       9.7518
_cell_length_c       10.2035
_cell_angle_alpha    116.398
_cell_angle_beta     99.417
_cell_angle_gamma    97.919

_symmetry_space_group_name_H-M    "P 1"
_symmetry_int_tables_number       1

loop_
  _symmetry_equiv_pos_as_xyz
  'x, y, z'

loop_
  _atom_site_label
  _atom_site_occupancy
  _atom_site_fract_x
  _atom_site_fract_y
  _atom_site_fract_z
  _atom_site_thermal_displace_type
  _atom_site_B_iso_or_equiv
  _atom_site_type_symbol
  Cu1      1.0000 0.50000  0.50000  0.00000  Biso   1.000  Cu
  C1       1.0000 0.20400  0.52130  0.12100  Biso   1.000  C
  C2       1.0000 0.79600  0.47870  0.87900  Biso   1.000  C
  H1       1.0000 0.17030  0.41590  0.04730  Biso   1.000  H
  H2       1.0000 0.82970  0.58410  0.95270  Biso   1.000  H
  C3       1.0000 0.09570  0.59090  0.19780  Biso   1.000  C
  C4       1.0000 0.90430  0.40910  0.80220  Biso   1.000  C
  H3       1.0000 0.99210  0.53270  0.17640  Biso   1.000  H
  H4       1.0000 0.00790  0.46730  0.82360  Biso   1.000  H
  C5       1.0000 0.14250  0.74800  0.30690  Biso   1.000  C
  C6       1.0000 0.85750  0.25200  0.69310  Biso   1.000  C
  C7       1.0000 0.30220  0.82510  0.33990  Biso   1.000  C
  C8       1.0000 0.69780  0.17490  0.66010  Biso   1.000  C
  H5       1.0000 0.34060  0.92900  0.41630  Biso   1.000  H
  H6       1.0000 0.65940  0.07100  0.58370  Biso   1.000  H
  C9       1.0000 0.40240  0.74700  0.25900  Biso   1.000  C
  C10      1.0000 0.59760  0.25300  0.74100  Biso   1.000  C
  H7       1.0000 0.50880  0.80020  0.28290  Biso   1.000  H
  H8       1.0000 0.49120  0.19980  0.71710  Biso   1.000  H
  C11      1.0000 0.02480  0.82770  0.37760  Biso   1.000  C
  C12      1.0000 0.97520  0.17230  0.62240  Biso   1.000  C
  H9       1.0000 0.91900  0.77170  0.35090  Biso   1.000  H
  H10      1.0000 0.08100  0.22830  0.64910  Biso   1.000  H
  S1       1.0000 0.18025  0.98467  0.82297  Biso   1.000  S
  S2       1.0000 0.81975  0.01533  0.17703  Biso   1.000  S
  C13      1.0000 0.09850  0.83110  0.84630  Biso   1.000  C
  C14      1.0000 0.90150  0.16890  0.15370  Biso   1.000  C
  H11      1.0000 0.01960  0.74400  0.77170  Biso   1.000  H
  H12      1.0000 0.98040  0.25600  0.22830  Biso   1.000  H
  C15      1.0000 0.15890  0.84850  0.98180  Biso   1.000  C
  C16      1.0000 0.84110  0.15150  0.01820  Biso   1.000  C
  H13      1.0000 0.13100  0.77450  0.01320  Biso   1.000  H
  H14      1.0000 0.86900  0.22550  0.98680  Biso   1.000  H
  C17      1.0000 0.27340  0.99730  0.07390  Biso   1.000  C
  C18      1.0000 0.72660  0.00270  0.92610  Biso   1.000  C
  H15      1.0000 0.32460  0.03240  0.17450  Biso   1.000  H
  H16      1.0000 0.67540  0.96760  0.82550  Biso   1.000  H
  C19      1.0000 0.29980  0.08060  0.00230  Biso   1.000  C
  C20      1.0000 0.70020  0.91940  0.99770  Biso   1.000  C
  S3       1.0000 0.28970  0.98890  0.10910  Biso   1.000  S
  S4       1.0000 0.71030  0.01110  0.89090  Biso   1.000  S
  C21      1.0000 0.12500  0.84900  0.98000  Biso   1.000  C
  C22      1.0000 0.87500  0.15100  0.02000  Biso   1.000  C
  H17      1.0000 0.06650  0.77320  0.99550  Biso   1.000  H
  H18      1.0000 0.93350  0.22680  0.00450  Biso   1.000  H
  C23      1.0000 0.08900  0.86000  0.85400  Biso   1.000  C
  C24      1.0000 0.91100  0.14000  0.14600  Biso   1.000  C
  H19      1.0000 0.00790  0.79000  0.76910  Biso   1.000  H
  H20      1.0000 0.99210  0.21000  0.23090  Biso   1.000  H
  C25      1.0000 0.19400  0.99700  0.86820  Biso   1.000  C
  C26      1.0000 0.80600  0.00300  0.13180  Biso   1.000  C
  H21      1.0000 0.18830  0.02330  0.79100  Biso   1.000  H
  H22      1.0000 0.81170  0.97670  0.20900  Biso   1.000  H
  C27      1.0000 0.40940  0.23330  0.05500  Biso   1.000  C
  C28      1.0000 0.59060  0.76670  0.94500  Biso   1.000  C
  C29      1.0000 0.50980  0.31020  0.20100  Biso   1.000  C
  C30      1.0000 0.49020  0.68980  0.79900  Biso   1.000  C
  H23      1.0000 0.49560  0.26650  0.26400  Biso   1.000  H
  H24      1.0000 0.50440  0.73350  0.73600  Biso   1.000  H
  C31      1.0000 0.62910  0.44680  0.25920  Biso   1.000  C
  C32      1.0000 0.37090  0.55320  0.74080  Biso   1.000  C
  C33      1.0000 0.72350  0.51710  0.42380  Biso   1.000  C
  C34      1.0000 0.27650  0.48290  0.57620  Biso   1.000  C
  F1       1.0000 0.69290  0.43150  0.48830  Biso   1.000  F
  F2       1.0000 0.30710  0.56850  0.51170  Biso   1.000  F
  F3       1.0000 0.69610  0.65680  0.50640  Biso   1.000  F
  F4       1.0000 0.30390  0.34320  0.49360  Biso   1.000  F
  F5       1.0000 0.88030  0.54710  0.43600  Biso   1.000  F
  F6       1.0000 0.11970  0.45290  0.56400  Biso   1.000  F
  N1       1.0000 0.35440  0.59740  0.14690  Biso   1.000  N
  N2       1.0000 0.64560  0.40260  0.85310  Biso   1.000  N
  N3       1.0000 0.06530  0.97170  0.47460  Biso   1.000  N
  N4       1.0000 0.93470  0.02830  0.52540  Biso   1.000  N
  O1       1.0000 0.40210  0.28584  0.96104  Biso   1.000  O
  O2       1.0000 0.59790  0.71416  0.03896  Biso   1.000  O
  O3       1.0000 0.67280  0.52570  0.19690  Biso   1.000  O
  O4       1.0000 0.32720  0.47430  0.80310  Biso   1.000  O
