data_image0
_cell_length_a       6.7685
_cell_length_b       32.2337
_cell_length_c       8.173
_cell_angle_alpha    90
_cell_angle_beta     111.578
_cell_angle_gamma    90

_symmetry_space_group_name_H-M    "P 1"
_symmetry_int_tables_number       1

loop_
  _symmetry_equiv_pos_as_xyz
  'x, y, z'

loop_
  _atom_site_label
  _atom_site_occupancy
  _atom_site_fract_x
  _atom_site_fract_y
  _atom_site_fract_z
  _atom_site_thermal_displace_type
  _atom_site_B_iso_or_equiv
  _atom_site_type_symbol
  Ce1      1.0000 0.03834  0.15724  0.33368  Biso   1.000  Ce
  Ce2      1.0000 0.96166  0.65724  0.16632  Biso   1.000  Ce
  Ce3      1.0000 0.96166  0.84276  0.66632  Biso   1.000  Ce
  Ce4      1.0000 0.03834  0.34276  0.83368  Biso   1.000  Ce
  Cu1      1.0000 0.00000  0.00000  0.00000  Biso   1.000  Cu
  Cu2      1.0000 0.00000  0.50000  0.50000  Biso   1.000  Cu
  O1       1.0000 0.26880  0.21840  0.37810  Biso   1.000  O
  O2       1.0000 0.73120  0.71840  0.12190  Biso   1.000  O
  O3       1.0000 0.73120  0.78160  0.62190  Biso   1.000  O
  O4       1.0000 0.26880  0.28160  0.87810  Biso   1.000  O
  O5       1.0000 0.68190  0.19640  0.72300  Biso   1.000  O
  O6       1.0000 0.31810  0.69640  0.77700  Biso   1.000  O
  O7       1.0000 0.31810  0.80360  0.27700  Biso   1.000  O
  O8       1.0000 0.68190  0.30360  0.22300  Biso   1.000  O
  O9       1.0000 0.75660  0.29400  0.81340  Biso   1.000  O
  O10      1.0000 0.24340  0.79400  0.68660  Biso   1.000  O
  O11      1.0000 0.24340  0.70600  0.18660  Biso   1.000  O
  O12      1.0000 0.75660  0.20600  0.31340  Biso   1.000  O
  O13      1.0000 0.38310  0.31700  0.44470  Biso   1.000  O
  O14      1.0000 0.61690  0.81700  0.05530  Biso   1.000  O
  O15      1.0000 0.61690  0.68300  0.55530  Biso   1.000  O
  O16      1.0000 0.38310  0.18300  0.94470  Biso   1.000  O
  O17      1.0000 0.10140  0.98250  0.24640  Biso   1.000  O
  O18      1.0000 0.89860  0.48250  0.25360  Biso   1.000  O
  O19      1.0000 0.89860  0.01750  0.75360  Biso   1.000  O
  O20      1.0000 0.10140  0.51750  0.74640  Biso   1.000  O
  O21      1.0000 0.07240  0.07920  0.34330  Biso   1.000  O
  O22      1.0000 0.92760  0.57920  0.15670  Biso   1.000  O
  O23      1.0000 0.92760  0.92080  0.65670  Biso   1.000  O
  O24      1.0000 0.07240  0.42080  0.84330  Biso   1.000  O
  O25      1.0000 0.39700  0.06010  0.74570  Biso   1.000  O
  O26      1.0000 0.60300  0.56010  0.75430  Biso   1.000  O
  O27      1.0000 0.60300  0.93990  0.25430  Biso   1.000  O
  O28      1.0000 0.39700  0.43990  0.24570  Biso   1.000  O
  O29      1.0000 0.37310  0.96200  0.64920  Biso   1.000  O
  O30      1.0000 0.62690  0.46200  0.85080  Biso   1.000  O
  O31      1.0000 0.62690  0.03800  0.35080  Biso   1.000  O
  O32      1.0000 0.37310  0.53800  0.14920  Biso   1.000  O
  O33      1.0000 0.97900  0.20590  0.06060  Biso   1.000  O
  O34      1.0000 0.02100  0.70590  0.43940  Biso   1.000  O
  O35      1.0000 0.02100  0.79410  0.93940  Biso   1.000  O
  O36      1.0000 0.97900  0.29410  0.56060  Biso   1.000  O
  O37      1.0000 0.38320  0.13640  0.57740  Biso   1.000  O
  O38      1.0000 0.61680  0.63640  0.92260  Biso   1.000  O
  O39      1.0000 0.61680  0.86360  0.42260  Biso   1.000  O
  O40      1.0000 0.38320  0.36360  0.07740  Biso   1.000  O
  O41      1.0000 0.27000  0.13260  0.17170  Biso   1.000  O
  O42      1.0000 0.73000  0.63260  0.32830  Biso   1.000  O
  O43      1.0000 0.73000  0.86740  0.82830  Biso   1.000  O
  O44      1.0000 0.27000  0.36740  0.67170  Biso   1.000  O
  O45      1.0000 0.75210  0.12970  0.04790  Biso   1.000  O
  O46      1.0000 0.24790  0.62970  0.45210  Biso   1.000  O
  O47      1.0000 0.24790  0.87030  0.95210  Biso   1.000  O
  O48      1.0000 0.75210  0.37030  0.54790  Biso   1.000  O
  O49      1.0000 0.74150  0.12030  0.41270  Biso   1.000  O
  O50      1.0000 0.25850  0.62030  0.08730  Biso   1.000  O
  O51      1.0000 0.25850  0.87970  0.58730  Biso   1.000  O
  O52      1.0000 0.74150  0.37970  0.91270  Biso   1.000  O
  O53      1.0000 0.05740  0.18730  0.63010  Biso   1.000  O
  O54      1.0000 0.94260  0.68730  0.86990  Biso   1.000  O
  O55      1.0000 0.94260  0.81270  0.36990  Biso   1.000  O
  O56      1.0000 0.05740  0.31270  0.13010  Biso   1.000  O
  O57      1.0000 0.78750  0.03790  0.03400  Biso   1.000  O
  O58      1.0000 0.21250  0.53790  0.46600  Biso   1.000  O
  O59      1.0000 0.21250  0.96210  0.96600  Biso   1.000  O
  O60      1.0000 0.78750  0.46210  0.53400  Biso   1.000  O
  O61      1.0000 0.27760  0.05180  0.05580  Biso   1.000  O
  O62      1.0000 0.72240  0.55180  0.44420  Biso   1.000  O
  O63      1.0000 0.72240  0.94820  0.94420  Biso   1.000  O
  O64      1.0000 0.27760  0.44820  0.55580  Biso   1.000  O
  C1       1.0000 0.40810  0.23930  0.49420  Biso   1.000  C
  C2       1.0000 0.59190  0.73930  0.00580  Biso   1.000  C
  C3       1.0000 0.59190  0.76070  0.50580  Biso   1.000  C
  C4       1.0000 0.40810  0.26070  0.99420  Biso   1.000  C
  C5       1.0000 0.58910  0.22960  0.65060  Biso   1.000  C
  C6       1.0000 0.41090  0.72960  0.84940  Biso   1.000  C
  C7       1.0000 0.41090  0.77040  0.34940  Biso   1.000  C
  C8       1.0000 0.58910  0.27040  0.15060  Biso   1.000  C
  C9       1.0000 0.62680  0.27330  0.68870  Biso   1.000  C
  C10      1.0000 0.37320  0.77330  0.81130  Biso   1.000  C
  C11      1.0000 0.37320  0.72670  0.31130  Biso   1.000  C
  C12      1.0000 0.62680  0.22670  0.18870  Biso   1.000  C
  C13      1.0000 0.45420  0.28340  0.52480  Biso   1.000  C
  C14      1.0000 0.54580  0.78340  0.97520  Biso   1.000  C
  C15      1.0000 0.54580  0.71660  0.47520  Biso   1.000  C
  C16      1.0000 0.45420  0.21660  0.02480  Biso   1.000  C
  C17      1.0000 0.16980  0.00440  0.38300  Biso   1.000  C
  C18      1.0000 0.83020  0.50440  0.11700  Biso   1.000  C
  C19      1.0000 0.83020  0.99560  0.61700  Biso   1.000  C
  C20      1.0000 0.16980  0.49560  0.88300  Biso   1.000  C
  C21      1.0000 0.16540  0.04780  0.42740  Biso   1.000  C
  C22      1.0000 0.83460  0.54780  0.07260  Biso   1.000  C
  C23      1.0000 0.83460  0.95220  0.57260  Biso   1.000  C
  C24      1.0000 0.16540  0.45220  0.92740  Biso   1.000  C
  C25      1.0000 0.30720  0.03880  0.61080  Biso   1.000  C
  C26      1.0000 0.69280  0.53880  0.88920  Biso   1.000  C
  C27      1.0000 0.69280  0.96120  0.38920  Biso   1.000  C
  C28      1.0000 0.30720  0.46120  0.11080  Biso   1.000  C
  C29      1.0000 0.29750  0.99470  0.56670  Biso   1.000  C
  C30      1.0000 0.70250  0.49470  0.93330  Biso   1.000  C
  C31      1.0000 0.70250  0.00530  0.43330  Biso   1.000  C
  C32      1.0000 0.29750  0.50530  0.06670  Biso   1.000  C
  H1       1.0000 0.96410  0.18900  0.95690  Biso   1.000  H
  H2       1.0000 0.03590  0.68900  0.54310  Biso   1.000  H
  H3       1.0000 0.03590  0.81100  0.04310  Biso   1.000  H
  H4       1.0000 0.96410  0.31100  0.45690  Biso   1.000  H
  H5       1.0000 0.10070  0.22410  0.08420  Biso   1.000  H
  H6       1.0000 0.89930  0.72410  0.41580  Biso   1.000  H
  H7       1.0000 0.89930  0.77590  0.91580  Biso   1.000  H
  H8       1.0000 0.10070  0.27590  0.58420  Biso   1.000  H
  H9       1.0000 0.49610  0.15570  0.64110  Biso   1.000  H
  H10      1.0000 0.50390  0.65570  0.85890  Biso   1.000  H
  H11      1.0000 0.50390  0.84430  0.35890  Biso   1.000  H
  H12      1.0000 0.49610  0.34430  0.14110  Biso   1.000  H
  H13      1.0000 0.40430  0.11100  0.64560  Biso   1.000  H
  H14      1.0000 0.59570  0.61100  0.85440  Biso   1.000  H
  H15      1.0000 0.59570  0.88900  0.35440  Biso   1.000  H
  H16      1.0000 0.40430  0.38900  0.14560  Biso   1.000  H
  H17      1.0000 0.22840  0.10400  0.14330  Biso   1.000  H
  H18      1.0000 0.77160  0.60400  0.35670  Biso   1.000  H
  H19      1.0000 0.77160  0.89600  0.85670  Biso   1.000  H
  H20      1.0000 0.22840  0.39600  0.64330  Biso   1.000  H
  H21      1.0000 0.26060  0.14660  0.06320  Biso   1.000  H
  H22      1.0000 0.73940  0.64660  0.43680  Biso   1.000  H
  H23      1.0000 0.73940  0.85340  0.93680  Biso   1.000  H
  H24      1.0000 0.26060  0.35340  0.56320  Biso   1.000  H
  H25      1.0000 0.80520  0.13810  0.95630  Biso   1.000  H
  H26      1.0000 0.19480  0.63810  0.54370  Biso   1.000  H
  H27      1.0000 0.19480  0.86190  0.04370  Biso   1.000  H
  H28      1.0000 0.80520  0.36190  0.45630  Biso   1.000  H
  H29      1.0000 0.63400  0.14800  0.03890  Biso   1.000  H
  H30      1.0000 0.36600  0.64800  0.46110  Biso   1.000  H
  H31      1.0000 0.36600  0.85200  0.96110  Biso   1.000  H
  H32      1.0000 0.63400  0.35200  0.53890  Biso   1.000  H
  H33      1.0000 0.76290  0.09080  0.39960  Biso   1.000  H
  H34      1.0000 0.23710  0.59080  0.10040  Biso   1.000  H
  H35      1.0000 0.23710  0.90920  0.60040  Biso   1.000  H
  H36      1.0000 0.76290  0.40920  0.89960  Biso   1.000  H
  H37      1.0000 0.78190  0.12460  0.53940  Biso   1.000  H
  H38      1.0000 0.21810  0.62460  0.96060  Biso   1.000  H
  H39      1.0000 0.21810  0.87540  0.46060  Biso   1.000  H
  H40      1.0000 0.78190  0.37540  0.03940  Biso   1.000  H
  H41      1.0000 0.15370  0.17040  0.72370  Biso   1.000  H
  H42      1.0000 0.84630  0.67040  0.77630  Biso   1.000  H
  H43      1.0000 0.84630  0.82960  0.27630  Biso   1.000  H
  H44      1.0000 0.15370  0.32960  0.22370  Biso   1.000  H
  H45      1.0000 0.91950  0.18780  0.64100  Biso   1.000  H
  H46      1.0000 0.08050  0.68780  0.85900  Biso   1.000  H
  H47      1.0000 0.08050  0.81220  0.35900  Biso   1.000  H
  H48      1.0000 0.91950  0.31220  0.14100  Biso   1.000  H
  H49      1.0000 0.71750  0.05410  0.92660  Biso   1.000  H
  H50      1.0000 0.28250  0.55410  0.57340  Biso   1.000  H
  H51      1.0000 0.28250  0.94590  0.07340  Biso   1.000  H
  H52      1.0000 0.71750  0.44590  0.42660  Biso   1.000  H
  H53      1.0000 0.85740  0.05680  0.13020  Biso   1.000  H
  H54      1.0000 0.14260  0.55680  0.36980  Biso   1.000  H
  H55      1.0000 0.14260  0.94320  0.86980  Biso   1.000  H
  H56      1.0000 0.85740  0.44320  0.63020  Biso   1.000  H
  H57      1.0000 0.28960  0.05990  0.94510  Biso   1.000  H
  H58      1.0000 0.71040  0.55990  0.55490  Biso   1.000  H
  H59      1.0000 0.71040  0.94010  0.05490  Biso   1.000  H
  H60      1.0000 0.28960  0.44010  0.44510  Biso   1.000  H
  H61      1.0000 0.42050  0.04460  0.13750  Biso   1.000  H
  H62      1.0000 0.57950  0.54460  0.36250  Biso   1.000  H
  H63      1.0000 0.57950  0.95540  0.86250  Biso   1.000  H
  H64      1.0000 0.42050  0.45540  0.63750  Biso   1.000  H
  O65      1.0000 0.89820  0.10700  0.79560  Biso   1.000  O
  O66      1.0000 0.10180  0.60700  0.70440  Biso   1.000  O
  O67      1.0000 0.10180  0.89300  0.20440  Biso   1.000  O
  O68      1.0000 0.89820  0.39300  0.29560  Biso   1.000  O
  H65      1.0000 0.87280  0.07700  0.80340  Biso   1.000  H
  H66      1.0000 0.12720  0.57700  0.69660  Biso   1.000  H
  H67      1.0000 0.12720  0.92300  0.19660  Biso   1.000  H
  H68      1.0000 0.87280  0.42300  0.30340  Biso   1.000  H
  H69      1.0000 0.85270  0.11370  0.67040  Biso   1.000  H
  H70      1.0000 0.14730  0.61370  0.82960  Biso   1.000  H
  H71      1.0000 0.14730  0.88630  0.32960  Biso   1.000  H
  H72      1.0000 0.85270  0.38630  0.17040  Biso   1.000  H
