data_image0
_cell_length_a       8.4694
_cell_length_b       8.4694
_cell_length_c       8.7675
_cell_angle_alpha    90
_cell_angle_beta     90
_cell_angle_gamma    90

_symmetry_space_group_name_H-M    "P 1"
_symmetry_int_tables_number       1

loop_
  _symmetry_equiv_pos_as_xyz
  'x, y, z'

loop_
  _atom_site_label
  _atom_site_occupancy
  _atom_site_fract_x
  _atom_site_fract_y
  _atom_site_fract_z
  _atom_site_thermal_displace_type
  _atom_site_B_iso_or_equiv
  _atom_site_type_symbol
  C1       1.0000 0.28250  0.70360  0.36890  Biso   1.000  C
  C2       1.0000 0.71750  0.29640  0.86890  Biso   1.000  C
  C3       1.0000 0.79640  0.78250  0.11890  Biso   1.000  C
  C4       1.0000 0.20360  0.21750  0.61890  Biso   1.000  C
  C5       1.0000 0.21750  0.20360  0.38110  Biso   1.000  C
  C6       1.0000 0.78250  0.79640  0.88110  Biso   1.000  C
  C7       1.0000 0.70360  0.28250  0.63110  Biso   1.000  C
  C8       1.0000 0.29640  0.71750  0.13110  Biso   1.000  C
  C9       1.0000 0.24530  0.72180  0.53540  Biso   1.000  C
  C10      1.0000 0.75470  0.27820  0.03540  Biso   1.000  C
  C11      1.0000 0.77820  0.74530  0.28540  Biso   1.000  C
  C12      1.0000 0.22180  0.25470  0.78540  Biso   1.000  C
  C13      1.0000 0.25470  0.22180  0.21460  Biso   1.000  C
  C14      1.0000 0.74530  0.77820  0.71460  Biso   1.000  C
  C15      1.0000 0.72180  0.24530  0.46460  Biso   1.000  C
  C16      1.0000 0.27820  0.75470  0.96460  Biso   1.000  C
  H1       1.0000 0.26208  0.83028  0.56711  Biso   1.000  H
  H2       1.0000 0.73792  0.16972  0.06711  Biso   1.000  H
  H3       1.0000 0.66972  0.76208  0.31711  Biso   1.000  H
  H4       1.0000 0.33028  0.23792  0.81711  Biso   1.000  H
  H5       1.0000 0.23792  0.33028  0.18289  Biso   1.000  H
  H6       1.0000 0.76208  0.66972  0.68289  Biso   1.000  H
  H7       1.0000 0.83028  0.26208  0.43289  Biso   1.000  H
  H8       1.0000 0.16972  0.73792  0.93289  Biso   1.000  H
  H9       1.0000 0.13585  0.69445  0.55464  Biso   1.000  H
  H10      1.0000 0.86415  0.30555  0.05464  Biso   1.000  H
  H11      1.0000 0.80555  0.63585  0.30464  Biso   1.000  H
  H12      1.0000 0.19445  0.36415  0.80464  Biso   1.000  H
  H13      1.0000 0.36415  0.19445  0.19536  Biso   1.000  H
  H14      1.0000 0.63585  0.80555  0.69536  Biso   1.000  H
  H15      1.0000 0.69445  0.13585  0.44536  Biso   1.000  H
  H16      1.0000 0.30555  0.86415  0.94536  Biso   1.000  H
  Cu1      1.0000 0.47020  0.47020  0.50000  Biso   1.000  Cu
  Cu2      1.0000 0.52980  0.52980  0.00000  Biso   1.000  Cu
  Cu3      1.0000 0.02980  0.97020  0.25000  Biso   1.000  Cu
  Cu4      1.0000 0.97020  0.02980  0.75000  Biso   1.000  Cu
  N1       1.0000 0.21780  0.78220  0.25000  Biso   1.000  N
  N2       1.0000 0.78220  0.21780  0.75000  Biso   1.000  N
  N3       1.0000 0.71780  0.71780  0.00000  Biso   1.000  N
  N4       1.0000 0.28220  0.28220  0.50000  Biso   1.000  N
  N5       1.0000 0.39100  0.60010  0.32820  Biso   1.000  N
  N6       1.0000 0.60900  0.39990  0.82820  Biso   1.000  N
  N7       1.0000 0.89990  0.89100  0.07820  Biso   1.000  N
  N8       1.0000 0.10010  0.10900  0.57820  Biso   1.000  N
  N9       1.0000 0.10900  0.10010  0.42180  Biso   1.000  N
  N10      1.0000 0.89100  0.89990  0.92180  Biso   1.000  N
  N11      1.0000 0.60010  0.39100  0.67180  Biso   1.000  N
  N12      1.0000 0.39990  0.60900  0.17180  Biso   1.000  N
  O1       1.0000 0.34540  0.62080  0.61640  Biso   1.000  O
  O2       1.0000 0.65460  0.37920  0.11640  Biso   1.000  O
  O3       1.0000 0.87920  0.84540  0.36640  Biso   1.000  O
  O4       1.0000 0.12080  0.15460  0.86640  Biso   1.000  O
  O5       1.0000 0.15460  0.12080  0.13360  Biso   1.000  O
  O6       1.0000 0.84540  0.87920  0.63360  Biso   1.000  O
  O7       1.0000 0.62080  0.34540  0.38360  Biso   1.000  O
  O8       1.0000 0.37920  0.65460  0.88360  Biso   1.000  O
  H17      1.0000 0.28890  0.56893  0.67887  Biso   1.000  H
  H18      1.0000 0.71110  0.43107  0.17887  Biso   1.000  H
  H19      1.0000 0.93107  0.78890  0.42887  Biso   1.000  H
  H20      1.0000 0.06893  0.21110  0.92887  Biso   1.000  H
  H21      1.0000 0.21110  0.06893  0.07113  Biso   1.000  H
  H22      1.0000 0.78890  0.93107  0.57113  Biso   1.000  H
  H23      1.0000 0.56893  0.28890  0.32113  Biso   1.000  H
  H24      1.0000 0.43107  0.71110  0.82113  Biso   1.000  H
