data_image0
_cell_length_a       9.7574
_cell_length_b       10.3858
_cell_length_c       12.2784
_cell_angle_alpha    102.79
_cell_angle_beta     111.648
_cell_angle_gamma    97.361

_symmetry_space_group_name_H-M    "P 1"
_symmetry_int_tables_number       1

loop_
  _symmetry_equiv_pos_as_xyz
  'x, y, z'

loop_
  _atom_site_label
  _atom_site_occupancy
  _atom_site_fract_x
  _atom_site_fract_y
  _atom_site_fract_z
  _atom_site_thermal_displace_type
  _atom_site_B_iso_or_equiv
  _atom_site_type_symbol
  Mo1      1.0000 0.25098  0.62978  0.08399  Biso   1.000  Mo
  Mo2      1.0000 0.74902  0.37022  0.91601  Biso   1.000  Mo
  Mo3      1.0000 0.59135  0.62793  0.26142  Biso   1.000  Mo
  Mo4      1.0000 0.40865  0.37207  0.73858  Biso   1.000  Mo
  Mo5      1.0000 0.60732  0.65049  0.00026  Biso   1.000  Mo
  Mo6      1.0000 0.39268  0.34951  0.99974  Biso   1.000  Mo
  Mo7      1.0000 0.06444  0.37732  0.81445  Biso   1.000  Mo
  Mo8      1.0000 0.93556  0.62268  0.18555  Biso   1.000  Mo
  C1       1.0000 0.36150  0.80340  0.46120  Biso   1.000  C
  C2       1.0000 0.63850  0.19660  0.53880  Biso   1.000  C
  H1       1.0000 0.34540  0.81380  0.38440  Biso   1.000  H
  H2       1.0000 0.65460  0.18620  0.61560  Biso   1.000  H
  C3       1.0000 0.39180  0.90540  0.56310  Biso   1.000  C
  C4       1.0000 0.60820  0.09460  0.43690  Biso   1.000  C
  H3       1.0000 0.39850  0.99710  0.56940  Biso   1.000  H
  H4       1.0000 0.60150  0.00290  0.43060  Biso   1.000  H
  C5       1.0000 0.39030  0.71410  0.60860  Biso   1.000  C
  C6       1.0000 0.60970  0.28590  0.39140  Biso   1.000  C
  H5       1.0000 0.39730  0.65130  0.65280  Biso   1.000  H
  H6       1.0000 0.60270  0.34870  0.34720  Biso   1.000  H
  C7       1.0000 0.43890  0.91410  0.78060  Biso   1.000  C
  C8       1.0000 0.56110  0.08590  0.21940  Biso   1.000  C
  H7       1.0000 0.44470  0.01010  0.79010  Biso   1.000  H
  H8       1.0000 0.55530  0.98990  0.20990  Biso   1.000  H
  H9       1.0000 0.53540  0.90420  0.83560  Biso   1.000  H
  H10      1.0000 0.46460  0.09580  0.16440  Biso   1.000  H
  C9       1.0000 0.31210  0.85560  0.81530  Biso   1.000  C
  C10      1.0000 0.68790  0.14440  0.18470  Biso   1.000  C
  H11      1.0000 0.32450  0.76870  0.82930  Biso   1.000  H
  H12      1.0000 0.67550  0.23130  0.17070  Biso   1.000  H
  H13      1.0000 0.31880  0.91670  0.89030  Biso   1.000  H
  H14      1.0000 0.68120  0.08330  0.10970  Biso   1.000  H
  C11      1.0000 0.11040  0.94030  0.67360  Biso   1.000  C
  C12      1.0000 0.88960  0.05970  0.32640  Biso   1.000  C
  H15      1.0000 0.15020  0.03350  0.70600  Biso   1.000  H
  H16      1.0000 0.84980  0.96650  0.29400  Biso   1.000  H
  C13      1.0000 0.98650  0.87570  0.57390  Biso   1.000  C
  C14      1.0000 0.01350  0.12430  0.42610  Biso   1.000  C
  H17      1.0000 0.92430  0.91800  0.52280  Biso   1.000  H
  H18      1.0000 0.07570  0.08200  0.47720  Biso   1.000  H
  C15      1.0000 0.07300  0.72130  0.64350  Biso   1.000  C
  C16      1.0000 0.92700  0.27870  0.35650  Biso   1.000  C
  H19      1.0000 0.08560  0.63660  0.65290  Biso   1.000  H
  H20      1.0000 0.91440  0.36340  0.34710  Biso   1.000  H
  Cu1      1.0000 0.30453  0.50516  0.38112  Biso   1.000  Cu
  Cu2      1.0000 0.69547  0.49484  0.61888  Biso   1.000  Cu
  N1       1.0000 0.35800  0.68330  0.48880  Biso   1.000  N
  N2       1.0000 0.64200  0.31670  0.51120  Biso   1.000  N
  N3       1.0000 0.41080  0.84510  0.65520  Biso   1.000  N
  N4       1.0000 0.58920  0.15490  0.34480  Biso   1.000  N
  N5       1.0000 0.16820  0.83910  0.71950  Biso   1.000  N
  N6       1.0000 0.83180  0.16090  0.28050  Biso   1.000  N
  N7       1.0000 0.96190  0.74000  0.55580  Biso   1.000  N
  N8       1.0000 0.03810  0.26000  0.44420  Biso   1.000  N
  N9       1.0000 0.24700  0.32600  0.29000  Biso   1.000  N
  N10      1.0000 0.75300  0.67400  0.71000  Biso   1.000  N
  C17      1.0000 0.29300  0.21600  0.33440  Biso   1.000  C
  C18      1.0000 0.70700  0.78400  0.66560  Biso   1.000  C
  H21      1.0000 0.37400  0.22370  0.40740  Biso   1.000  H
  H22      1.0000 0.62600  0.77630  0.59260  Biso   1.000  H
  C19      1.0000 0.19400  0.09300  0.24790  Biso   1.000  C
  C20      1.0000 0.80600  0.90700  0.75210  Biso   1.000  C
  H23      1.0000 0.19840  0.00640  0.25440  Biso   1.000  H
  H24      1.0000 0.80160  0.99360  0.74560  Biso   1.000  H
  N11      1.0000 0.08650  0.12690  0.14980  Biso   1.000  N
  N12      1.0000 0.91350  0.87310  0.85020  Biso   1.000  N
  C21      1.0000 0.11900  0.27030  0.17600  Biso   1.000  C
  C22      1.0000 0.88100  0.72970  0.82400  Biso   1.000  C
  H25      1.0000 0.06650  0.31950  0.12650  Biso   1.000  H
  H26      1.0000 0.93350  0.68050  0.87350  Biso   1.000  H
  C23      1.0000 0.96440  0.03940  0.04000  Biso   1.000  C
  C24      1.0000 0.03560  0.96060  0.96000  Biso   1.000  C
  H27      1.0000 0.90190  0.09250  0.99620  Biso   1.000  H
  H28      1.0000 0.09810  0.90750  0.00380  Biso   1.000  H
  H29      1.0000 0.90150  0.97650  0.05990  Biso   1.000  H
  H30      1.0000 0.09850  0.02350  0.94010  Biso   1.000  H
  O1       1.0000 0.15880  0.59680  0.92390  Biso   1.000  O
  O2       1.0000 0.84120  0.40320  0.07610  Biso   1.000  O
  O3       1.0000 0.29890  0.80070  0.13210  Biso   1.000  O
  O4       1.0000 0.70110  0.19930  0.86790  Biso   1.000  O
  O5       1.0000 0.09180  0.58930  0.12520  Biso   1.000  O
  O6       1.0000 0.90820  0.41070  0.87480  Biso   1.000  O
  O7       1.0000 0.38880  0.59290  0.23840  Biso   1.000  O
  O8       1.0000 0.61120  0.40710  0.76160  Biso   1.000  O
  O9       1.0000 0.64210  0.80080  0.31850  Biso   1.000  O
  O10      1.0000 0.35790  0.19920  0.68150  Biso   1.000  O
  O11      1.0000 0.69010  0.57410  0.38390  Biso   1.000  O
  O12      1.0000 0.30990  0.42590  0.61610  Biso   1.000  O
  O13      1.0000 0.45430  0.60300  0.06450  Biso   1.000  O
  O14      1.0000 0.54570  0.39700  0.93550  Biso   1.000  O
  O15      1.0000 0.64880  0.82280  0.04740  Biso   1.000  O
  O16      1.0000 0.35120  0.17720  0.95260  Biso   1.000  O
  O17      1.0000 0.51660  0.39410  0.15360  Biso   1.000  O
  O18      1.0000 0.48340  0.60590  0.84640  Biso   1.000  O
  O19      1.0000 0.72540  0.61370  0.17270  Biso   1.000  O
  O20      1.0000 0.27460  0.38630  0.82730  Biso   1.000  O
  O21      1.0000 0.21640  0.39340  0.00670  Biso   1.000  O
  O22      1.0000 0.78360  0.60660  0.99330  Biso   1.000  O
  O23      1.0000 0.00450  0.20590  0.76820  Biso   1.000  O
  O24      1.0000 0.99550  0.79410  0.23180  Biso   1.000  O
  O25      1.0000 0.00090  0.42420  0.68270  Biso   1.000  O
  O26      1.0000 0.99910  0.57580  0.31730  Biso   1.000  O
  C25      1.0000 0.20900  0.08900  0.24200  Biso   1.000  C
  C26      1.0000 0.79100  0.91100  0.75800  Biso   1.000  C
  C27      1.0000 0.14700  0.27200  0.17400  Biso   1.000  C
  C28      1.0000 0.85300  0.72800  0.82600  Biso   1.000  C
  C29      1.0000 0.06700  0.04900  0.01000  Biso   1.000  C
  C30      1.0000 0.93300  0.95100  0.99000  Biso   1.000  C
  C31      1.0000 0.25700  0.20400  0.34600  Biso   1.000  C
  C32      1.0000 0.74300  0.79600  0.65400  Biso   1.000  C
  H31      1.0000 0.22060  0.00200  0.24300  Biso   1.000  H
  H32      1.0000 0.77940  0.99800  0.75700  Biso   1.000  H
  H33      1.0000 0.10970  0.32520  0.12330  Biso   1.000  H
  H34      1.0000 0.89030  0.67480  0.87670  Biso   1.000  H
  H35      1.0000 0.13740  0.00060  0.98920  Biso   1.000  H
  H36      1.0000 0.86260  0.99940  0.01080  Biso   1.000  H
  H37      1.0000 0.03920  0.10650  0.95710  Biso   1.000  H
  H38      1.0000 0.96080  0.89350  0.04290  Biso   1.000  H
  H39      1.0000 0.30550  0.20530  0.42730  Biso   1.000  H
  H40      1.0000 0.69450  0.79470  0.57270  Biso   1.000  H
  N13      1.0000 0.21800  0.31700  0.30400  Biso   1.000  N
  N14      1.0000 0.78200  0.68300  0.69600  Biso   1.000  N
  N15      1.0000 0.14100  0.13100  0.13570  Biso   1.000  N
  N16      1.0000 0.85900  0.86900  0.86430  Biso   1.000  N
