data_image0
_cell_length_a       7.384
_cell_length_b       11.296
_cell_length_c       16.211
_cell_angle_alpha    93.54
_cell_angle_beta     94.13
_cell_angle_gamma    106.72

_symmetry_space_group_name_H-M    "P 1"
_symmetry_int_tables_number       1

loop_
  _symmetry_equiv_pos_as_xyz
  'x, y, z'

loop_
  _atom_site_label
  _atom_site_occupancy
  _atom_site_fract_x
  _atom_site_fract_y
  _atom_site_fract_z
  _atom_site_thermal_displace_type
  _atom_site_B_iso_or_equiv
  _atom_site_type_symbol
  Cu1      1.0000 0.83820  0.41903  0.80672  Biso   1.000  Cu
  Cu2      1.0000 0.16180  0.58097  0.19328  Biso   1.000  Cu
  Cu3      1.0000 0.67630  0.45163  0.63225  Biso   1.000  Cu
  Cu4      1.0000 0.32370  0.54837  0.36775  Biso   1.000  Cu
  Cu5      1.0000 0.98530  0.71979  0.74119  Biso   1.000  Cu
  Cu6      1.0000 0.01470  0.28021  0.25881  Biso   1.000  Cu
  Na1      1.0000 0.22160  0.11070  0.97980  Biso   1.000  Na
  Na2      1.0000 0.77840  0.88930  0.02020  Biso   1.000  Na
  Na3      1.0000 0.17950  0.02650  0.76630  Biso   1.000  Na
  Na4      1.0000 0.82050  0.97350  0.23370  Biso   1.000  Na
  Na5      1.0000 0.28380  0.04890  0.55740  Biso   1.000  Na
  Na6      1.0000 0.71620  0.95110  0.44260  Biso   1.000  Na
  O1       1.0000 0.91470  0.36110  0.67690  Biso   1.000  O
  O2       1.0000 0.08530  0.63890  0.32310  Biso   1.000  O
  O3       1.0000 0.62960  0.69530  0.79740  Biso   1.000  O
  O4       1.0000 0.37040  0.30470  0.20260  Biso   1.000  O
  O5       1.0000 0.34400  0.72890  0.68480  Biso   1.000  O
  O6       1.0000 0.65600  0.27110  0.31520  Biso   1.000  O
  O7       1.0000 0.37500  0.05280  0.10360  Biso   1.000  O
  O8       1.0000 0.62500  0.94720  0.89640  Biso   1.000  O
  O9       1.0000 0.37010  0.31610  0.03260  Biso   1.000  O
  O10      1.0000 0.62990  0.68390  0.96740  Biso   1.000  O
  O11      1.0000 0.97670  0.11190  0.84960  Biso   1.000  O
  O12      1.0000 0.02330  0.88810  0.15040  Biso   1.000  O
  O13      1.0000 0.41250  0.97990  0.67960  Biso   1.000  O
  O14      1.0000 0.58750  0.02010  0.32040  Biso   1.000  O
  O15      1.0000 0.61000  0.14170  0.49720  Biso   1.000  O
  O16      1.0000 0.39000  0.85830  0.50280  Biso   1.000  O
  O17      1.0000 0.79790  0.09850  0.66890  Biso   1.000  O
  O18      1.0000 0.20210  0.90150  0.33110  Biso   1.000  O
  O19      1.0000 0.69450  0.25200  0.82590  Biso   1.000  O
  O20      1.0000 0.30550  0.74800  0.17410  Biso   1.000  O
  O21      1.0000 0.44170  0.12900  0.87310  Biso   1.000  O
  O22      1.0000 0.55830  0.87100  0.12690  Biso   1.000  O
  O23      1.0000 0.62340  0.45500  0.74800  Biso   1.000  O
  O24      1.0000 0.37660  0.54500  0.25200  Biso   1.000  O
  O25      1.0000 0.48170  0.29300  0.61970  Biso   1.000  O
  O26      1.0000 0.51830  0.70700  0.38030  Biso   1.000  O
  O27      1.0000 0.23790  0.18360  0.67960  Biso   1.000  O
  O28      1.0000 0.76210  0.81640  0.32040  Biso   1.000  O
  O29      1.0000 0.69240  0.43710  0.51440  Biso   1.000  O
  O30      1.0000 0.30760  0.56290  0.48560  Biso   1.000  O
  O31      1.0000 0.78120  0.49980  0.39410  Biso   1.000  O
  O32      1.0000 0.21880  0.50020  0.60590  Biso   1.000  O
  O33      1.0000 0.83400  0.61830  0.64730  Biso   1.000  O
  O34      1.0000 0.16600  0.38170  0.35270  Biso   1.000  O
  O35      1.0000 0.98250  0.85710  0.67710  Biso   1.000  O
  O36      1.0000 0.01750  0.14290  0.32290  Biso   1.000  O
  O37      1.0000 0.88110  0.91170  0.56000  Biso   1.000  O
  O38      1.0000 0.11890  0.08830  0.44000  Biso   1.000  O
  O39      1.0000 0.11810  0.84540  0.83020  Biso   1.000  O
  O40      1.0000 0.88190  0.15460  0.16980  Biso   1.000  O
  O41      1.0000 0.06420  0.90300  0.95560  Biso   1.000  O
  O42      1.0000 0.93580  0.09700  0.04440  Biso   1.000  O
  O43      1.0000 0.99070  0.58670  0.80700  Biso   1.000  O
  O44      1.0000 0.00930  0.41330  0.19300  Biso   1.000  O
  O45      1.0000 0.03760  0.40010  0.88340  Biso   1.000  O
  O46      1.0000 0.96240  0.59990  0.11660  Biso   1.000  O
  O47      1.0000 0.27870  0.51120  0.97210  Biso   1.000  O
  O48      1.0000 0.72130  0.48880  0.02790  Biso   1.000  O
  C1       1.0000 0.52200  0.22750  0.84460  Biso   1.000  C
  C2       1.0000 0.47800  0.77250  0.15540  Biso   1.000  C
  C3       1.0000 0.42300  0.32360  0.83490  Biso   1.000  C
  C4       1.0000 0.57700  0.67640  0.16510  Biso   1.000  C
  C5       1.0000 0.43700  0.37480  0.75320  Biso   1.000  C
  C6       1.0000 0.56300  0.62520  0.24680  Biso   1.000  C
  C7       1.0000 0.37700  0.27540  0.67850  Biso   1.000  C
  C8       1.0000 0.62300  0.72460  0.32150  Biso   1.000  C
  C9       1.0000 0.77500  0.52160  0.46910  Biso   1.000  C
  C10      1.0000 0.22500  0.47840  0.53090  Biso   1.000  C
  C11      1.0000 0.87100  0.65290  0.50590  Biso   1.000  C
  C12      1.0000 0.12900  0.34710  0.49410  Biso   1.000  C
  C13      1.0000 0.80100  0.69400  0.58080  Biso   1.000  C
  C14      1.0000 0.19900  0.30600  0.41920  Biso   1.000  C
  C15      1.0000 0.89500  0.83110  0.60490  Biso   1.000  C
  C16      1.0000 0.10500  0.16890  0.39510  Biso   1.000  C
  C17      1.0000 0.09480  0.82720  0.90530  Biso   1.000  C
  C18      1.0000 0.90520  0.17280  0.09470  Biso   1.000  C
  C19      1.0000 0.11100  0.70560  0.93710  Biso   1.000  C
  C20      1.0000 0.88900  0.29440  0.06290  Biso   1.000  C
  C21      1.0000 0.14400  0.61720  0.87260  Biso   1.000  C
  C22      1.0000 0.85600  0.38280  0.12740  Biso   1.000  C
  C23      1.0000 0.15300  0.49940  0.91240  Biso   1.000  C
  C24      1.0000 0.84700  0.50060  0.08760  Biso   1.000  C
  H1       1.0000 0.89050  0.28630  0.66480  Biso   1.000  H
  H2       1.0000 0.10950  0.71370  0.33520  Biso   1.000  H
  H3       1.0000 0.02230  0.39640  0.66560  Biso   1.000  H
  H4       1.0000 0.97770  0.60360  0.33440  Biso   1.000  H
  H5       1.0000 0.63270  0.62740  0.77500  Biso   1.000  H
  H6       1.0000 0.36730  0.37260  0.22500  Biso   1.000  H
  H7       1.0000 0.73820  0.73080  0.81270  Biso   1.000  H
  H8       1.0000 0.26180  0.26920  0.18730  Biso   1.000  H
  H9       1.0000 0.29000  0.69000  0.64000  Biso   1.000  H
  H10      1.0000 0.71000  0.31000  0.36000  Biso   1.000  H
  H11      1.0000 0.39000  0.68000  0.71000  Biso   1.000  H
  H12      1.0000 0.61000  0.32000  0.29000  Biso   1.000  H
  H13      1.0000 0.50860  0.08600  0.10460  Biso   1.000  H
  H14      1.0000 0.49140  0.91400  0.89540  Biso   1.000  H
  H15      1.0000 0.33530  0.08930  0.15240  Biso   1.000  H
  H16      1.0000 0.66470  0.91070  0.84760  Biso   1.000  H
  H17      1.0000 0.48550  0.32880  0.03760  Biso   1.000  H
  H18      1.0000 0.51450  0.67120  0.96240  Biso   1.000  H
  H19      1.0000 0.34290  0.36350  0.00080  Biso   1.000  H
  H20      1.0000 0.65710  0.63650  0.99920  Biso   1.000  H
  H21      1.0000 0.97180  0.18090  0.83860  Biso   1.000  H
  H22      1.0000 0.02820  0.81910  0.16140  Biso   1.000  H
  H23      1.0000 0.86880  0.06590  0.85100  Biso   1.000  H
  H24      1.0000 0.13120  0.93410  0.14900  Biso   1.000  H
  H25      1.0000 0.40550  0.90610  0.67500  Biso   1.000  H
  H26      1.0000 0.59450  0.09390  0.32500  Biso   1.000  H
  H27      1.0000 0.52200  0.02090  0.69500  Biso   1.000  H
  H28      1.0000 0.47800  0.97910  0.30500  Biso   1.000  H
  H29      1.0000 0.67990  0.19600  0.53040  Biso   1.000  H
  H30      1.0000 0.32010  0.80400  0.46960  Biso   1.000  H
  H31      1.0000 0.59270  0.17130  0.45330  Biso   1.000  H
  H32      1.0000 0.40730  0.82870  0.54670  Biso   1.000  H
  H33      1.0000 0.35240  0.42430  0.74990  Biso   1.000  H
  H34      1.0000 0.64760  0.57570  0.25010  Biso   1.000  H
  H35      1.0000 0.66840  0.68040  0.57030  Biso   1.000  H
  H36      1.0000 0.33160  0.31960  0.42970  Biso   1.000  H
  H37      1.0000 0.26410  0.64570  0.84060  Biso   1.000  H
  H38      1.0000 0.73590  0.35430  0.15940  Biso   1.000  H
  H39      1.0000 0.29320  0.28770  0.84190  Biso   1.000  H
  H40      1.0000 0.70680  0.71230  0.15810  Biso   1.000  H
  H41      1.0000 0.47790  0.38960  0.87650  Biso   1.000  H
  H42      1.0000 0.52210  0.61040  0.12350  Biso   1.000  H
  H43      1.0000 0.85780  0.70670  0.46470  Biso   1.000  H
  H44      1.0000 0.14220  0.29330  0.53530  Biso   1.000  H
  H45      1.0000 0.00170  0.66020  0.51840  Biso   1.000  H
  H46      1.0000 0.99830  0.33980  0.48160  Biso   1.000  H
  H47      1.0000 0.21430  0.72480  0.97920  Biso   1.000  H
  H48      1.0000 0.78570  0.27520  0.02080  Biso   1.000  H
  H49      1.0000 0.99660  0.66640  0.96030  Biso   1.000  H
  H50      1.0000 0.00340  0.33360  0.03970  Biso   1.000  H
