data_image0
_cell_length_a       7.0076
_cell_length_b       11.0802
_cell_length_c       16.0917
_cell_angle_alpha    91.725
_cell_angle_beta     97.82
_cell_angle_gamma    90.362

_symmetry_space_group_name_H-M    "P 1"
_symmetry_int_tables_number       1

loop_
  _symmetry_equiv_pos_as_xyz
  'x, y, z'

loop_
  _atom_site_label
  _atom_site_occupancy
  _atom_site_fract_x
  _atom_site_fract_y
  _atom_site_fract_z
  _atom_site_thermal_displace_type
  _atom_site_B_iso_or_equiv
  _atom_site_type_symbol
  Cu1      1.0000 0.83070  0.56725  0.82568  Biso   1.000  Cu
  Cu2      1.0000 0.16930  0.43275  0.17432  Biso   1.000  Cu
  Na1      1.0000 0.25347  0.00486  0.50810  Biso   1.000  Na
  Na2      1.0000 0.74653  0.99514  0.49190  Biso   1.000  Na
  Na3      1.0000 0.52005  0.33650  0.51859  Biso   1.000  Na
  Na4      1.0000 0.47995  0.66350  0.48141  Biso   1.000  Na
  N1       1.0000 0.78810  0.71047  0.89950  Biso   1.000  N
  N2       1.0000 0.21190  0.28953  0.10050  Biso   1.000  N
  C1       1.0000 0.79570  0.82560  0.87835  Biso   1.000  C
  C2       1.0000 0.20430  0.17440  0.12165  Biso   1.000  C
  H1       1.0000 0.80700  0.83700  0.82300  Biso   1.000  H
  H2       1.0000 0.19300  0.16300  0.17700  Biso   1.000  H
  C3       1.0000 0.78170  0.91920  0.93561  Biso   1.000  C
  C4       1.0000 0.21830  0.08080  0.06439  Biso   1.000  C
  H3       1.0000 0.78300  0.99500  0.91750  Biso   1.000  H
  H4       1.0000 0.21700  0.00500  0.08250  Biso   1.000  H
  C5       1.0000 0.75860  0.89290  0.01670  Biso   1.000  C
  C6       1.0000 0.24140  0.10710  0.98330  Biso   1.000  C
  H5       1.0000 0.75200  0.95800  0.05900  Biso   1.000  H
  H6       1.0000 0.24800  0.04200  0.94100  Biso   1.000  H
  C7       1.0000 0.75040  0.77400  0.03928  Biso   1.000  C
  C8       1.0000 0.24960  0.22600  0.96072  Biso   1.000  C
  H7       1.0000 0.73700  0.75500  0.09360  Biso   1.000  H
  H8       1.0000 0.26300  0.24500  0.90640  Biso   1.000  H
  C9       1.0000 0.76490  0.68400  0.97882  Biso   1.000  C
  C10      1.0000 0.23510  0.31600  0.02118  Biso   1.000  C
  C11      1.0000 0.75600  0.55380  0.99436  Biso   1.000  C
  C12      1.0000 0.24400  0.44620  0.00564  Biso   1.000  C
  C13      1.0000 0.72600  0.50580  0.07030  Biso   1.000  C
  C14      1.0000 0.27400  0.49420  0.92970  Biso   1.000  C
  H9       1.0000 0.71300  0.55400  0.11300  Biso   1.000  H
  H10      1.0000 0.28700  0.44600  0.88700  Biso   1.000  H
  C15      1.0000 0.71780  0.38220  0.07640  Biso   1.000  C
  C16      1.0000 0.28220  0.61780  0.92360  Biso   1.000  C
  H11      1.0000 0.70400  0.35200  0.12600  Biso   1.000  H
  H12      1.0000 0.29600  0.64800  0.87400  Biso   1.000  H
  C17      1.0000 0.73780  0.30910  0.00698  Biso   1.000  C
  C18      1.0000 0.26220  0.69090  0.99302  Biso   1.000  C
  H13      1.0000 0.73100  0.22800  0.00800  Biso   1.000  H
  H14      1.0000 0.26900  0.77200  0.99200  Biso   1.000  H
  C19      1.0000 0.76950  0.36230  0.93406  Biso   1.000  C
  C20      1.0000 0.23050  0.63770  0.06594  Biso   1.000  C
  H15      1.0000 0.78700  0.32200  0.89330  Biso   1.000  H
  H16      1.0000 0.21300  0.67800  0.10670  Biso   1.000  H
  N3       1.0000 0.77920  0.48123  0.92773  Biso   1.000  N
  N4       1.0000 0.22080  0.51877  0.07227  Biso   1.000  N
  P1       1.0000 0.05692  0.65325  0.68132  Biso   1.000  P
  P2       1.0000 0.94308  0.34675  0.31868  Biso   1.000  P
  O1       1.0000 0.00490  0.71569  0.60002  Biso   1.000  O
  O2       1.0000 0.99510  0.28431  0.39998  Biso   1.000  O
  O3       1.0000 0.06830  0.50977  0.65815  Biso   1.000  O
  O4       1.0000 0.93170  0.49023  0.34185  Biso   1.000  O
  O5       1.0000 0.25420  0.68692  0.72568  Biso   1.000  O
  O6       1.0000 0.74580  0.31308  0.27432  Biso   1.000  O
  O7       1.0000 0.89750  0.66733  0.73706  Biso   1.000  O
  O8       1.0000 0.10250  0.33267  0.26294  Biso   1.000  O
  P3       1.0000 0.92973  0.40420  0.68612  Biso   1.000  P
  P4       1.0000 0.07027  0.59580  0.31388  Biso   1.000  P
  O9       1.0000 0.73430  0.42116  0.63684  Biso   1.000  O
  O10      1.0000 0.26570  0.57884  0.36316  Biso   1.000  O
  O11      1.0000 0.93290  0.42290  0.78022  Biso   1.000  O
  O12      1.0000 0.06710  0.57710  0.21978  Biso   1.000  O
  O13      1.0000 0.02850  0.28844  0.66545  Biso   1.000  O
  O14      1.0000 0.97150  0.71156  0.33455  Biso   1.000  O
  O15      1.0000 0.53220  0.51327  0.75426  Biso   1.000  O
  O16      1.0000 0.46780  0.48673  0.24574  Biso   1.000  O
  H17      1.0000 0.57900  0.49100  0.71200  Biso   1.000  H
  H18      1.0000 0.42100  0.50900  0.28800  Biso   1.000  H
  H19      1.0000 0.45200  0.54900  0.74270  Biso   1.000  H
  H20      1.0000 0.54800  0.45100  0.25730  Biso   1.000  H
  O17      1.0000 0.57660  0.07280  0.76842  Biso   1.000  O
  O18      1.0000 0.42340  0.92720  0.23158  Biso   1.000  O
  H21      1.0000 0.50800  0.02400  0.78000  Biso   1.000  H
  H22      1.0000 0.49200  0.97600  0.22000  Biso   1.000  H
  H23      1.0000 0.52500  0.13000  0.76400  Biso   1.000  H
  H24      1.0000 0.47500  0.87000  0.23600  Biso   1.000  H
  O19      1.0000 0.28560  0.91820  0.81167  Biso   1.000  O
  O20      1.0000 0.71440  0.08180  0.18833  Biso   1.000  O
  H25      1.0000 0.28000  0.85700  0.78500  Biso   1.000  H
  H26      1.0000 0.72000  0.14300  0.21500  Biso   1.000  H
  H27      1.0000 0.19900  0.94900  0.79800  Biso   1.000  H
  H28      1.0000 0.80100  0.05100  0.20200  Biso   1.000  H
  O21      1.0000 0.45720  0.02400  0.40187  Biso   1.000  O
  O22      1.0000 0.54280  0.97600  0.59813  Biso   1.000  O
  H29      1.0000 0.43500  0.98800  0.35500  Biso   1.000  H
  H30      1.0000 0.56500  0.01200  0.64500  Biso   1.000  H
  H31      1.0000 0.45400  0.08500  0.39400  Biso   1.000  H
  H32      1.0000 0.54600  0.91500  0.60600  Biso   1.000  H
  O23      1.0000 0.38080  0.28330  0.77299  Biso   1.000  O
  O24      1.0000 0.61920  0.71670  0.22701  Biso   1.000  O
  H33      1.0000 0.42900  0.34000  0.76500  Biso   1.000  H
  H34      1.0000 0.57100  0.66000  0.23500  Biso   1.000  H
  H35      1.0000 0.28000  0.28000  0.74300  Biso   1.000  H
  H36      1.0000 0.72000  0.72000  0.25700  Biso   1.000  H
  O25      1.0000 0.97300  0.08160  0.75745  Biso   1.000  O
  O26      1.0000 0.02700  0.91840  0.24255  Biso   1.000  O
  H37      1.0000 0.87000  0.08300  0.76500  Biso   1.000  H
  H38      1.0000 0.13000  0.91700  0.23500  Biso   1.000  H
  H39      1.0000 0.97600  0.14100  0.74100  Biso   1.000  H
  H40      1.0000 0.02400  0.85900  0.25900  Biso   1.000  H
  O27      1.0000 0.97980  0.03451  0.40033  Biso   1.000  O
  O28      1.0000 0.02020  0.96549  0.59967  Biso   1.000  O
  H41      1.0000 0.98900  0.12500  0.38800  Biso   1.000  H
  H42      1.0000 0.01100  0.87500  0.61200  Biso   1.000  H
  H43      1.0000 0.99000  0.00200  0.36400  Biso   1.000  H
  H44      1.0000 0.01000  0.99800  0.63600  Biso   1.000  H
  O29      1.0000 0.70200  0.50626  0.47658  Biso   1.000  O
  O30      1.0000 0.29800  0.49374  0.52342  Biso   1.000  O
  H45      1.0000 0.74300  0.49400  0.52000  Biso   1.000  H
  H46      1.0000 0.25700  0.50600  0.48000  Biso   1.000  H
  H47      1.0000 0.77800  0.51000  0.44800  Biso   1.000  H
  H48      1.0000 0.22200  0.49000  0.55200  Biso   1.000  H
  O31      1.0000 0.25190  0.21603  0.53692  Biso   1.000  O
  O32      1.0000 0.74810  0.78397  0.46308  Biso   1.000  O
  H49      1.0000 0.18300  0.24500  0.49600  Biso   1.000  H
  H50      1.0000 0.81700  0.75500  0.50400  Biso   1.000  H
  H51      1.0000 0.19700  0.23100  0.57500  Biso   1.000  H
  H52      1.0000 0.80300  0.76900  0.42500  Biso   1.000  H
  O33      1.0000 0.77710  0.20428  0.51785  Biso   1.000  O
  O34      1.0000 0.22290  0.79572  0.48215  Biso   1.000  O
  H53      1.0000 0.84100  0.22700  0.56400  Biso   1.000  H
  H54      1.0000 0.15900  0.77300  0.43600  Biso   1.000  H
  H55      1.0000 0.83200  0.23300  0.48500  Biso   1.000  H
  H56      1.0000 0.16800  0.76700  0.51500  Biso   1.000  H
  O35      1.0000 0.44830  0.26676  0.37105  Biso   1.000  O
  O36      1.0000 0.55170  0.73324  0.62895  Biso   1.000  O
  H57      1.0000 0.53500  0.27900  0.34700  Biso   1.000  H
  H58      1.0000 0.46500  0.72100  0.65300  Biso   1.000  H
  H59      1.0000 0.35200  0.28100  0.34100  Biso   1.000  H
  H60      1.0000 0.64800  0.71900  0.65900  Biso   1.000  H
