data_image0
_cell_length_a       10.83
_cell_length_b       11.889
_cell_length_c       14.559
_cell_angle_alpha    90
_cell_angle_beta     109.594
_cell_angle_gamma    90

_symmetry_space_group_name_H-M    "P 1"
_symmetry_int_tables_number       1

loop_
  _symmetry_equiv_pos_as_xyz
  'x, y, z'

loop_
  _atom_site_label
  _atom_site_occupancy
  _atom_site_fract_x
  _atom_site_fract_y
  _atom_site_fract_z
  _atom_site_thermal_displace_type
  _atom_site_B_iso_or_equiv
  _atom_site_type_symbol
  C1       1.0000 0.62020  0.38620  0.64950  Biso   1.000  C
  C2       1.0000 0.37980  0.88620  0.85050  Biso   1.000  C
  C3       1.0000 0.37980  0.61380  0.35050  Biso   1.000  C
  C4       1.0000 0.62020  0.11380  0.14950  Biso   1.000  C
  C5       1.0000 0.69030  0.31440  0.73370  Biso   1.000  C
  C6       1.0000 0.30970  0.81440  0.76630  Biso   1.000  C
  C7       1.0000 0.30970  0.68560  0.26630  Biso   1.000  C
  C8       1.0000 0.69030  0.18560  0.23370  Biso   1.000  C
  C9       1.0000 0.62660  0.24880  0.78240  Biso   1.000  C
  C10      1.0000 0.37340  0.74880  0.71760  Biso   1.000  C
  C11      1.0000 0.37340  0.75120  0.21760  Biso   1.000  C
  C12      1.0000 0.62660  0.25120  0.28240  Biso   1.000  C
  H1       1.0000 0.53560  0.25080  0.76300  Biso   1.000  H
  H2       1.0000 0.46440  0.75080  0.73700  Biso   1.000  H
  H3       1.0000 0.46440  0.74920  0.23700  Biso   1.000  H
  H4       1.0000 0.53560  0.24920  0.26300  Biso   1.000  H
  C13      1.0000 0.69360  0.18230  0.85730  Biso   1.000  C
  C14      1.0000 0.30640  0.68230  0.64270  Biso   1.000  C
  C15      1.0000 0.30640  0.81770  0.14270  Biso   1.000  C
  C16      1.0000 0.69360  0.31770  0.35730  Biso   1.000  C
  C17      1.0000 0.82610  0.17980  0.88990  Biso   1.000  C
  C18      1.0000 0.17390  0.67980  0.61010  Biso   1.000  C
  C19      1.0000 0.17390  0.82020  0.11010  Biso   1.000  C
  C20      1.0000 0.82610  0.32020  0.38990  Biso   1.000  C
  H5       1.0000 0.87110  0.13190  0.94060  Biso   1.000  H
  H6       1.0000 0.12890  0.63190  0.55940  Biso   1.000  H
  H7       1.0000 0.12890  0.86810  0.05940  Biso   1.000  H
  H8       1.0000 0.87110  0.36810  0.44060  Biso   1.000  H
  C21      1.0000 0.89320  0.24830  0.84790  Biso   1.000  C
  C22      1.0000 0.10680  0.74830  0.65210  Biso   1.000  C
  C23      1.0000 0.10680  0.75170  0.15210  Biso   1.000  C
  C24      1.0000 0.89320  0.25170  0.34790  Biso   1.000  C
  C25      1.0000 0.82830  0.31670  0.76790  Biso   1.000  C
  C26      1.0000 0.17170  0.81670  0.73210  Biso   1.000  C
  C27      1.0000 0.17170  0.68330  0.23210  Biso   1.000  C
  C28      1.0000 0.82830  0.18330  0.26790  Biso   1.000  C
  H9       1.0000 0.87450  0.36180  0.73850  Biso   1.000  H
  H10      1.0000 0.12550  0.86180  0.76150  Biso   1.000  H
  H11      1.0000 0.12550  0.63820  0.26150  Biso   1.000  H
  H12      1.0000 0.87450  0.13820  0.23850  Biso   1.000  H
  C29      1.0000 0.61650  0.11040  0.90920  Biso   1.000  C
  C30      1.0000 0.38350  0.61040  0.59080  Biso   1.000  C
  C31      1.0000 0.38350  0.88960  0.09080  Biso   1.000  C
  C32      1.0000 0.61650  0.38960  0.40920  Biso   1.000  C
  C33      1.0000 0.11540  0.33810  0.89460  Biso   1.000  C
  C34      1.0000 0.88460  0.83810  0.60540  Biso   1.000  C
  C35      1.0000 0.88460  0.66190  0.10540  Biso   1.000  C
  C36      1.0000 0.11540  0.16190  0.39460  Biso   1.000  C
  H13      1.0000 0.08990  0.41230  0.87860  Biso   1.000  H
  H14      1.0000 0.91010  0.91230  0.62140  Biso   1.000  H
  H15      1.0000 0.91010  0.58770  0.12140  Biso   1.000  H
  H16      1.0000 0.08990  0.08770  0.37860  Biso   1.000  H
  C37      1.0000 0.11360  0.15630  0.90730  Biso   1.000  C
  C38      1.0000 0.88640  0.65630  0.59270  Biso   1.000  C
  C39      1.0000 0.88640  0.84370  0.09270  Biso   1.000  C
  C40      1.0000 0.11360  0.34370  0.40730  Biso   1.000  C
  H17      1.0000 0.08620  0.08170  0.90340  Biso   1.000  H
  H18      1.0000 0.91380  0.58170  0.59660  Biso   1.000  H
  H19      1.0000 0.91380  0.91830  0.09660  Biso   1.000  H
  H20      1.0000 0.08620  0.41830  0.40340  Biso   1.000  H
  C41      1.0000 0.23850  0.30280  0.93140  Biso   1.000  C
  C42      1.0000 0.76150  0.80280  0.56860  Biso   1.000  C
  C43      1.0000 0.76150  0.69720  0.06860  Biso   1.000  C
  C44      1.0000 0.23850  0.19720  0.43140  Biso   1.000  C
  H21      1.0000 0.31260  0.34830  0.95050  Biso   1.000  H
  H22      1.0000 0.68740  0.84830  0.54950  Biso   1.000  H
  H23      1.0000 0.68740  0.65170  0.04950  Biso   1.000  H
  H24      1.0000 0.31260  0.15170  0.45050  Biso   1.000  H
  Cu1      1.0000 0.40048  0.07457  0.97527  Biso   1.000  Cu
  Cu2      1.0000 0.59952  0.57457  0.52473  Biso   1.000  Cu
  Cu3      1.0000 0.59952  0.92543  0.02473  Biso   1.000  Cu
  Cu4      1.0000 0.40048  0.42543  0.47527  Biso   1.000  Cu
  N1       1.0000 0.03110  0.24860  0.88390  Biso   1.000  N
  N2       1.0000 0.96890  0.74860  0.61610  Biso   1.000  N
  N3       1.0000 0.96890  0.75140  0.11610  Biso   1.000  N
  N4       1.0000 0.03110  0.25140  0.38390  Biso   1.000  N
  N5       1.0000 0.23770  0.18990  0.93620  Biso   1.000  N
  N6       1.0000 0.76230  0.68990  0.56380  Biso   1.000  N
  N7       1.0000 0.76230  0.81010  0.06380  Biso   1.000  N
  N8       1.0000 0.23770  0.31010  0.43620  Biso   1.000  N
  O1       1.0000 0.67410  0.47220  0.63560  Biso   1.000  O
  O2       1.0000 0.32590  0.97220  0.86440  Biso   1.000  O
  O3       1.0000 0.32590  0.52780  0.36440  Biso   1.000  O
  O4       1.0000 0.67410  0.02780  0.13560  Biso   1.000  O
  O5       1.0000 0.50620  0.34950  0.59620  Biso   1.000  O
  O6       1.0000 0.49380  0.84950  0.90380  Biso   1.000  O
  O7       1.0000 0.49380  0.65050  0.40380  Biso   1.000  O
  O8       1.0000 0.50620  0.15050  0.09620  Biso   1.000  O
  O9       1.0000 0.51150  0.14450  0.90500  Biso   1.000  O
  O10      1.0000 0.48850  0.64450  0.59500  Biso   1.000  O
  O11      1.0000 0.48850  0.85550  0.09500  Biso   1.000  O
  O12      1.0000 0.51150  0.35550  0.40500  Biso   1.000  O
  O13      1.0000 0.67550  0.02400  0.94990  Biso   1.000  O
  O14      1.0000 0.32450  0.52400  0.55010  Biso   1.000  O
  O15      1.0000 0.32450  0.97600  0.05010  Biso   1.000  O
  O16      1.0000 0.67550  0.47600  0.44990  Biso   1.000  O
