data_image0
_cell_length_a       10.915
_cell_length_b       11.321
_cell_length_c       14.814
_cell_angle_alpha    90
_cell_angle_beta     109.602
_cell_angle_gamma    90

_symmetry_space_group_name_H-M    "P 1"
_symmetry_int_tables_number       1

loop_
  _symmetry_equiv_pos_as_xyz
  'x, y, z'

loop_
  _atom_site_label
  _atom_site_occupancy
  _atom_site_fract_x
  _atom_site_fract_y
  _atom_site_fract_z
  _atom_site_thermal_displace_type
  _atom_site_B_iso_or_equiv
  _atom_site_type_symbol
  Cu1      1.0000 0.90420  0.58356  0.97713  Biso   1.000  Cu
  Cu2      1.0000 0.09580  0.08356  0.52287  Biso   1.000  Cu
  Cu3      1.0000 0.09580  0.41644  0.02287  Biso   1.000  Cu
  Cu4      1.0000 0.90420  0.91644  0.47713  Biso   1.000  Cu
  O1       1.0000 0.81970  0.48150  0.04630  Biso   1.000  O
  O2       1.0000 0.18030  0.98150  0.45370  Biso   1.000  O
  O3       1.0000 0.18030  0.51850  0.95370  Biso   1.000  O
  O4       1.0000 0.81970  0.01850  0.54630  Biso   1.000  O
  N1       1.0000 0.24860  0.28950  0.05860  Biso   1.000  N
  N2       1.0000 0.75140  0.78950  0.44140  Biso   1.000  N
  N3       1.0000 0.75140  0.71050  0.94140  Biso   1.000  N
  N4       1.0000 0.24860  0.21050  0.55860  Biso   1.000  N
  C1       1.0000 0.37470  0.32930  0.08910  Biso   1.000  C
  C2       1.0000 0.62530  0.82930  0.41090  Biso   1.000  C
  C3       1.0000 0.62530  0.67070  0.91090  Biso   1.000  C
  C4       1.0000 0.37470  0.17070  0.58910  Biso   1.000  C
  H1       1.0000 0.39940  0.40830  0.09290  Biso   1.000  H
  H2       1.0000 0.60060  0.90830  0.40710  Biso   1.000  H
  H3       1.0000 0.60060  0.59170  0.90710  Biso   1.000  H
  H4       1.0000 0.39940  0.09170  0.59290  Biso   1.000  H
  N5       1.0000 0.45660  0.23750  0.11240  Biso   1.000  N
  N6       1.0000 0.54340  0.73750  0.38760  Biso   1.000  N
  N7       1.0000 0.54340  0.76250  0.88760  Biso   1.000  N
  N8       1.0000 0.45660  0.26250  0.61240  Biso   1.000  N
  C5       1.0000 0.59810  0.24140  0.14790  Biso   1.000  C
  C6       1.0000 0.40190  0.74140  0.35210  Biso   1.000  C
  C7       1.0000 0.40190  0.75860  0.85210  Biso   1.000  C
  C8       1.0000 0.59810  0.25860  0.64790  Biso   1.000  C
  C9       1.0000 0.66360  0.17680  0.22530  Biso   1.000  C
  C10      1.0000 0.33640  0.67680  0.27470  Biso   1.000  C
  C11      1.0000 0.33640  0.82320  0.77470  Biso   1.000  C
  C12      1.0000 0.66360  0.32320  0.72530  Biso   1.000  C
  H5       1.0000 0.61880  0.13070  0.25590  Biso   1.000  H
  H6       1.0000 0.38120  0.63070  0.24410  Biso   1.000  H
  H7       1.0000 0.38120  0.86930  0.74410  Biso   1.000  H
  H8       1.0000 0.61880  0.36930  0.75590  Biso   1.000  H
  O5       1.0000 0.98240  0.15120  0.39840  Biso   1.000  O
  O6       1.0000 0.01760  0.65120  0.10160  Biso   1.000  O
  O7       1.0000 0.01760  0.84880  0.60160  Biso   1.000  O
  O8       1.0000 0.98240  0.34880  0.89840  Biso   1.000  O
  O9       1.0000 0.81960  0.01470  0.36210  Biso   1.000  O
  O10      1.0000 0.18040  0.51470  0.13790  Biso   1.000  O
  O11      1.0000 0.18040  0.98530  0.63790  Biso   1.000  O
  O12      1.0000 0.81960  0.48530  0.86210  Biso   1.000  O
  C13      1.0000 0.87500  0.10910  0.34740  Biso   1.000  C
  C14      1.0000 0.12500  0.60910  0.15260  Biso   1.000  C
  C15      1.0000 0.12500  0.89090  0.65260  Biso   1.000  C
  C16      1.0000 0.87500  0.39090  0.84740  Biso   1.000  C
  O13      1.0000 0.98030  0.34660  0.08840  Biso   1.000  O
  O14      1.0000 0.01970  0.84660  0.41160  Biso   1.000  O
  O15      1.0000 0.01970  0.65340  0.91160  Biso   1.000  O
  O16      1.0000 0.98030  0.15340  0.58840  Biso   1.000  O
  C17      1.0000 0.87180  0.38810  0.08690  Biso   1.000  C
  C18      1.0000 0.12820  0.88810  0.41310  Biso   1.000  C
  C19      1.0000 0.12820  0.61190  0.91310  Biso   1.000  C
  C20      1.0000 0.87180  0.11190  0.58690  Biso   1.000  C
  C21      1.0000 0.66080  0.31140  0.10040  Biso   1.000  C
  C22      1.0000 0.33920  0.81140  0.39960  Biso   1.000  C
  C23      1.0000 0.33920  0.68860  0.89960  Biso   1.000  C
  C24      1.0000 0.66080  0.18860  0.60040  Biso   1.000  C
  H9       1.0000 0.61460  0.35500  0.04650  Biso   1.000  H
  H10      1.0000 0.38540  0.85500  0.45350  Biso   1.000  H
  H11      1.0000 0.38540  0.64500  0.95350  Biso   1.000  H
  H12      1.0000 0.61460  0.14500  0.54650  Biso   1.000  H
  C25      1.0000 0.86340  0.24850  0.21390  Biso   1.000  C
  C26      1.0000 0.13660  0.74850  0.28610  Biso   1.000  C
  C27      1.0000 0.13660  0.75150  0.78610  Biso   1.000  C
  C28      1.0000 0.86340  0.25150  0.71390  Biso   1.000  C
  H13      1.0000 0.95380  0.25010  0.23700  Biso   1.000  H
  H14      1.0000 0.04620  0.75010  0.26300  Biso   1.000  H
  H15      1.0000 0.04620  0.74990  0.76300  Biso   1.000  H
  H16      1.0000 0.95380  0.24990  0.73700  Biso   1.000  H
  C29      1.0000 0.80070  0.31370  0.13780  Biso   1.000  C
  C30      1.0000 0.19930  0.81370  0.36220  Biso   1.000  C
  C31      1.0000 0.19930  0.68630  0.86220  Biso   1.000  C
  C32      1.0000 0.80070  0.18630  0.63780  Biso   1.000  C
  C33      1.0000 0.79980  0.17930  0.25950  Biso   1.000  C
  C34      1.0000 0.20020  0.67930  0.24050  Biso   1.000  C
  C35      1.0000 0.20020  0.82070  0.74050  Biso   1.000  C
  C36      1.0000 0.79980  0.32070  0.75950  Biso   1.000  C
  C37      1.0000 0.38250  0.13810  0.09660  Biso   1.000  C
  C38      1.0000 0.61750  0.63810  0.40340  Biso   1.000  C
  C39      1.0000 0.61750  0.86190  0.90340  Biso   1.000  C
  C40      1.0000 0.38250  0.36190  0.59660  Biso   1.000  C
  H17      1.0000 0.41020  0.06000  0.10590  Biso   1.000  H
  H18      1.0000 0.58980  0.56000  0.39410  Biso   1.000  H
  H19      1.0000 0.58980  0.94000  0.89410  Biso   1.000  H
  H20      1.0000 0.41020  0.44000  0.60590  Biso   1.000  H
  C41      1.0000 0.25060  0.18240  0.06210  Biso   1.000  C
  C42      1.0000 0.74940  0.68240  0.43790  Biso   1.000  C
  C43      1.0000 0.74940  0.81760  0.93790  Biso   1.000  C
  C44      1.0000 0.25060  0.31760  0.56210  Biso   1.000  C
  C45      1.0000 0.11940  0.10070  0.03170  Biso   1.000  C
  C46      1.0000 0.88060  0.60070  0.46830  Biso   1.000  C
  C47      1.0000 0.88060  0.89930  0.96830  Biso   1.000  C
  C48      1.0000 0.11940  0.39930  0.53170  Biso   1.000  C
  H21      1.0000 0.09170  0.09000  0.08620  Biso   1.000  H
  H22      1.0000 0.90830  0.59000  0.41380  Biso   1.000  H
  H23      1.0000 0.90830  0.91000  0.91380  Biso   1.000  H
  H24      1.0000 0.09170  0.41000  0.58620  Biso   1.000  H
  H25      1.0000 0.13790  0.02520  0.00970  Biso   1.000  H
  H26      1.0000 0.86210  0.52520  0.49030  Biso   1.000  H
  H27      1.0000 0.86210  0.97480  0.99030  Biso   1.000  H
  H28      1.0000 0.13790  0.47480  0.50970  Biso   1.000  H
  H29      1.0000 0.05170  0.13900  0.98130  Biso   1.000  H
  H30      1.0000 0.94830  0.63900  0.51870  Biso   1.000  H
  H31      1.0000 0.94830  0.86100  0.01870  Biso   1.000  H
  H32      1.0000 0.05170  0.36100  0.48130  Biso   1.000  H
