data_image0
_cell_length_a       10.93
_cell_length_b       13.71
_cell_length_c       13.47
_cell_angle_alpha    90
_cell_angle_beta     111.86
_cell_angle_gamma    90

_symmetry_space_group_name_H-M    "P 1"
_symmetry_int_tables_number       1

loop_
  _symmetry_equiv_pos_as_xyz
  'x, y, z'

loop_
  _atom_site_label
  _atom_site_occupancy
  _atom_site_fract_x
  _atom_site_fract_y
  _atom_site_fract_z
  _atom_site_thermal_displace_type
  _atom_site_B_iso_or_equiv
  _atom_site_type_symbol
  C1       1.0000 0.39060  0.88090  0.34750  Biso   1.000  C
  C2       1.0000 0.60940  0.38090  0.15250  Biso   1.000  C
  C3       1.0000 0.60940  0.11910  0.65250  Biso   1.000  C
  C4       1.0000 0.39060  0.61910  0.84750  Biso   1.000  C
  C5       1.0000 0.32410  0.80190  0.26830  Biso   1.000  C
  C6       1.0000 0.67590  0.30190  0.23170  Biso   1.000  C
  C7       1.0000 0.67590  0.19810  0.73170  Biso   1.000  C
  C8       1.0000 0.32410  0.69810  0.76830  Biso   1.000  C
  C9       1.0000 0.18820  0.79400  0.23840  Biso   1.000  C
  C10      1.0000 0.81180  0.29400  0.26160  Biso   1.000  C
  C11      1.0000 0.81180  0.20600  0.76160  Biso   1.000  C
  C12      1.0000 0.18820  0.70600  0.73840  Biso   1.000  C
  H1       1.0000 0.14000  0.83730  0.26270  Biso   1.000  H
  H2       1.0000 0.86000  0.33730  0.23730  Biso   1.000  H
  H3       1.0000 0.86000  0.16270  0.73730  Biso   1.000  H
  H4       1.0000 0.14000  0.66270  0.76270  Biso   1.000  H
  C13      1.0000 0.12800  0.71610  0.16860  Biso   1.000  C
  C14      1.0000 0.87200  0.21610  0.33140  Biso   1.000  C
  C15      1.0000 0.87200  0.28390  0.83140  Biso   1.000  C
  C16      1.0000 0.12800  0.78390  0.66860  Biso   1.000  C
  C17      1.0000 0.18750  0.65760  0.12300  Biso   1.000  C
  C18      1.0000 0.81250  0.15760  0.37700  Biso   1.000  C
  C19      1.0000 0.81250  0.34240  0.87700  Biso   1.000  C
  C20      1.0000 0.18750  0.84240  0.62300  Biso   1.000  C
  H5       1.0000 0.14060  0.61220  0.07160  Biso   1.000  H
  H6       1.0000 0.85940  0.11220  0.42840  Biso   1.000  H
  H7       1.0000 0.85940  0.38780  0.92840  Biso   1.000  H
  H8       1.0000 0.14060  0.88780  0.57160  Biso   1.000  H
  C21      1.0000 0.32840  0.66710  0.15640  Biso   1.000  C
  C22      1.0000 0.67160  0.16710  0.34360  Biso   1.000  C
  C23      1.0000 0.67160  0.33290  0.84360  Biso   1.000  C
  C24      1.0000 0.32840  0.83290  0.65640  Biso   1.000  C
  C25      1.0000 0.39180  0.73850  0.22720  Biso   1.000  C
  C26      1.0000 0.60820  0.23850  0.27280  Biso   1.000  C
  C27      1.0000 0.60820  0.26150  0.77280  Biso   1.000  C
  C28      1.0000 0.39180  0.76150  0.72720  Biso   1.000  C
  H9       1.0000 0.48270  0.74470  0.24830  Biso   1.000  H
  H10      1.0000 0.51730  0.24470  0.25170  Biso   1.000  H
  H11      1.0000 0.51730  0.25530  0.75170  Biso   1.000  H
  H12      1.0000 0.48270  0.75530  0.74830  Biso   1.000  H
  C29      1.0000 0.39430  0.60000  0.10430  Biso   1.000  C
  C30      1.0000 0.60570  0.10000  0.39570  Biso   1.000  C
  C31      1.0000 0.60570  0.40000  0.89570  Biso   1.000  C
  C32      1.0000 0.39430  0.90000  0.60430  Biso   1.000  C
  C33      1.0000 0.76510  0.74320  0.03670  Biso   1.000  C
  C34      1.0000 0.23490  0.24320  0.46330  Biso   1.000  C
  C35      1.0000 0.23490  0.25680  0.96330  Biso   1.000  C
  C36      1.0000 0.76510  0.75680  0.53670  Biso   1.000  C
  H13      1.0000 0.68590  0.77330  0.99640  Biso   1.000  H
  H14      1.0000 0.31410  0.27330  0.50360  Biso   1.000  H
  H15      1.0000 0.31410  0.22670  0.00360  Biso   1.000  H
  H16      1.0000 0.68590  0.72670  0.49640  Biso   1.000  H
  N1       1.0000 0.77930  0.65170  0.08920  Biso   1.000  N
  N2       1.0000 0.22070  0.15170  0.41080  Biso   1.000  N
  N3       1.0000 0.22070  0.34830  0.91080  Biso   1.000  N
  N4       1.0000 0.77930  0.84830  0.58920  Biso   1.000  N
  C37      1.0000 0.91610  0.63260  0.14140  Biso   1.000  C
  C38      1.0000 0.08390  0.13260  0.35860  Biso   1.000  C
  C39      1.0000 0.08390  0.36740  0.85860  Biso   1.000  C
  C40      1.0000 0.91610  0.86740  0.64140  Biso   1.000  C
  N5       1.0000 0.98640  0.71240  0.12110  Biso   1.000  N
  N6       1.0000 0.01360  0.21240  0.37890  Biso   1.000  N
  N7       1.0000 0.01360  0.28760  0.87890  Biso   1.000  N
  N8       1.0000 0.98640  0.78760  0.62110  Biso   1.000  N
  C41      1.0000 0.89310  0.78070  0.05640  Biso   1.000  C
  C42      1.0000 0.10690  0.28070  0.44360  Biso   1.000  C
  C43      1.0000 0.10690  0.21930  0.94360  Biso   1.000  C
  C44      1.0000 0.89310  0.71930  0.55640  Biso   1.000  C
  H17      1.0000 0.91250  0.83970  0.03130  Biso   1.000  H
  H18      1.0000 0.08750  0.33970  0.46870  Biso   1.000  H
  H19      1.0000 0.08750  0.16030  0.96870  Biso   1.000  H
  H20      1.0000 0.91250  0.66030  0.53130  Biso   1.000  H
  O1       1.0000 0.32950  0.95740  0.35310  Biso   1.000  O
  O2       1.0000 0.67050  0.45740  0.14690  Biso   1.000  O
  O3       1.0000 0.67050  0.04260  0.64690  Biso   1.000  O
  O4       1.0000 0.32950  0.54260  0.85310  Biso   1.000  O
  O5       1.0000 0.50860  0.85980  0.41180  Biso   1.000  O
  O6       1.0000 0.49140  0.35980  0.08820  Biso   1.000  O
  O7       1.0000 0.49140  0.14020  0.58820  Biso   1.000  O
  O8       1.0000 0.50860  0.64020  0.91180  Biso   1.000  O
  O9       1.0000 0.51380  0.62450  0.11710  Biso   1.000  O
  O10      1.0000 0.48620  0.12450  0.38290  Biso   1.000  O
  O11      1.0000 0.48620  0.37550  0.88290  Biso   1.000  O
  O12      1.0000 0.51380  0.87550  0.61710  Biso   1.000  O
  O13      1.0000 0.33420  0.52930  0.05270  Biso   1.000  O
  O14      1.0000 0.66580  0.02930  0.44730  Biso   1.000  O
  O15      1.0000 0.66580  0.47070  0.94730  Biso   1.000  O
  O16      1.0000 0.33420  0.97070  0.55270  Biso   1.000  O
  Cu1      1.0000 0.38937  0.05785  0.46271  Biso   1.000  Cu
  Cu2      1.0000 0.61063  0.55785  0.03729  Biso   1.000  Cu
  Cu3      1.0000 0.61063  0.94215  0.53729  Biso   1.000  Cu
  Cu4      1.0000 0.38937  0.44215  0.96271  Biso   1.000  Cu
  C45      1.0000 0.98300  0.53160  0.20800  Biso   1.000  C
  C46      1.0000 0.01700  0.03160  0.29200  Biso   1.000  C
  C47      1.0000 0.01700  0.46840  0.79200  Biso   1.000  C
  C48      1.0000 0.98300  0.96840  0.70800  Biso   1.000  C
  H21      1.0000 0.05980  0.55320  0.26750  Biso   1.000  H
  H22      1.0000 0.94020  0.05320  0.23250  Biso   1.000  H
  H23      1.0000 0.94020  0.44680  0.73250  Biso   1.000  H
  H24      1.0000 0.05980  0.94680  0.76750  Biso   1.000  H
  H25      1.0000 0.92060  0.50860  0.23840  Biso   1.000  H
  H26      1.0000 0.07940  0.00860  0.26160  Biso   1.000  H
  H27      1.0000 0.07940  0.49140  0.76160  Biso   1.000  H
  H28      1.0000 0.92060  0.99140  0.73840  Biso   1.000  H
  C49      1.0000 0.02900  0.43670  0.16400  Biso   1.000  C
  C50      1.0000 0.97100  0.93670  0.33600  Biso   1.000  C
  C51      1.0000 0.97100  0.56330  0.83600  Biso   1.000  C
  C52      1.0000 0.02900  0.06330  0.66400  Biso   1.000  C
  H29      1.0000 0.11260  0.41570  0.21410  Biso   1.000  H
  H30      1.0000 0.88740  0.91570  0.28590  Biso   1.000  H
  H31      1.0000 0.88740  0.58430  0.78590  Biso   1.000  H
  H32      1.0000 0.11260  0.08430  0.71410  Biso   1.000  H
  H33      1.0000 0.03640  0.45130  0.09650  Biso   1.000  H
  H34      1.0000 0.96360  0.95130  0.40350  Biso   1.000  H
  H35      1.0000 0.96360  0.54870  0.90350  Biso   1.000  H
  H36      1.0000 0.03640  0.04870  0.59650  Biso   1.000  H
  H37      1.0000 0.96500  0.38580  0.15380  Biso   1.000  H
  H38      1.0000 0.03500  0.88580  0.34620  Biso   1.000  H
  H39      1.0000 0.03500  0.61420  0.84620  Biso   1.000  H
  H40      1.0000 0.96500  0.11420  0.65380  Biso   1.000  H
