data_image0
_cell_length_a       24.1289
_cell_length_b       8.8057
_cell_length_c       19.9518
_cell_angle_alpha    90
_cell_angle_beta     123.509
_cell_angle_gamma    90

_symmetry_space_group_name_H-M    "P 1"
_symmetry_int_tables_number       1

loop_
  _symmetry_equiv_pos_as_xyz
  'x, y, z'

loop_
  _atom_site_label
  _atom_site_occupancy
  _atom_site_fract_x
  _atom_site_fract_y
  _atom_site_fract_z
  _atom_site_thermal_displace_type
  _atom_site_B_iso_or_equiv
  _atom_site_type_symbol
  Cu1      1.0000 0.14559  0.14891  0.08554  Biso   1.000  Cu
  Cu2      1.0000 0.64559  0.64891  0.08554  Biso   1.000  Cu
  Cu3      1.0000 0.85441  0.14891  0.41446  Biso   1.000  Cu
  Cu4      1.0000 0.35441  0.64891  0.41446  Biso   1.000  Cu
  Cu5      1.0000 0.85441  0.85109  0.91446  Biso   1.000  Cu
  Cu6      1.0000 0.35441  0.35109  0.91446  Biso   1.000  Cu
  Cu7      1.0000 0.14559  0.85109  0.58554  Biso   1.000  Cu
  Cu8      1.0000 0.64559  0.35109  0.58554  Biso   1.000  Cu
  C1       1.0000 0.06862  0.31760  0.93730  Biso   1.000  C
  C2       1.0000 0.56862  0.81760  0.93730  Biso   1.000  C
  C3       1.0000 0.93138  0.31760  0.56270  Biso   1.000  C
  C4       1.0000 0.43138  0.81760  0.56270  Biso   1.000  C
  C5       1.0000 0.93138  0.68240  0.06270  Biso   1.000  C
  C6       1.0000 0.43138  0.18240  0.06270  Biso   1.000  C
  C7       1.0000 0.06862  0.68240  0.43730  Biso   1.000  C
  C8       1.0000 0.56862  0.18240  0.43730  Biso   1.000  C
  H1       1.0000 0.10080  0.38980  0.96880  Biso   1.000  H
  H2       1.0000 0.60080  0.88980  0.96880  Biso   1.000  H
  H3       1.0000 0.89920  0.38980  0.53120  Biso   1.000  H
  H4       1.0000 0.39920  0.88980  0.53120  Biso   1.000  H
  H5       1.0000 0.89920  0.61020  0.03120  Biso   1.000  H
  H6       1.0000 0.39920  0.11020  0.03120  Biso   1.000  H
  H7       1.0000 0.10080  0.61020  0.46880  Biso   1.000  H
  H8       1.0000 0.60080  0.11020  0.46880  Biso   1.000  H
  C9       1.0000 0.01889  0.35740  0.86210  Biso   1.000  C
  C10      1.0000 0.51889  0.85740  0.86210  Biso   1.000  C
  C11      1.0000 0.98111  0.35740  0.63790  Biso   1.000  C
  C12      1.0000 0.48111  0.85740  0.63790  Biso   1.000  C
  C13      1.0000 0.98111  0.64260  0.13790  Biso   1.000  C
  C14      1.0000 0.48111  0.14260  0.13790  Biso   1.000  C
  C15      1.0000 0.01889  0.64260  0.36210  Biso   1.000  C
  C16      1.0000 0.51889  0.14260  0.36210  Biso   1.000  C
  H9       1.0000 0.01660  0.45510  0.84310  Biso   1.000  H
  H10      1.0000 0.51660  0.95510  0.84310  Biso   1.000  H
  H11      1.0000 0.98340  0.45510  0.65690  Biso   1.000  H
  H12      1.0000 0.48340  0.95510  0.65690  Biso   1.000  H
  H13      1.0000 0.98340  0.54490  0.15690  Biso   1.000  H
  H14      1.0000 0.48340  0.04490  0.15690  Biso   1.000  H
  H15      1.0000 0.01660  0.54490  0.34310  Biso   1.000  H
  H16      1.0000 0.51660  0.04490  0.34310  Biso   1.000  H
  C17      1.0000 0.97135  0.24970  0.81390  Biso   1.000  C
  C18      1.0000 0.47135  0.74970  0.81390  Biso   1.000  C
  C19      1.0000 0.02865  0.24970  0.68610  Biso   1.000  C
  C20      1.0000 0.52865  0.74970  0.68610  Biso   1.000  C
  C21      1.0000 0.02865  0.75030  0.18610  Biso   1.000  C
  C22      1.0000 0.52865  0.25030  0.18610  Biso   1.000  C
  C23      1.0000 0.97135  0.75030  0.31390  Biso   1.000  C
  C24      1.0000 0.47135  0.25030  0.31390  Biso   1.000  C
  H17      1.0000 0.93660  0.27400  0.76190  Biso   1.000  H
  H18      1.0000 0.43660  0.77400  0.76190  Biso   1.000  H
  H19      1.0000 0.06340  0.27400  0.73810  Biso   1.000  H
  H20      1.0000 0.56340  0.77400  0.73810  Biso   1.000  H
  H21      1.0000 0.06340  0.72600  0.23810  Biso   1.000  H
  H22      1.0000 0.56340  0.22600  0.23810  Biso   1.000  H
  H23      1.0000 0.93660  0.72600  0.26190  Biso   1.000  H
  H24      1.0000 0.43660  0.22600  0.26190  Biso   1.000  H
  C25      1.0000 0.97614  0.10780  0.84375  Biso   1.000  C
  C26      1.0000 0.47614  0.60780  0.84375  Biso   1.000  C
  C27      1.0000 0.02386  0.10780  0.65625  Biso   1.000  C
  C28      1.0000 0.52386  0.60780  0.65625  Biso   1.000  C
  C29      1.0000 0.02386  0.89220  0.15625  Biso   1.000  C
  C30      1.0000 0.52386  0.39220  0.15625  Biso   1.000  C
  C31      1.0000 0.97614  0.89220  0.34375  Biso   1.000  C
  C32      1.0000 0.47614  0.39220  0.34375  Biso   1.000  C
  H25      1.0000 0.94520  0.03370  0.81180  Biso   1.000  H
  H26      1.0000 0.44520  0.53370  0.81180  Biso   1.000  H
  H27      1.0000 0.05480  0.03370  0.68820  Biso   1.000  H
  H28      1.0000 0.55480  0.53370  0.68820  Biso   1.000  H
  H29      1.0000 0.05480  0.96630  0.18820  Biso   1.000  H
  H30      1.0000 0.55480  0.46630  0.18820  Biso   1.000  H
  H31      1.0000 0.94520  0.96630  0.31180  Biso   1.000  H
  H32      1.0000 0.44520  0.46630  0.31180  Biso   1.000  H
  C33      1.0000 0.02800  0.07400  0.92281  Biso   1.000  C
  C34      1.0000 0.52800  0.57400  0.92281  Biso   1.000  C
  C35      1.0000 0.97200  0.07400  0.57719  Biso   1.000  C
  C36      1.0000 0.47200  0.57400  0.57719  Biso   1.000  C
  C37      1.0000 0.97200  0.92600  0.07719  Biso   1.000  C
  C38      1.0000 0.47200  0.42600  0.07719  Biso   1.000  C
  C39      1.0000 0.02800  0.92600  0.42281  Biso   1.000  C
  C40      1.0000 0.52800  0.42600  0.42281  Biso   1.000  C
  C41      1.0000 0.07412  0.85820  0.02138  Biso   1.000  C
  C42      1.0000 0.57412  0.35820  0.02138  Biso   1.000  C
  C43      1.0000 0.92588  0.85820  0.47862  Biso   1.000  C
  C44      1.0000 0.42588  0.35820  0.47862  Biso   1.000  C
  C45      1.0000 0.92588  0.14180  0.97862  Biso   1.000  C
  C46      1.0000 0.42588  0.64180  0.97862  Biso   1.000  C
  C47      1.0000 0.07412  0.14180  0.52138  Biso   1.000  C
  C48      1.0000 0.57412  0.64180  0.52138  Biso   1.000  C
  C49      1.0000 0.06593  0.70170  0.02495  Biso   1.000  C
  C50      1.0000 0.56593  0.20170  0.02495  Biso   1.000  C
  C51      1.0000 0.93407  0.70170  0.47505  Biso   1.000  C
  C52      1.0000 0.43407  0.20170  0.47505  Biso   1.000  C
  C53      1.0000 0.93407  0.29830  0.97505  Biso   1.000  C
  C54      1.0000 0.43407  0.79830  0.97505  Biso   1.000  C
  C55      1.0000 0.06593  0.29830  0.52495  Biso   1.000  C
  C56      1.0000 0.56593  0.79830  0.52495  Biso   1.000  C
  H33      1.0000 0.03070  0.65130  0.98100  Biso   1.000  H
  H34      1.0000 0.53070  0.15130  0.98100  Biso   1.000  H
  H35      1.0000 0.96930  0.65130  0.51900  Biso   1.000  H
  H36      1.0000 0.46930  0.15130  0.51900  Biso   1.000  H
  H37      1.0000 0.96930  0.34870  0.01900  Biso   1.000  H
  H38      1.0000 0.46930  0.84870  0.01900  Biso   1.000  H
  H39      1.0000 0.03070  0.34870  0.48100  Biso   1.000  H
  H40      1.0000 0.53070  0.84870  0.48100  Biso   1.000  H
  C57      1.0000 0.10994  0.62350  0.09330  Biso   1.000  C
  C58      1.0000 0.60994  0.12350  0.09330  Biso   1.000  C
  C59      1.0000 0.89006  0.62350  0.40670  Biso   1.000  C
  C60      1.0000 0.39006  0.12350  0.40670  Biso   1.000  C
  C61      1.0000 0.89006  0.37650  0.90670  Biso   1.000  C
  C62      1.0000 0.39006  0.87650  0.90670  Biso   1.000  C
  C63      1.0000 0.10994  0.37650  0.59330  Biso   1.000  C
  C64      1.0000 0.60994  0.87650  0.59330  Biso   1.000  C
  H41      1.0000 0.10520  0.51940  0.09640  Biso   1.000  H
  H42      1.0000 0.60520  0.01940  0.09640  Biso   1.000  H
  H43      1.0000 0.89480  0.51940  0.40360  Biso   1.000  H
  H44      1.0000 0.39480  0.01940  0.40360  Biso   1.000  H
  H45      1.0000 0.89480  0.48060  0.90360  Biso   1.000  H
  H46      1.0000 0.39480  0.98060  0.90360  Biso   1.000  H
  H47      1.0000 0.10520  0.48060  0.59640  Biso   1.000  H
  H48      1.0000 0.60520  0.98060  0.59640  Biso   1.000  H
  C65      1.0000 0.16198  0.70160  0.15820  Biso   1.000  C
  C66      1.0000 0.66198  0.20160  0.15820  Biso   1.000  C
  C67      1.0000 0.83802  0.70160  0.34180  Biso   1.000  C
  C68      1.0000 0.33802  0.20160  0.34180  Biso   1.000  C
  C69      1.0000 0.83802  0.29840  0.84180  Biso   1.000  C
  C70      1.0000 0.33802  0.79840  0.84180  Biso   1.000  C
  C71      1.0000 0.16198  0.29840  0.65820  Biso   1.000  C
  C72      1.0000 0.66198  0.79840  0.65820  Biso   1.000  C
  H49      1.0000 0.19300  0.65080  0.20520  Biso   1.000  H
  H50      1.0000 0.69300  0.15080  0.20520  Biso   1.000  H
  H51      1.0000 0.80700  0.65080  0.29480  Biso   1.000  H
  H52      1.0000 0.30700  0.15080  0.29480  Biso   1.000  H
  H53      1.0000 0.80700  0.34920  0.79480  Biso   1.000  H
  H54      1.0000 0.30700  0.84920  0.79480  Biso   1.000  H
  H55      1.0000 0.19300  0.34920  0.70520  Biso   1.000  H
  H56      1.0000 0.69300  0.84920  0.70520  Biso   1.000  H
  C73      1.0000 0.16656  0.85360  0.15138  Biso   1.000  C
  C74      1.0000 0.66656  0.35360  0.15138  Biso   1.000  C
  C75      1.0000 0.83344  0.85360  0.34862  Biso   1.000  C
  C76      1.0000 0.33344  0.35360  0.34862  Biso   1.000  C
  C77      1.0000 0.83344  0.14640  0.84862  Biso   1.000  C
  C78      1.0000 0.33344  0.64640  0.84862  Biso   1.000  C
  C79      1.0000 0.16656  0.14640  0.65138  Biso   1.000  C
  C80      1.0000 0.66656  0.64640  0.65138  Biso   1.000  C
  H57      1.0000 0.20120  0.90550  0.19520  Biso   1.000  H
  H58      1.0000 0.70120  0.40550  0.19520  Biso   1.000  H
  H59      1.0000 0.79880  0.90550  0.30480  Biso   1.000  H
  H60      1.0000 0.29880  0.40550  0.30480  Biso   1.000  H
  H61      1.0000 0.79880  0.09450  0.80480  Biso   1.000  H
  H62      1.0000 0.29880  0.59450  0.80480  Biso   1.000  H
  H63      1.0000 0.20120  0.09450  0.69520  Biso   1.000  H
  H64      1.0000 0.70120  0.59450  0.69520  Biso   1.000  H
  C81      1.0000 0.25064  0.27010  0.10620  Biso   1.000  C
  C82      1.0000 0.75064  0.77010  0.10620  Biso   1.000  C
  C83      1.0000 0.74936  0.27010  0.39380  Biso   1.000  C
  C84      1.0000 0.24936  0.77010  0.39380  Biso   1.000  C
  C85      1.0000 0.74936  0.72990  0.89380  Biso   1.000  C
  C86      1.0000 0.24936  0.22990  0.89380  Biso   1.000  C
  C87      1.0000 0.25064  0.72990  0.60620  Biso   1.000  C
  C88      1.0000 0.75064  0.22990  0.60620  Biso   1.000  C
  C89      1.0000 0.30094  0.37820  0.10980  Biso   1.000  C
  C90      1.0000 0.80094  0.87820  0.10980  Biso   1.000  C
  C91      1.0000 0.69906  0.37820  0.39020  Biso   1.000  C
  C92      1.0000 0.19906  0.87820  0.39020  Biso   1.000  C
  C93      1.0000 0.69906  0.62180  0.89020  Biso   1.000  C
  C94      1.0000 0.19906  0.12180  0.89020  Biso   1.000  C
  C95      1.0000 0.30094  0.62180  0.60980  Biso   1.000  C
  C96      1.0000 0.80094  0.12180  0.60980  Biso   1.000  C
  H65      1.0000 0.33280  0.40530  0.16560  Biso   1.000  H
  H66      1.0000 0.83280  0.90530  0.16560  Biso   1.000  H
  H67      1.0000 0.66720  0.40530  0.33440  Biso   1.000  H
  H68      1.0000 0.16720  0.90530  0.33440  Biso   1.000  H
  H69      1.0000 0.66720  0.59470  0.83440  Biso   1.000  H
  H70      1.0000 0.16720  0.09470  0.83440  Biso   1.000  H
  H71      1.0000 0.33280  0.59470  0.66560  Biso   1.000  H
  H72      1.0000 0.83280  0.09470  0.66560  Biso   1.000  H
  H73      1.0000 0.32490  0.32560  0.09060  Biso   1.000  H
  H74      1.0000 0.82490  0.82560  0.09060  Biso   1.000  H
  H75      1.0000 0.67510  0.32560  0.40940  Biso   1.000  H
  H76      1.0000 0.17510  0.82560  0.40940  Biso   1.000  H
  H77      1.0000 0.67510  0.67440  0.90940  Biso   1.000  H
  H78      1.0000 0.17510  0.17440  0.90940  Biso   1.000  H
  H79      1.0000 0.32490  0.67440  0.59060  Biso   1.000  H
  H80      1.0000 0.82490  0.17440  0.59060  Biso   1.000  H
  C97      1.0000 0.36309  0.75480  0.29408  Biso   1.000  C
  C98      1.0000 0.86309  0.25480  0.29408  Biso   1.000  C
  C99      1.0000 0.63691  0.75480  0.20592  Biso   1.000  C
  C100     1.0000 0.13691  0.25480  0.20592  Biso   1.000  C
  C101     1.0000 0.63691  0.24520  0.70592  Biso   1.000  C
  C102     1.0000 0.13691  0.74520  0.70592  Biso   1.000  C
  C103     1.0000 0.36309  0.24520  0.79408  Biso   1.000  C
  C104     1.0000 0.86309  0.74520  0.79408  Biso   1.000  C
  C105     1.0000 0.33802  0.83500  0.21584  Biso   1.000  C
  C106     1.0000 0.83802  0.33500  0.21584  Biso   1.000  C
  C107     1.0000 0.66198  0.83500  0.28416  Biso   1.000  C
  C108     1.0000 0.16198  0.33500  0.28416  Biso   1.000  C
  C109     1.0000 0.66198  0.16500  0.78416  Biso   1.000  C
  C110     1.0000 0.16198  0.66500  0.78416  Biso   1.000  C
  C111     1.0000 0.33802  0.16500  0.71584  Biso   1.000  C
  C112     1.0000 0.83802  0.66500  0.71584  Biso   1.000  C
  H81      1.0000 0.30010  0.77950  0.17310  Biso   1.000  H
  H82      1.0000 0.80010  0.27950  0.17310  Biso   1.000  H
  H83      1.0000 0.69990  0.77950  0.32690  Biso   1.000  H
  H84      1.0000 0.19990  0.27950  0.32690  Biso   1.000  H
  H85      1.0000 0.69990  0.22050  0.82690  Biso   1.000  H
  H86      1.0000 0.19990  0.72050  0.82690  Biso   1.000  H
  H87      1.0000 0.30010  0.22050  0.67310  Biso   1.000  H
  H88      1.0000 0.80010  0.72050  0.67310  Biso   1.000  H
  H89      1.0000 0.32260  0.93530  0.21840  Biso   1.000  H
  H90      1.0000 0.82260  0.43530  0.21840  Biso   1.000  H
  H91      1.0000 0.67740  0.93530  0.28160  Biso   1.000  H
  H92      1.0000 0.17740  0.43530  0.28160  Biso   1.000  H
  H93      1.0000 0.67740  0.06470  0.78160  Biso   1.000  H
  H94      1.0000 0.17740  0.56470  0.78160  Biso   1.000  H
  H95      1.0000 0.32260  0.06470  0.71840  Biso   1.000  H
  H96      1.0000 0.82260  0.56470  0.71840  Biso   1.000  H
  C113     1.0000 0.38853  0.85190  0.19460  Biso   1.000  C
  C114     1.0000 0.88853  0.35190  0.19460  Biso   1.000  C
  C115     1.0000 0.61147  0.85190  0.30540  Biso   1.000  C
  C116     1.0000 0.11147  0.35190  0.30540  Biso   1.000  C
  C117     1.0000 0.61147  0.14810  0.80540  Biso   1.000  C
  C118     1.0000 0.11147  0.64810  0.80540  Biso   1.000  C
  C119     1.0000 0.38853  0.14810  0.69460  Biso   1.000  C
  C120     1.0000 0.88853  0.64810  0.69460  Biso   1.000  C
  H97      1.0000 0.42870  0.89550  0.24010  Biso   1.000  H
  H98      1.0000 0.92870  0.39550  0.24010  Biso   1.000  H
  H99      1.0000 0.57130  0.89550  0.25990  Biso   1.000  H
  H100     1.0000 0.07130  0.39550  0.25990  Biso   1.000  H
  H101     1.0000 0.57130  0.10450  0.75990  Biso   1.000  H
  H102     1.0000 0.07130  0.60450  0.75990  Biso   1.000  H
  H103     1.0000 0.42870  0.10450  0.74010  Biso   1.000  H
  H104     1.0000 0.92870  0.60450  0.74010  Biso   1.000  H
  H105     1.0000 0.37150  0.92270  0.15010  Biso   1.000  H
  H106     1.0000 0.87150  0.42270  0.15010  Biso   1.000  H
  H107     1.0000 0.62850  0.92270  0.34990  Biso   1.000  H
  H108     1.0000 0.12850  0.42270  0.34990  Biso   1.000  H
  H109     1.0000 0.62850  0.07730  0.84990  Biso   1.000  H
  H110     1.0000 0.12850  0.57730  0.84990  Biso   1.000  H
  H111     1.0000 0.37150  0.07730  0.65010  Biso   1.000  H
  H112     1.0000 0.87150  0.57730  0.65010  Biso   1.000  H
  C121     1.0000 0.27226  0.52050  0.06230  Biso   1.000  C
  C122     1.0000 0.77226  0.02050  0.06230  Biso   1.000  C
  C123     1.0000 0.72774  0.52050  0.43770  Biso   1.000  C
  C124     1.0000 0.22774  0.02050  0.43770  Biso   1.000  C
  C125     1.0000 0.72774  0.47950  0.93770  Biso   1.000  C
  C126     1.0000 0.22774  0.97950  0.93770  Biso   1.000  C
  C127     1.0000 0.27226  0.47950  0.56230  Biso   1.000  C
  C128     1.0000 0.77226  0.97950  0.56230  Biso   1.000  C
  H113     1.0000 0.25480  0.58130  0.08710  Biso   1.000  H
  H114     1.0000 0.75480  0.08130  0.08710  Biso   1.000  H
  H115     1.0000 0.74520  0.58130  0.41290  Biso   1.000  H
  H116     1.0000 0.24520  0.08130  0.41290  Biso   1.000  H
  H117     1.0000 0.74520  0.41870  0.91290  Biso   1.000  H
  H118     1.0000 0.24520  0.91870  0.91290  Biso   1.000  H
  H119     1.0000 0.25480  0.41870  0.58710  Biso   1.000  H
  H120     1.0000 0.75480  0.91870  0.58710  Biso   1.000  H
  H121     1.0000 0.23530  0.49370  0.00870  Biso   1.000  H
  H122     1.0000 0.73530  0.99370  0.00870  Biso   1.000  H
  H123     1.0000 0.76470  0.49370  0.49130  Biso   1.000  H
  H124     1.0000 0.26470  0.99370  0.49130  Biso   1.000  H
  H125     1.0000 0.76470  0.50630  0.99130  Biso   1.000  H
  H126     1.0000 0.26470  0.00630  0.99130  Biso   1.000  H
  H127     1.0000 0.23530  0.50630  0.50870  Biso   1.000  H
  H128     1.0000 0.73530  0.00630  0.50870  Biso   1.000  H
  N1       1.0000 0.07421  0.17790  0.96959  Biso   1.000  N
  N2       1.0000 0.57421  0.67790  0.96959  Biso   1.000  N
  N3       1.0000 0.92579  0.17790  0.53041  Biso   1.000  N
  N4       1.0000 0.42579  0.67790  0.53041  Biso   1.000  N
  N5       1.0000 0.92579  0.82210  0.03041  Biso   1.000  N
  N6       1.0000 0.42579  0.32210  0.03041  Biso   1.000  N
  N7       1.0000 0.07421  0.82210  0.46959  Biso   1.000  N
  N8       1.0000 0.57421  0.32210  0.46959  Biso   1.000  N
  N9       1.0000 0.12345  0.93430  0.08427  Biso   1.000  N
  N10      1.0000 0.62345  0.43430  0.08427  Biso   1.000  N
  N11      1.0000 0.87655  0.93430  0.41573  Biso   1.000  N
  N12      1.0000 0.37655  0.43430  0.41573  Biso   1.000  N
  N13      1.0000 0.87655  0.06570  0.91573  Biso   1.000  N
  N14      1.0000 0.37655  0.56570  0.91573  Biso   1.000  N
  N15      1.0000 0.12345  0.06570  0.58427  Biso   1.000  N
  N16      1.0000 0.62345  0.56570  0.58427  Biso   1.000  N
  N17      1.0000 0.02888  0.93140  0.95075  Biso   1.000  N
  N18      1.0000 0.52888  0.43140  0.95075  Biso   1.000  N
  N19      1.0000 0.97112  0.93140  0.54925  Biso   1.000  N
  N20      1.0000 0.47112  0.43140  0.54925  Biso   1.000  N
  N21      1.0000 0.97112  0.06860  0.04925  Biso   1.000  N
  N22      1.0000 0.47112  0.56860  0.04925  Biso   1.000  N
  N23      1.0000 0.02888  0.06860  0.45075  Biso   1.000  N
  N24      1.0000 0.52888  0.56860  0.45075  Biso   1.000  N
  H129     1.0000 0.99470  0.87730  0.91790  Biso   1.000  H
  H130     1.0000 0.49470  0.37730  0.91790  Biso   1.000  H
  H131     1.0000 0.00530  0.87730  0.58210  Biso   1.000  H
  H132     1.0000 0.50530  0.37730  0.58210  Biso   1.000  H
  H133     1.0000 0.00530  0.12270  0.08210  Biso   1.000  H
  H134     1.0000 0.50530  0.62270  0.08210  Biso   1.000  H
  H135     1.0000 0.99470  0.12270  0.41790  Biso   1.000  H
  H136     1.0000 0.49470  0.62270  0.41790  Biso   1.000  H
  O1       1.0000 0.19526  0.32620  0.08800  Biso   1.000  O
  O2       1.0000 0.69526  0.82620  0.08800  Biso   1.000  O
  O3       1.0000 0.80474  0.32620  0.41200  Biso   1.000  O
  O4       1.0000 0.30474  0.82620  0.41200  Biso   1.000  O
  O5       1.0000 0.80474  0.67380  0.91200  Biso   1.000  O
  O6       1.0000 0.30474  0.17380  0.91200  Biso   1.000  O
  O7       1.0000 0.19526  0.67380  0.58800  Biso   1.000  O
  O8       1.0000 0.69526  0.17380  0.58800  Biso   1.000  O
  O9       1.0000 0.26315  0.13460  0.11942  Biso   1.000  O
  O10      1.0000 0.76315  0.63460  0.11942  Biso   1.000  O
  O11      1.0000 0.73685  0.13460  0.38058  Biso   1.000  O
  O12      1.0000 0.23685  0.63460  0.38058  Biso   1.000  O
  O13      1.0000 0.73685  0.86540  0.88058  Biso   1.000  O
  O14      1.0000 0.23685  0.36540  0.88058  Biso   1.000  O
  O15      1.0000 0.26315  0.86540  0.61942  Biso   1.000  O
  O16      1.0000 0.76315  0.36540  0.61942  Biso   1.000  O
  O17      1.0000 0.32079  0.68220  0.30018  Biso   1.000  O
  O18      1.0000 0.82079  0.18220  0.30018  Biso   1.000  O
  O19      1.0000 0.67921  0.68220  0.19982  Biso   1.000  O
  O20      1.0000 0.17921  0.18220  0.19982  Biso   1.000  O
  O21      1.0000 0.67921  0.31780  0.69982  Biso   1.000  O
  O22      1.0000 0.17921  0.81780  0.69982  Biso   1.000  O
  O23      1.0000 0.32079  0.31780  0.80018  Biso   1.000  O
  O24      1.0000 0.82079  0.81780  0.80018  Biso   1.000  O
  O25      1.0000 0.42232  0.76810  0.35064  Biso   1.000  O
  O26      1.0000 0.92232  0.26810  0.35064  Biso   1.000  O
  O27      1.0000 0.57768  0.76810  0.14936  Biso   1.000  O
  O28      1.0000 0.07768  0.26810  0.14936  Biso   1.000  O
  O29      1.0000 0.57768  0.23190  0.64936  Biso   1.000  O
  O30      1.0000 0.07768  0.73190  0.64936  Biso   1.000  O
  O31      1.0000 0.42232  0.23190  0.85064  Biso   1.000  O
  O32      1.0000 0.92232  0.73190  0.85064  Biso   1.000  O
  S1       1.0000 0.40965  0.67566  0.16695  Biso   1.000  S
  S2       1.0000 0.90965  0.17566  0.16695  Biso   1.000  S
  S3       1.0000 0.59035  0.67566  0.33305  Biso   1.000  S
  S4       1.0000 0.09035  0.17566  0.33305  Biso   1.000  S
  S5       1.0000 0.59035  0.32434  0.83305  Biso   1.000  S
  S6       1.0000 0.09035  0.82434  0.83305  Biso   1.000  S
  S7       1.0000 0.40965  0.32434  0.66695  Biso   1.000  S
  S8       1.0000 0.90965  0.82434  0.66695  Biso   1.000  S
  S9       1.0000 0.33039  0.63573  0.05342  Biso   1.000  S
  S10      1.0000 0.83039  0.13573  0.05342  Biso   1.000  S
  S11      1.0000 0.66961  0.63573  0.44658  Biso   1.000  S
  S12      1.0000 0.16961  0.13573  0.44658  Biso   1.000  S
  S13      1.0000 0.66961  0.36427  0.94658  Biso   1.000  S
  S14      1.0000 0.16961  0.86427  0.94658  Biso   1.000  S
  S15      1.0000 0.33039  0.36427  0.55342  Biso   1.000  S
  S16      1.0000 0.83039  0.86427  0.55342  Biso   1.000  S
