data_image0
_cell_length_a       7.226
_cell_length_b       15.23
_cell_length_c       18.222
_cell_angle_alpha    90
_cell_angle_beta     92.19
_cell_angle_gamma    90

_symmetry_space_group_name_H-M    "P 1"
_symmetry_int_tables_number       1

loop_
  _symmetry_equiv_pos_as_xyz
  'x, y, z'

loop_
  _atom_site_label
  _atom_site_occupancy
  _atom_site_fract_x
  _atom_site_fract_y
  _atom_site_fract_z
  _atom_site_thermal_displace_type
  _atom_site_B_iso_or_equiv
  _atom_site_type_symbol
  Cu1      1.0000 0.43020  0.75499  0.48148  Biso   1.000  Cu
  Cu2      1.0000 0.56980  0.25499  0.01852  Biso   1.000  Cu
  Cu3      1.0000 0.56980  0.24501  0.51852  Biso   1.000  Cu
  Cu4      1.0000 0.43020  0.74501  0.98148  Biso   1.000  Cu
  S1       1.0000 0.98859  0.84555  0.29926  Biso   1.000  S
  S2       1.0000 0.01141  0.34555  0.20074  Biso   1.000  S
  S3       1.0000 0.01141  0.15445  0.70074  Biso   1.000  S
  S4       1.0000 0.98859  0.65445  0.79926  Biso   1.000  S
  S5       1.0000 0.02624  0.70449  0.18212  Biso   1.000  S
  S6       1.0000 0.97376  0.20449  0.31788  Biso   1.000  S
  S7       1.0000 0.97376  0.29551  0.81788  Biso   1.000  S
  S8       1.0000 0.02624  0.79551  0.68212  Biso   1.000  S
  S9       1.0000 0.84385  0.54647  0.10634  Biso   1.000  S
  S10      1.0000 0.15615  0.04647  0.39366  Biso   1.000  S
  S11      1.0000 0.15615  0.45353  0.89366  Biso   1.000  S
  S12      1.0000 0.84385  0.95353  0.60634  Biso   1.000  S
  O1       1.0000 0.52300  0.81527  0.39541  Biso   1.000  O
  O2       1.0000 0.47700  0.31527  0.10459  Biso   1.000  O
  O3       1.0000 0.47700  0.18473  0.60459  Biso   1.000  O
  O4       1.0000 0.52300  0.68473  0.89541  Biso   1.000  O
  O5       1.0000 0.15090  0.81400  0.48270  Biso   1.000  O
  O6       1.0000 0.84910  0.31400  0.01730  Biso   1.000  O
  O7       1.0000 0.84910  0.18600  0.51730  Biso   1.000  O
  O8       1.0000 0.15090  0.68600  0.98270  Biso   1.000  O
  H1       1.0000 0.04100  0.80100  0.46900  Biso   1.000  H
  H2       1.0000 0.95900  0.30100  0.03100  Biso   1.000  H
  H3       1.0000 0.95900  0.19900  0.53100  Biso   1.000  H
  H4       1.0000 0.04100  0.69900  0.96900  Biso   1.000  H
  H5       1.0000 0.15100  0.85300  0.51600  Biso   1.000  H
  H6       1.0000 0.84900  0.35300  0.98400  Biso   1.000  H
  H7       1.0000 0.84900  0.14700  0.48400  Biso   1.000  H
  H8       1.0000 0.15100  0.64700  0.01600  Biso   1.000  H
  O9       1.0000 0.80010  0.76688  0.43470  Biso   1.000  O
  O10      1.0000 0.19990  0.26688  0.06530  Biso   1.000  O
  O11      1.0000 0.19990  0.23312  0.56530  Biso   1.000  O
  O12      1.0000 0.80010  0.73312  0.93470  Biso   1.000  O
  N1       1.0000 0.35150  0.64695  0.42210  Biso   1.000  N
  N2       1.0000 0.64850  0.14695  0.07790  Biso   1.000  N
  N3       1.0000 0.64850  0.35305  0.57790  Biso   1.000  N
  N4       1.0000 0.35150  0.85305  0.92210  Biso   1.000  N
  N5       1.0000 0.39020  0.66975  0.56652  Biso   1.000  N
  N6       1.0000 0.60980  0.16975  0.93348  Biso   1.000  N
  N7       1.0000 0.60980  0.33025  0.43348  Biso   1.000  N
  N8       1.0000 0.39020  0.83025  0.06652  Biso   1.000  N
  N9       1.0000 0.73770  0.72190  0.25759  Biso   1.000  N
  N10      1.0000 0.26230  0.22190  0.24241  Biso   1.000  N
  N11      1.0000 0.26230  0.27810  0.74241  Biso   1.000  N
  N12      1.0000 0.73770  0.77810  0.75759  Biso   1.000  N
  N13      1.0000 0.70400  0.64910  0.21182  Biso   1.000  N
  N14      1.0000 0.29600  0.14910  0.28818  Biso   1.000  N
  N15      1.0000 0.29600  0.35090  0.78818  Biso   1.000  N
  N16      1.0000 0.70400  0.85090  0.71182  Biso   1.000  N
  C1       1.0000 0.33820  0.63780  0.34950  Biso   1.000  C
  C2       1.0000 0.66180  0.13780  0.15050  Biso   1.000  C
  C3       1.0000 0.66180  0.36220  0.65050  Biso   1.000  C
  C4       1.0000 0.33820  0.86220  0.84950  Biso   1.000  C
  H9       1.0000 0.37260  0.68420  0.31980  Biso   1.000  H
  H10      1.0000 0.62740  0.18420  0.18020  Biso   1.000  H
  H11      1.0000 0.62740  0.31580  0.68020  Biso   1.000  H
  H12      1.0000 0.37260  0.81580  0.81980  Biso   1.000  H
  C5       1.0000 0.27300  0.55910  0.31630  Biso   1.000  C
  C6       1.0000 0.72700  0.05910  0.18370  Biso   1.000  C
  C7       1.0000 0.72700  0.44090  0.68370  Biso   1.000  C
  C8       1.0000 0.27300  0.94090  0.81630  Biso   1.000  C
  H13      1.0000 0.26440  0.55430  0.26540  Biso   1.000  H
  H14      1.0000 0.73560  0.05430  0.23460  Biso   1.000  H
  H15      1.0000 0.73560  0.44570  0.73460  Biso   1.000  H
  H16      1.0000 0.26440  0.94570  0.76540  Biso   1.000  H
  C9       1.0000 0.22230  0.48980  0.35960  Biso   1.000  C
  C10      1.0000 0.77770  0.98980  0.14040  Biso   1.000  C
  C11      1.0000 0.77770  0.51020  0.64040  Biso   1.000  C
  C12      1.0000 0.22230  0.01020  0.85960  Biso   1.000  C
  H17      1.0000 0.17780  0.43820  0.33800  Biso   1.000  H
  H18      1.0000 0.82220  0.93820  0.16200  Biso   1.000  H
  H19      1.0000 0.82220  0.56180  0.66200  Biso   1.000  H
  H20      1.0000 0.17780  0.06180  0.83800  Biso   1.000  H
  C13      1.0000 0.23810  0.49720  0.43680  Biso   1.000  C
  C14      1.0000 0.76190  0.99720  0.06320  Biso   1.000  C
  C15      1.0000 0.76190  0.50280  0.56320  Biso   1.000  C
  C16      1.0000 0.23810  0.00280  0.93680  Biso   1.000  C
  C17      1.0000 0.19630  0.42790  0.48810  Biso   1.000  C
  C18      1.0000 0.80370  0.92790  0.01190  Biso   1.000  C
  C19      1.0000 0.80370  0.57210  0.51190  Biso   1.000  C
  C20      1.0000 0.19630  0.07210  0.98810  Biso   1.000  C
  H21      1.0000 0.15730  0.37350  0.47020  Biso   1.000  H
  H22      1.0000 0.84270  0.87350  0.02980  Biso   1.000  H
  H23      1.0000 0.84270  0.62650  0.52980  Biso   1.000  H
  H24      1.0000 0.15730  0.12650  0.97020  Biso   1.000  H
  C21      1.0000 0.21250  0.44050  0.56110  Biso   1.000  C
  C22      1.0000 0.78750  0.94050  0.93890  Biso   1.000  C
  C23      1.0000 0.78750  0.55950  0.43890  Biso   1.000  C
  C24      1.0000 0.21250  0.05950  0.06110  Biso   1.000  C
  H25      1.0000 0.18200  0.39510  0.59260  Biso   1.000  H
  H26      1.0000 0.81800  0.89510  0.90740  Biso   1.000  H
  H27      1.0000 0.81800  0.60490  0.40740  Biso   1.000  H
  H28      1.0000 0.18200  0.10490  0.09260  Biso   1.000  H
  C25      1.0000 0.27620  0.52280  0.59150  Biso   1.000  C
  C26      1.0000 0.72380  0.02280  0.90850  Biso   1.000  C
  C27      1.0000 0.72380  0.47720  0.40850  Biso   1.000  C
  C28      1.0000 0.27620  0.97720  0.09150  Biso   1.000  C
  C29      1.0000 0.29880  0.54090  0.66780  Biso   1.000  C
  C30      1.0000 0.70120  0.04090  0.83220  Biso   1.000  C
  C31      1.0000 0.70120  0.45910  0.33220  Biso   1.000  C
  C32      1.0000 0.29880  0.95910  0.16780  Biso   1.000  C
  H29      1.0000 0.26840  0.49870  0.70220  Biso   1.000  H
  H30      1.0000 0.73160  0.99870  0.79780  Biso   1.000  H
  H31      1.0000 0.73160  0.50130  0.29780  Biso   1.000  H
  H32      1.0000 0.26840  0.00130  0.20220  Biso   1.000  H
  C33      1.0000 0.36640  0.62170  0.69060  Biso   1.000  C
  C34      1.0000 0.63360  0.12170  0.80940  Biso   1.000  C
  C35      1.0000 0.63360  0.37830  0.30940  Biso   1.000  C
  C36      1.0000 0.36640  0.87830  0.19060  Biso   1.000  C
  H33      1.0000 0.38100  0.63430  0.74040  Biso   1.000  H
  H34      1.0000 0.61900  0.13430  0.75960  Biso   1.000  H
  H35      1.0000 0.61900  0.36570  0.25960  Biso   1.000  H
  H36      1.0000 0.38100  0.86570  0.24040  Biso   1.000  H
  C37      1.0000 0.41290  0.68450  0.63819  Biso   1.000  C
  C38      1.0000 0.58710  0.18450  0.86181  Biso   1.000  C
  C39      1.0000 0.58710  0.31550  0.36181  Biso   1.000  C
  C40      1.0000 0.41290  0.81550  0.13819  Biso   1.000  C
  H37      1.0000 0.46100  0.73820  0.65400  Biso   1.000  H
  H38      1.0000 0.53900  0.23820  0.84600  Biso   1.000  H
  H39      1.0000 0.53900  0.26180  0.34600  Biso   1.000  H
  H40      1.0000 0.46100  0.76180  0.15400  Biso   1.000  H
  C41      1.0000 0.32340  0.59080  0.54331  Biso   1.000  C
  C42      1.0000 0.67660  0.09080  0.95669  Biso   1.000  C
  C43      1.0000 0.67660  0.40920  0.45669  Biso   1.000  C
  C44      1.0000 0.32340  0.90920  0.04331  Biso   1.000  C
  C45      1.0000 0.30320  0.57810  0.46514  Biso   1.000  C
  C46      1.0000 0.69680  0.07810  0.03486  Biso   1.000  C
  C47      1.0000 0.69680  0.42190  0.53486  Biso   1.000  C
  C48      1.0000 0.30320  0.92190  0.96514  Biso   1.000  C
  C49      1.0000 0.69960  0.81329  0.39506  Biso   1.000  C
  C50      1.0000 0.30040  0.31329  0.10494  Biso   1.000  C
  C51      1.0000 0.30040  0.18671  0.60494  Biso   1.000  C
  C52      1.0000 0.69960  0.68671  0.89506  Biso   1.000  C
  C53      1.0000 0.77880  0.87930  0.34144  Biso   1.000  C
  C54      1.0000 0.22120  0.37930  0.15856  Biso   1.000  C
  C55      1.0000 0.22120  0.12070  0.65856  Biso   1.000  C
  C56      1.0000 0.77880  0.62070  0.84144  Biso   1.000  C
  H41      1.0000 0.80270  0.93400  0.36740  Biso   1.000  H
  H42      1.0000 0.19730  0.43400  0.13260  Biso   1.000  H
  H43      1.0000 0.19730  0.06600  0.63260  Biso   1.000  H
  H44      1.0000 0.80270  0.56600  0.86740  Biso   1.000  H
  H45      1.0000 0.68560  0.89100  0.30300  Biso   1.000  H
  H46      1.0000 0.31440  0.39100  0.19700  Biso   1.000  H
  H47      1.0000 0.31440  0.10900  0.69700  Biso   1.000  H
  H48      1.0000 0.68560  0.60900  0.80300  Biso   1.000  H
  C57      1.0000 0.89900  0.75570  0.24900  Biso   1.000  C
  C58      1.0000 0.10100  0.25570  0.25100  Biso   1.000  C
  C59      1.0000 0.10100  0.24430  0.75100  Biso   1.000  C
  C60      1.0000 0.89900  0.74430  0.74900  Biso   1.000  C
  C61      1.0000 0.84120  0.63220  0.17009  Biso   1.000  C
  C62      1.0000 0.15880  0.13220  0.32991  Biso   1.000  C
  C63      1.0000 0.15880  0.36780  0.82991  Biso   1.000  C
  C64      1.0000 0.84120  0.86780  0.67009  Biso   1.000  C
  C65      1.0000 0.60300  0.51830  0.10691  Biso   1.000  C
  C66      1.0000 0.39700  0.01830  0.39309  Biso   1.000  C
  C67      1.0000 0.39700  0.48170  0.89309  Biso   1.000  C
  C68      1.0000 0.60300  0.98170  0.60691  Biso   1.000  C
  H49      1.0000 0.58330  0.46590  0.07740  Biso   1.000  H
  H50      1.0000 0.41670  0.96590  0.42260  Biso   1.000  H
  H51      1.0000 0.41670  0.53410  0.92260  Biso   1.000  H
  H52      1.0000 0.58330  0.03410  0.57740  Biso   1.000  H
  H53      1.0000 0.57240  0.50380  0.15690  Biso   1.000  H
  H54      1.0000 0.42760  0.00380  0.34310  Biso   1.000  H
  H55      1.0000 0.42760  0.49620  0.84310  Biso   1.000  H
  H56      1.0000 0.57240  0.99620  0.65690  Biso   1.000  H
  C69      1.0000 0.46820  0.58970  0.07819  Biso   1.000  C
  C70      1.0000 0.53180  0.08970  0.42181  Biso   1.000  C
  C71      1.0000 0.53180  0.41030  0.92181  Biso   1.000  C
  C72      1.0000 0.46820  0.91030  0.57819  Biso   1.000  C
  O13      1.0000 0.53780  0.65280  0.04436  Biso   1.000  O
  O14      1.0000 0.46220  0.15280  0.45564  Biso   1.000  O
  O15      1.0000 0.46220  0.34720  0.95564  Biso   1.000  O
  O16      1.0000 0.53780  0.84720  0.54436  Biso   1.000  O
  O17      1.0000 0.30410  0.57910  0.09030  Biso   1.000  O
  O18      1.0000 0.69590  0.07910  0.40970  Biso   1.000  O
  O19      1.0000 0.69590  0.42090  0.90970  Biso   1.000  O
  O20      1.0000 0.30410  0.92090  0.59030  Biso   1.000  O
