data_image0
_cell_length_a       9.28
_cell_length_b       25.558
_cell_length_c       7.7981
_cell_angle_alpha    90
_cell_angle_beta     97.3
_cell_angle_gamma    90

_symmetry_space_group_name_H-M    "P 1"
_symmetry_int_tables_number       1

loop_
  _symmetry_equiv_pos_as_xyz
  'x, y, z'

loop_
  _atom_site_label
  _atom_site_occupancy
  _atom_site_fract_x
  _atom_site_fract_y
  _atom_site_fract_z
  _atom_site_thermal_displace_type
  _atom_site_B_iso_or_equiv
  _atom_site_type_symbol
  H1       1.0000 0.19000  0.72400  0.85700  Biso   1.000  H
  H2       1.0000 0.81000  0.22400  0.64300  Biso   1.000  H
  H3       1.0000 0.81000  0.27600  0.14300  Biso   1.000  H
  H4       1.0000 0.19000  0.77600  0.35700  Biso   1.000  H
  H5       1.0000 0.23300  0.76050  0.96300  Biso   1.000  H
  H6       1.0000 0.76700  0.26050  0.53700  Biso   1.000  H
  H7       1.0000 0.76700  0.23950  0.03700  Biso   1.000  H
  H8       1.0000 0.23300  0.73950  0.46300  Biso   1.000  H
  H9       1.0000 0.14600  0.68600  0.10700  Biso   1.000  H
  H10      1.0000 0.85400  0.18600  0.39300  Biso   1.000  H
  H11      1.0000 0.85400  0.31400  0.89300  Biso   1.000  H
  H12      1.0000 0.14600  0.81400  0.60700  Biso   1.000  H
  H13      1.0000 0.03600  0.56400  0.68300  Biso   1.000  H
  H14      1.0000 0.96400  0.06400  0.81700  Biso   1.000  H
  H15      1.0000 0.96400  0.43600  0.31700  Biso   1.000  H
  H16      1.0000 0.03600  0.93600  0.18300  Biso   1.000  H
  H17      1.0000 0.94500  0.60400  0.73300  Biso   1.000  H
  H18      1.0000 0.05500  0.10400  0.76700  Biso   1.000  H
  H19      1.0000 0.05500  0.39600  0.26700  Biso   1.000  H
  H20      1.0000 0.94500  0.89600  0.23300  Biso   1.000  H
  H21      1.0000 0.01800  0.53900  0.31900  Biso   1.000  H
  H22      1.0000 0.98200  0.03900  0.18100  Biso   1.000  H
  H23      1.0000 0.98200  0.46100  0.68100  Biso   1.000  H
  H24      1.0000 0.01800  0.96100  0.81900  Biso   1.000  H
  Eu1      1.0000 0.98723  0.65044  0.41271  Biso   1.000  Eu
  Eu2      1.0000 0.01277  0.15044  0.08729  Biso   1.000  Eu
  Eu3      1.0000 0.01277  0.34956  0.58729  Biso   1.000  Eu
  Eu4      1.0000 0.98723  0.84956  0.91271  Biso   1.000  Eu
  Cu1      1.0000 0.50000  0.50000  0.50000  Biso   1.000  Cu
  Cu2      1.0000 0.50000  0.00000  0.00000  Biso   1.000  Cu
  O1       1.0000 0.00860  0.70634  0.66650  Biso   1.000  O
  O2       1.0000 0.99140  0.20634  0.83350  Biso   1.000  O
  O3       1.0000 0.99140  0.29366  0.33350  Biso   1.000  O
  O4       1.0000 0.00860  0.79366  0.16650  Biso   1.000  O
  O5       1.0000 0.90790  0.76574  0.82240  Biso   1.000  O
  O6       1.0000 0.09210  0.26574  0.67760  Biso   1.000  O
  O7       1.0000 0.09210  0.23426  0.17760  Biso   1.000  O
  O8       1.0000 0.90790  0.73426  0.32240  Biso   1.000  O
  O9       1.0000 0.23670  0.65651  0.50650  Biso   1.000  O
  O10      1.0000 0.76330  0.15651  0.99350  Biso   1.000  O
  O11      1.0000 0.76330  0.34349  0.49350  Biso   1.000  O
  O12      1.0000 0.23670  0.84349  0.00650  Biso   1.000  O
  O13      1.0000 0.10110  0.66375  0.15160  Biso   1.000  O
  O14      1.0000 0.89890  0.16375  0.34840  Biso   1.000  O
  O15      1.0000 0.89890  0.33625  0.84840  Biso   1.000  O
  O16      1.0000 0.10110  0.83625  0.65160  Biso   1.000  O
  H25      1.0000 0.04910  0.65140  0.06840  Biso   1.000  H
  H26      1.0000 0.95090  0.15140  0.43160  Biso   1.000  H
  H27      1.0000 0.95090  0.34860  0.93160  Biso   1.000  H
  H28      1.0000 0.04910  0.84860  0.56840  Biso   1.000  H
  O17      1.0000 0.06310  0.56515  0.32660  Biso   1.000  O
  O18      1.0000 0.93690  0.06515  0.17340  Biso   1.000  O
  O19      1.0000 0.93690  0.43485  0.67340  Biso   1.000  O
  O20      1.0000 0.06310  0.93485  0.82660  Biso   1.000  O
  H29      1.0000 0.15200  0.56340  0.34150  Biso   1.000  H
  H30      1.0000 0.84800  0.06340  0.15850  Biso   1.000  H
  H31      1.0000 0.84800  0.43660  0.65850  Biso   1.000  H
  H32      1.0000 0.15200  0.93660  0.84150  Biso   1.000  H
  O21      1.0000 0.79460  0.62296  0.19880  Biso   1.000  O
  O22      1.0000 0.20540  0.12296  0.30120  Biso   1.000  O
  O23      1.0000 0.20540  0.37704  0.80120  Biso   1.000  O
  O24      1.0000 0.79460  0.87704  0.69880  Biso   1.000  O
  O25      1.0000 0.88450  0.61707  0.94930  Biso   1.000  O
  O26      1.0000 0.11550  0.11707  0.55070  Biso   1.000  O
  O27      1.0000 0.11550  0.38293  0.05070  Biso   1.000  O
  O28      1.0000 0.88450  0.88293  0.44930  Biso   1.000  O
  O29      1.0000 0.35810  0.58874  0.41100  Biso   1.000  O
  O30      1.0000 0.64190  0.08874  0.08900  Biso   1.000  O
  O31      1.0000 0.64190  0.41126  0.58900  Biso   1.000  O
  O32      1.0000 0.35810  0.91126  0.91100  Biso   1.000  O
  O33      1.0000 0.15870  0.50837  0.75190  Biso   1.000  O
  O34      1.0000 0.84130  0.00837  0.74810  Biso   1.000  O
  O35      1.0000 0.84130  0.49163  0.24810  Biso   1.000  O
  O36      1.0000 0.15870  0.99163  0.25190  Biso   1.000  O
  O37      1.0000 0.30910  0.48354  0.56360  Biso   1.000  O
  O38      1.0000 0.69090  0.98354  0.93640  Biso   1.000  O
  O39      1.0000 0.69090  0.51646  0.43640  Biso   1.000  O
  O40      1.0000 0.30910  0.01646  0.06360  Biso   1.000  O
  O41      1.0000 0.24540  0.72726  0.93700  Biso   1.000  O
  O42      1.0000 0.75460  0.22726  0.56300  Biso   1.000  O
  O43      1.0000 0.75460  0.27274  0.06300  Biso   1.000  O
  O44      1.0000 0.24540  0.77274  0.43700  Biso   1.000  O
  O45      1.0000 0.97820  0.59115  0.64990  Biso   1.000  O
  O46      1.0000 0.02180  0.09115  0.85010  Biso   1.000  O
  O47      1.0000 0.02180  0.40885  0.35010  Biso   1.000  O
  O48      1.0000 0.97820  0.90885  0.14990  Biso   1.000  O
  N1       1.0000 0.74890  0.66637  0.54590  Biso   1.000  N
  N2       1.0000 0.25110  0.16637  0.95410  Biso   1.000  N
  N3       1.0000 0.25110  0.33363  0.45410  Biso   1.000  N
  N4       1.0000 0.74890  0.83363  0.04590  Biso   1.000  N
  N5       1.0000 0.52940  0.53343  0.72940  Biso   1.000  N
  N6       1.0000 0.47060  0.03343  0.77060  Biso   1.000  N
  N7       1.0000 0.47060  0.46657  0.27060  Biso   1.000  N
  N8       1.0000 0.52940  0.96657  0.22940  Biso   1.000  N
  C1       1.0000 0.75270  0.70497  0.66290  Biso   1.000  C
  C2       1.0000 0.24730  0.20497  0.83710  Biso   1.000  C
  C3       1.0000 0.24730  0.29503  0.33710  Biso   1.000  C
  C4       1.0000 0.75270  0.79503  0.16290  Biso   1.000  C
  C5       1.0000 0.62970  0.72233  0.72970  Biso   1.000  C
  C6       1.0000 0.37030  0.22233  0.77030  Biso   1.000  C
  C7       1.0000 0.37030  0.27767  0.27030  Biso   1.000  C
  C8       1.0000 0.62970  0.77767  0.22970  Biso   1.000  C
  H33      1.0000 0.63570  0.74910  0.81110  Biso   1.000  H
  H34      1.0000 0.36430  0.24910  0.68890  Biso   1.000  H
  H35      1.0000 0.36430  0.25090  0.18890  Biso   1.000  H
  H36      1.0000 0.63570  0.75090  0.31110  Biso   1.000  H
  C9       1.0000 0.49710  0.69895  0.67250  Biso   1.000  C
  C10      1.0000 0.50290  0.19895  0.82750  Biso   1.000  C
  C11      1.0000 0.50290  0.30105  0.32750  Biso   1.000  C
  C12      1.0000 0.49710  0.80105  0.17250  Biso   1.000  C
  H37      1.0000 0.41280  0.71000  0.71440  Biso   1.000  H
  H38      1.0000 0.58720  0.21000  0.78560  Biso   1.000  H
  H39      1.0000 0.58720  0.29000  0.28560  Biso   1.000  H
  H40      1.0000 0.41280  0.79000  0.21440  Biso   1.000  H
  C13      1.0000 0.49220  0.65906  0.55250  Biso   1.000  C
  C14      1.0000 0.50780  0.15906  0.94750  Biso   1.000  C
  C15      1.0000 0.50780  0.34094  0.44750  Biso   1.000  C
  C16      1.0000 0.49220  0.84094  0.05250  Biso   1.000  C
  C17      1.0000 0.62160  0.64354  0.49370  Biso   1.000  C
  C18      1.0000 0.37840  0.14354  0.00630  Biso   1.000  C
  C19      1.0000 0.37840  0.35646  0.50630  Biso   1.000  C
  C20      1.0000 0.62160  0.85646  0.99370  Biso   1.000  C
  H41      1.0000 0.61900  0.61620  0.41480  Biso   1.000  H
  H42      1.0000 0.38100  0.11620  0.08520  Biso   1.000  H
  H43      1.0000 0.38100  0.38380  0.58520  Biso   1.000  H
  H44      1.0000 0.61900  0.88380  0.91480  Biso   1.000  H
  C21      1.0000 0.90200  0.72784  0.72110  Biso   1.000  C
  C22      1.0000 0.09800  0.22784  0.77890  Biso   1.000  C
  C23      1.0000 0.09800  0.27216  0.27890  Biso   1.000  C
  C24      1.0000 0.90200  0.77216  0.22110  Biso   1.000  C
  C25      1.0000 0.78790  0.61020  0.04300  Biso   1.000  C
  C26      1.0000 0.21210  0.11020  0.45700  Biso   1.000  C
  C27      1.0000 0.21210  0.38980  0.95700  Biso   1.000  C
  C28      1.0000 0.78790  0.88980  0.54300  Biso   1.000  C
  C29      1.0000 0.64880  0.55685  0.80780  Biso   1.000  C
  C30      1.0000 0.35120  0.05685  0.69220  Biso   1.000  C
  C31      1.0000 0.35120  0.44315  0.19220  Biso   1.000  C
  C32      1.0000 0.64880  0.94315  0.30780  Biso   1.000  C
  H45      1.0000 0.73470  0.55440  0.75860  Biso   1.000  H
  H46      1.0000 0.26530  0.05440  0.74140  Biso   1.000  H
  H47      1.0000 0.26530  0.44560  0.24140  Biso   1.000  H
  H48      1.0000 0.73470  0.94560  0.25860  Biso   1.000  H
  C33      1.0000 0.64850  0.58471  0.96010  Biso   1.000  C
  C34      1.0000 0.35150  0.08471  0.53990  Biso   1.000  C
  C35      1.0000 0.35150  0.41529  0.03990  Biso   1.000  C
  C36      1.0000 0.64850  0.91529  0.46010  Biso   1.000  C
  C37      1.0000 0.51830  0.58890  0.02960  Biso   1.000  C
  C38      1.0000 0.48170  0.08890  0.47040  Biso   1.000  C
  C39      1.0000 0.48170  0.41110  0.97040  Biso   1.000  C
  C40      1.0000 0.51830  0.91110  0.52960  Biso   1.000  C
  H49      1.0000 0.51400  0.60800  0.13030  Biso   1.000  H
  H50      1.0000 0.48600  0.10800  0.36970  Biso   1.000  H
  H51      1.0000 0.48600  0.39200  0.86970  Biso   1.000  H
  H52      1.0000 0.51400  0.89200  0.63030  Biso   1.000  H
  C41      1.0000 0.39460  0.56441  0.94810  Biso   1.000  C
  C42      1.0000 0.60540  0.06441  0.55190  Biso   1.000  C
  C43      1.0000 0.60540  0.43559  0.05190  Biso   1.000  C
  C44      1.0000 0.39460  0.93559  0.44810  Biso   1.000  C
  H53      1.0000 0.30690  0.56670  0.99360  Biso   1.000  H
  H54      1.0000 0.69310  0.06670  0.50640  Biso   1.000  H
  H55      1.0000 0.69310  0.43330  0.00640  Biso   1.000  H
  H56      1.0000 0.30690  0.93330  0.49360  Biso   1.000  H
  C45      1.0000 0.40410  0.53677  0.79960  Biso   1.000  C
  C46      1.0000 0.59590  0.03677  0.70040  Biso   1.000  C
  C47      1.0000 0.59590  0.46323  0.20040  Biso   1.000  C
  C48      1.0000 0.40410  0.96323  0.29960  Biso   1.000  C
  C49      1.0000 0.27830  0.50736  0.69820  Biso   1.000  C
  C50      1.0000 0.72170  0.00736  0.80180  Biso   1.000  C
  C51      1.0000 0.72170  0.49264  0.30180  Biso   1.000  C
  C52      1.0000 0.27830  0.99264  0.19820  Biso   1.000  C
  C53      1.0000 0.35320  0.63193  0.48360  Biso   1.000  C
  C54      1.0000 0.64680  0.13193  0.01640  Biso   1.000  C
  C55      1.0000 0.64680  0.36807  0.51640  Biso   1.000  C
  C56      1.0000 0.35320  0.86807  0.98360  Biso   1.000  C
