data_image0
_cell_length_a       9.271
_cell_length_b       25.548
_cell_length_c       7.793
_cell_angle_alpha    90
_cell_angle_beta     97.273
_cell_angle_gamma    90

_symmetry_space_group_name_H-M    "P 1"
_symmetry_int_tables_number       1

loop_
  _symmetry_equiv_pos_as_xyz
  'x, y, z'

loop_
  _atom_site_label
  _atom_site_occupancy
  _atom_site_fract_x
  _atom_site_fract_y
  _atom_site_fract_z
  _atom_site_thermal_displace_type
  _atom_site_B_iso_or_equiv
  _atom_site_type_symbol
  Eu1      1.0000 0.51302  0.84951  0.58684  Biso   1.000  Eu
  Eu2      1.0000 0.48698  0.34951  0.91316  Biso   1.000  Eu
  Eu3      1.0000 0.48698  0.15049  0.41316  Biso   1.000  Eu
  Eu4      1.0000 0.51302  0.65049  0.08684  Biso   1.000  Eu
  Cu1      1.0000 0.00000  0.00000  0.50000  Biso   1.000  Cu
  Cu2      1.0000 0.00000  0.50000  0.00000  Biso   1.000  Cu
  O1       1.0000 0.26350  0.84351  0.49300  Biso   1.000  O
  O2       1.0000 0.73650  0.34351  0.00700  Biso   1.000  O
  O3       1.0000 0.73650  0.15649  0.50700  Biso   1.000  O
  O4       1.0000 0.26350  0.65649  0.99300  Biso   1.000  O
  O5       1.0000 0.14210  0.91149  0.58880  Biso   1.000  O
  O6       1.0000 0.85790  0.41149  0.91120  Biso   1.000  O
  O7       1.0000 0.85790  0.08851  0.41120  Biso   1.000  O
  O8       1.0000 0.14210  0.58851  0.08880  Biso   1.000  O
  O9       1.0000 0.49140  0.79367  0.33280  Biso   1.000  O
  O10      1.0000 0.50860  0.29367  0.16720  Biso   1.000  O
  O11      1.0000 0.50860  0.20633  0.66720  Biso   1.000  O
  O12      1.0000 0.49140  0.70633  0.83280  Biso   1.000  O
  O13      1.0000 0.59240  0.73446  0.17710  Biso   1.000  O
  O14      1.0000 0.40760  0.23446  0.32290  Biso   1.000  O
  O15      1.0000 0.40760  0.26554  0.82290  Biso   1.000  O
  O16      1.0000 0.59240  0.76554  0.67710  Biso   1.000  O
  O17      1.0000 0.43720  0.93468  0.67350  Biso   1.000  O
  O18      1.0000 0.56280  0.43468  0.82650  Biso   1.000  O
  O19      1.0000 0.56280  0.06532  0.32650  Biso   1.000  O
  O20      1.0000 0.43720  0.56532  0.17350  Biso   1.000  O
  H1       1.0000 0.34540  0.93840  0.65840  Biso   1.000  H
  H2       1.0000 0.65460  0.43840  0.84160  Biso   1.000  H
  H3       1.0000 0.65460  0.06160  0.34160  Biso   1.000  H
  H4       1.0000 0.34540  0.56160  0.15840  Biso   1.000  H
  H5       1.0000 0.48770  0.96250  0.68670  Biso   1.000  H
  H6       1.0000 0.51230  0.46250  0.81330  Biso   1.000  H
  H7       1.0000 0.51230  0.03750  0.31330  Biso   1.000  H
  H8       1.0000 0.48770  0.53750  0.18670  Biso   1.000  H
  O21      1.0000 0.52210  0.90886  0.35010  Biso   1.000  O
  O22      1.0000 0.47790  0.40886  0.14990  Biso   1.000  O
  O23      1.0000 0.47790  0.09114  0.64990  Biso   1.000  O
  O24      1.0000 0.52210  0.59114  0.85010  Biso   1.000  O
  H9       1.0000 0.46190  0.93380  0.32320  Biso   1.000  H
  H10      1.0000 0.53810  0.43380  0.17680  Biso   1.000  H
  H11      1.0000 0.53810  0.06620  0.67680  Biso   1.000  H
  H12      1.0000 0.46190  0.56620  0.82320  Biso   1.000  H
  H13      1.0000 0.53930  0.89790  0.25280  Biso   1.000  H
  H14      1.0000 0.46070  0.39790  0.24720  Biso   1.000  H
  H15      1.0000 0.46070  0.10210  0.74720  Biso   1.000  H
  H16      1.0000 0.53930  0.60210  0.75280  Biso   1.000  H
  O25      1.0000 0.39960  0.83595  0.84860  Biso   1.000  O
  O26      1.0000 0.60040  0.33595  0.65140  Biso   1.000  O
  O27      1.0000 0.60040  0.16405  0.15140  Biso   1.000  O
  O28      1.0000 0.39960  0.66405  0.34860  Biso   1.000  O
  H17      1.0000 0.46010  0.85150  0.92260  Biso   1.000  H
  H18      1.0000 0.53990  0.35150  0.57740  Biso   1.000  H
  H19      1.0000 0.53990  0.14850  0.07740  Biso   1.000  H
  H20      1.0000 0.46010  0.64850  0.42260  Biso   1.000  H
  H21      1.0000 0.34180  0.81450  0.88780  Biso   1.000  H
  H22      1.0000 0.65820  0.31450  0.61220  Biso   1.000  H
  H23      1.0000 0.65820  0.18550  0.11220  Biso   1.000  H
  H24      1.0000 0.34180  0.68550  0.38780  Biso   1.000  H
  O29      1.0000 0.70580  0.87702  0.80110  Biso   1.000  O
  O30      1.0000 0.29420  0.37702  0.69890  Biso   1.000  O
  O31      1.0000 0.29420  0.12298  0.19890  Biso   1.000  O
  O32      1.0000 0.70580  0.62298  0.30110  Biso   1.000  O
  O33      1.0000 0.61480  0.88309  0.05040  Biso   1.000  O
  O34      1.0000 0.38520  0.38309  0.44960  Biso   1.000  O
  O35      1.0000 0.38520  0.11691  0.94960  Biso   1.000  O
  O36      1.0000 0.61480  0.61691  0.55040  Biso   1.000  O
  O37      1.0000 0.34100  0.99174  0.24840  Biso   1.000  O
  O38      1.0000 0.65900  0.49174  0.25160  Biso   1.000  O
  O39      1.0000 0.65900  0.00826  0.75160  Biso   1.000  O
  O40      1.0000 0.34100  0.50826  0.74840  Biso   1.000  O
  O41      1.0000 0.19080  0.01655  0.43540  Biso   1.000  O
  O42      1.0000 0.80920  0.51655  0.06460  Biso   1.000  O
  O43      1.0000 0.80920  0.98345  0.56460  Biso   1.000  O
  O44      1.0000 0.19080  0.48345  0.93540  Biso   1.000  O
  N1       1.0000 0.75130  0.83354  0.45370  Biso   1.000  N
  N2       1.0000 0.24870  0.33354  0.04630  Biso   1.000  N
  N3       1.0000 0.24870  0.16646  0.54630  Biso   1.000  N
  N4       1.0000 0.75130  0.66646  0.95370  Biso   1.000  N
  N5       1.0000 0.96990  0.96668  0.27070  Biso   1.000  N
  N6       1.0000 0.03010  0.46668  0.22930  Biso   1.000  N
  N7       1.0000 0.03010  0.03332  0.72930  Biso   1.000  N
  N8       1.0000 0.96990  0.53332  0.77070  Biso   1.000  N
  C1       1.0000 0.14710  0.86816  0.51640  Biso   1.000  C
  C2       1.0000 0.85290  0.36816  0.98360  Biso   1.000  C
  C3       1.0000 0.85290  0.13184  0.48360  Biso   1.000  C
  C4       1.0000 0.14710  0.63184  0.01640  Biso   1.000  C
  C5       1.0000 0.00860  0.84122  0.44700  Biso   1.000  C
  C6       1.0000 0.99140  0.34122  0.05300  Biso   1.000  C
  C7       1.0000 0.99140  0.15878  0.55300  Biso   1.000  C
  C8       1.0000 0.00860  0.65878  0.94700  Biso   1.000  C
  C9       1.0000 0.00320  0.80114  0.32690  Biso   1.000  C
  C10      1.0000 0.99680  0.30114  0.17310  Biso   1.000  C
  C11      1.0000 0.99680  0.19886  0.67310  Biso   1.000  C
  C12      1.0000 0.00320  0.69886  0.82690  Biso   1.000  C
  H25      1.0000 0.08760  0.78980  0.28540  Biso   1.000  H
  H26      1.0000 0.91240  0.28980  0.21460  Biso   1.000  H
  H27      1.0000 0.91240  0.21020  0.71460  Biso   1.000  H
  H28      1.0000 0.08760  0.71020  0.78540  Biso   1.000  H
  C13      1.0000 0.87090  0.77804  0.26920  Biso   1.000  C
  C14      1.0000 0.12910  0.27804  0.23080  Biso   1.000  C
  C15      1.0000 0.12910  0.22196  0.73080  Biso   1.000  C
  C16      1.0000 0.87090  0.72196  0.76920  Biso   1.000  C
  H29      1.0000 0.86500  0.75150  0.18700  Biso   1.000  H
  H30      1.0000 0.13500  0.25150  0.31300  Biso   1.000  H
  H31      1.0000 0.13500  0.24850  0.81300  Biso   1.000  H
  H32      1.0000 0.86500  0.74850  0.68700  Biso   1.000  H
  C17      1.0000 0.74720  0.79511  0.33590  Biso   1.000  C
  C18      1.0000 0.25280  0.29511  0.16410  Biso   1.000  C
  C19      1.0000 0.25280  0.20489  0.66410  Biso   1.000  C
  C20      1.0000 0.74720  0.70489  0.83590  Biso   1.000  C
  C21      1.0000 0.87850  0.85646  0.50560  Biso   1.000  C
  C22      1.0000 0.12150  0.35646  0.99440  Biso   1.000  C
  C23      1.0000 0.12150  0.14354  0.49440  Biso   1.000  C
  C24      1.0000 0.87850  0.64354  0.00560  Biso   1.000  C
  H33      1.0000 0.88080  0.88390  0.58450  Biso   1.000  H
  H34      1.0000 0.11920  0.38390  0.91550  Biso   1.000  H
  H35      1.0000 0.11920  0.11610  0.41550  Biso   1.000  H
  H36      1.0000 0.88080  0.61610  0.08450  Biso   1.000  H
  C25      1.0000 0.59930  0.77225  0.27870  Biso   1.000  C
  C26      1.0000 0.40070  0.27225  0.22130  Biso   1.000  C
  C27      1.0000 0.40070  0.22775  0.72130  Biso   1.000  C
  C28      1.0000 0.59930  0.72775  0.77870  Biso   1.000  C
  C29      1.0000 0.71240  0.88962  0.95730  Biso   1.000  C
  C30      1.0000 0.28760  0.38962  0.54270  Biso   1.000  C
  C31      1.0000 0.28760  0.11038  0.04270  Biso   1.000  C
  C32      1.0000 0.71240  0.61038  0.45730  Biso   1.000  C
  C33      1.0000 0.85160  0.91537  0.03980  Biso   1.000  C
  C34      1.0000 0.14840  0.41537  0.46020  Biso   1.000  C
  C35      1.0000 0.14840  0.08463  0.96020  Biso   1.000  C
  C36      1.0000 0.85160  0.58463  0.53980  Biso   1.000  C
  C37      1.0000 0.98170  0.91160  0.97010  Biso   1.000  C
  C38      1.0000 0.01830  0.41160  0.52990  Biso   1.000  C
  C39      1.0000 0.01830  0.08840  0.02990  Biso   1.000  C
  C40      1.0000 0.98170  0.58840  0.47010  Biso   1.000  C
  H37      1.0000 0.98580  0.89280  0.86870  Biso   1.000  H
  H38      1.0000 0.01420  0.39280  0.63130  Biso   1.000  H
  H39      1.0000 0.01420  0.10720  0.13130  Biso   1.000  H
  H40      1.0000 0.98580  0.60720  0.36870  Biso   1.000  H
  C41      1.0000 0.10520  0.93576  0.05100  Biso   1.000  C
  C42      1.0000 0.89480  0.43576  0.44900  Biso   1.000  C
  C43      1.0000 0.89480  0.06424  0.94900  Biso   1.000  C
  C44      1.0000 0.10520  0.56424  0.55100  Biso   1.000  C
  H41      1.0000 0.19290  0.93330  0.00540  Biso   1.000  H
  H42      1.0000 0.80710  0.43330  0.49460  Biso   1.000  H
  H43      1.0000 0.80710  0.06670  0.99460  Biso   1.000  H
  H44      1.0000 0.19290  0.56670  0.50540  Biso   1.000  H
  C45      1.0000 0.09590  0.96352  0.20010  Biso   1.000  C
  C46      1.0000 0.90410  0.46352  0.29990  Biso   1.000  C
  C47      1.0000 0.90410  0.03648  0.79990  Biso   1.000  C
  C48      1.0000 0.09590  0.53648  0.70010  Biso   1.000  C
  C49      1.0000 0.85130  0.94331  0.19200  Biso   1.000  C
  C50      1.0000 0.14870  0.44331  0.30800  Biso   1.000  C
  C51      1.0000 0.14870  0.05669  0.80800  Biso   1.000  C
  C52      1.0000 0.85130  0.55669  0.69200  Biso   1.000  C
  H45      1.0000 0.76520  0.94580  0.24100  Biso   1.000  H
  H46      1.0000 0.23480  0.44580  0.25900  Biso   1.000  H
  H47      1.0000 0.23480  0.05420  0.75900  Biso   1.000  H
  H48      1.0000 0.76520  0.55420  0.74100  Biso   1.000  H
  C53      1.0000 0.22130  0.99255  0.30180  Biso   1.000  C
  C54      1.0000 0.77870  0.49255  0.19820  Biso   1.000  C
  C55      1.0000 0.77870  0.00745  0.69820  Biso   1.000  C
  C56      1.0000 0.22130  0.50745  0.80180  Biso   1.000  C
  O45      1.0000 0.25500  0.77259  0.06330  Biso   1.000  O
  O46      1.0000 0.74500  0.27259  0.43670  Biso   1.000  O
  O47      1.0000 0.74500  0.22741  0.93670  Biso   1.000  O
  O48      1.0000 0.25500  0.72741  0.56330  Biso   1.000  O
  H49      1.0000 0.25010  0.73990  0.04230  Biso   1.000  H
  H50      1.0000 0.74990  0.23990  0.45770  Biso   1.000  H
  H51      1.0000 0.74990  0.26010  0.95770  Biso   1.000  H
  H52      1.0000 0.25010  0.76010  0.54230  Biso   1.000  H
  H53      1.0000 0.31190  0.78200  0.15250  Biso   1.000  H
  H54      1.0000 0.68810  0.28200  0.34750  Biso   1.000  H
  H55      1.0000 0.68810  0.21800  0.84750  Biso   1.000  H
  H56      1.0000 0.31190  0.71800  0.65250  Biso   1.000  H
