data_image0
_cell_length_a       10.767
_cell_length_b       10.767
_cell_length_c       21.03
_cell_angle_alpha    90
_cell_angle_beta     90
_cell_angle_gamma    90

_symmetry_space_group_name_H-M    "P 1"
_symmetry_int_tables_number       1

loop_
  _symmetry_equiv_pos_as_xyz
  'x, y, z'

loop_
  _atom_site_label
  _atom_site_occupancy
  _atom_site_fract_x
  _atom_site_fract_y
  _atom_site_fract_z
  _atom_site_thermal_displace_type
  _atom_site_B_iso_or_equiv
  _atom_site_type_symbol
  Cu1      1.0000 0.75000  0.25000  0.25000  Biso   1.000  Cu
  Cu2      1.0000 0.25000  0.75000  0.25000  Biso   1.000  Cu
  Cu3      1.0000 0.25000  0.75000  0.75000  Biso   1.000  Cu
  Cu4      1.0000 0.75000  0.25000  0.75000  Biso   1.000  Cu
  N1       1.0000 0.65459  0.16061  0.31970  Biso   1.000  N
  N2       1.0000 0.33939  0.65459  0.31970  Biso   1.000  N
  N3       1.0000 0.16061  0.84541  0.31970  Biso   1.000  N
  N4       1.0000 0.66061  0.15459  0.18030  Biso   1.000  N
  N5       1.0000 0.84541  0.33939  0.31970  Biso   1.000  N
  N6       1.0000 0.34541  0.66061  0.18030  Biso   1.000  N
  N7       1.0000 0.15459  0.83939  0.18030  Biso   1.000  N
  N8       1.0000 0.83939  0.34541  0.18030  Biso   1.000  N
  N9       1.0000 0.34541  0.83939  0.68030  Biso   1.000  N
  N10      1.0000 0.66061  0.34541  0.68030  Biso   1.000  N
  N11      1.0000 0.83939  0.15459  0.68030  Biso   1.000  N
  N12      1.0000 0.33939  0.84541  0.81970  Biso   1.000  N
  N13      1.0000 0.15459  0.66061  0.68030  Biso   1.000  N
  N14      1.0000 0.65459  0.33939  0.81970  Biso   1.000  N
  N15      1.0000 0.84541  0.16061  0.81970  Biso   1.000  N
  N16      1.0000 0.16061  0.65459  0.81970  Biso   1.000  N
  C1       1.0000 0.65543  0.03640  0.32289  Biso   1.000  C
  C2       1.0000 0.46360  0.65543  0.32289  Biso   1.000  C
  C3       1.0000 0.03640  0.84457  0.32289  Biso   1.000  C
  C4       1.0000 0.53640  0.15543  0.17711  Biso   1.000  C
  C5       1.0000 0.84457  0.46360  0.32289  Biso   1.000  C
  C6       1.0000 0.34457  0.53640  0.17711  Biso   1.000  C
  C7       1.0000 0.15543  0.96360  0.17711  Biso   1.000  C
  C8       1.0000 0.96360  0.34457  0.17711  Biso   1.000  C
  C9       1.0000 0.34457  0.96360  0.67711  Biso   1.000  C
  C10      1.0000 0.53640  0.34457  0.67711  Biso   1.000  C
  C11      1.0000 0.96360  0.15543  0.67711  Biso   1.000  C
  C12      1.0000 0.46360  0.84457  0.82289  Biso   1.000  C
  C13      1.0000 0.15543  0.53640  0.67711  Biso   1.000  C
  C14      1.0000 0.65543  0.46360  0.82289  Biso   1.000  C
  C15      1.0000 0.84457  0.03640  0.82289  Biso   1.000  C
  C16      1.0000 0.03640  0.65543  0.82289  Biso   1.000  C
  H1       1.0000 0.68900  0.99290  0.28810  Biso   1.000  H
  H2       1.0000 0.50710  0.68900  0.28810  Biso   1.000  H
  H3       1.0000 0.99290  0.81100  0.28810  Biso   1.000  H
  H4       1.0000 0.49290  0.18900  0.21190  Biso   1.000  H
  H5       1.0000 0.81100  0.50710  0.28810  Biso   1.000  H
  H6       1.0000 0.31100  0.49290  0.21190  Biso   1.000  H
  H7       1.0000 0.18900  0.00710  0.21190  Biso   1.000  H
  H8       1.0000 0.00710  0.31100  0.21190  Biso   1.000  H
  H9       1.0000 0.31100  0.00710  0.71190  Biso   1.000  H
  H10      1.0000 0.49290  0.31100  0.71190  Biso   1.000  H
  H11      1.0000 0.00710  0.18900  0.71190  Biso   1.000  H
  H12      1.0000 0.50710  0.81100  0.78810  Biso   1.000  H
  H13      1.0000 0.18900  0.49290  0.71190  Biso   1.000  H
  H14      1.0000 0.68900  0.50710  0.78810  Biso   1.000  H
  H15      1.0000 0.81100  0.99290  0.78810  Biso   1.000  H
  H16      1.0000 0.99290  0.68900  0.78810  Biso   1.000  H
  C17      1.0000 0.60558  0.97244  0.37375  Biso   1.000  C
  C18      1.0000 0.52756  0.60558  0.37375  Biso   1.000  C
  C19      1.0000 0.97244  0.89442  0.37375  Biso   1.000  C
  C20      1.0000 0.47244  0.10558  0.12625  Biso   1.000  C
  C21      1.0000 0.89442  0.52756  0.37375  Biso   1.000  C
  C22      1.0000 0.39442  0.47244  0.12625  Biso   1.000  C
  C23      1.0000 0.10558  0.02756  0.12625  Biso   1.000  C
  C24      1.0000 0.02756  0.39442  0.12625  Biso   1.000  C
  C25      1.0000 0.39442  0.02756  0.62625  Biso   1.000  C
  C26      1.0000 0.47244  0.39442  0.62625  Biso   1.000  C
  C27      1.0000 0.02756  0.10558  0.62625  Biso   1.000  C
  C28      1.0000 0.52756  0.89442  0.87375  Biso   1.000  C
  C29      1.0000 0.10558  0.47244  0.62625  Biso   1.000  C
  C30      1.0000 0.60558  0.52756  0.87375  Biso   1.000  C
  C31      1.0000 0.89442  0.97244  0.87375  Biso   1.000  C
  C32      1.0000 0.97244  0.60558  0.87375  Biso   1.000  C
  H17      1.0000 0.60800  0.87300  0.37960  Biso   1.000  H
  H18      1.0000 0.62700  0.60800  0.37960  Biso   1.000  H
  H19      1.0000 0.87300  0.89200  0.37960  Biso   1.000  H
  H20      1.0000 0.37300  0.10800  0.12040  Biso   1.000  H
  H21      1.0000 0.89200  0.62700  0.37960  Biso   1.000  H
  H22      1.0000 0.39200  0.37300  0.12040  Biso   1.000  H
  H23      1.0000 0.10800  0.12700  0.12040  Biso   1.000  H
  H24      1.0000 0.12700  0.39200  0.12040  Biso   1.000  H
  H25      1.0000 0.39200  0.12700  0.62040  Biso   1.000  H
  H26      1.0000 0.37300  0.39200  0.62040  Biso   1.000  H
  H27      1.0000 0.12700  0.10800  0.62040  Biso   1.000  H
  H28      1.0000 0.62700  0.89200  0.87960  Biso   1.000  H
  H29      1.0000 0.10800  0.37300  0.62040  Biso   1.000  H
  H30      1.0000 0.60800  0.62700  0.87960  Biso   1.000  H
  H31      1.0000 0.89200  0.87300  0.87960  Biso   1.000  H
  H32      1.0000 0.87300  0.60800  0.87960  Biso   1.000  H
  C33      1.0000 0.55371  0.03988  0.42335  Biso   1.000  C
  C34      1.0000 0.46012  0.55371  0.42335  Biso   1.000  C
  C35      1.0000 0.03988  0.94629  0.42335  Biso   1.000  C
  C36      1.0000 0.53988  0.05371  0.07665  Biso   1.000  C
  C37      1.0000 0.94629  0.46012  0.42335  Biso   1.000  C
  C38      1.0000 0.44629  0.53988  0.07665  Biso   1.000  C
  C39      1.0000 0.05371  0.96012  0.07665  Biso   1.000  C
  C40      1.0000 0.96012  0.44629  0.07665  Biso   1.000  C
  C41      1.0000 0.44629  0.96012  0.57665  Biso   1.000  C
  C42      1.0000 0.53988  0.44629  0.57665  Biso   1.000  C
  C43      1.0000 0.96012  0.05371  0.57665  Biso   1.000  C
  C44      1.0000 0.46012  0.94629  0.92335  Biso   1.000  C
  C45      1.0000 0.05371  0.53988  0.57665  Biso   1.000  C
  C46      1.0000 0.55371  0.46012  0.92335  Biso   1.000  C
  C47      1.0000 0.94629  0.03988  0.92335  Biso   1.000  C
  C48      1.0000 0.03988  0.55371  0.92335  Biso   1.000  C
  C49      1.0000 0.55002  0.16862  0.41988  Biso   1.000  C
  C50      1.0000 0.33138  0.55002  0.41988  Biso   1.000  C
  C51      1.0000 0.16862  0.94998  0.41988  Biso   1.000  C
  C52      1.0000 0.66862  0.05002  0.08012  Biso   1.000  C
  C53      1.0000 0.94998  0.33138  0.41988  Biso   1.000  C
  C54      1.0000 0.44998  0.66862  0.08012  Biso   1.000  C
  C55      1.0000 0.05002  0.83138  0.08012  Biso   1.000  C
  C56      1.0000 0.83138  0.44998  0.08012  Biso   1.000  C
  C57      1.0000 0.44998  0.83138  0.58012  Biso   1.000  C
  C58      1.0000 0.66862  0.44998  0.58012  Biso   1.000  C
  C59      1.0000 0.83138  0.05002  0.58012  Biso   1.000  C
  C60      1.0000 0.33138  0.94998  0.91988  Biso   1.000  C
  C61      1.0000 0.05002  0.66862  0.58012  Biso   1.000  C
  C62      1.0000 0.55002  0.33138  0.91988  Biso   1.000  C
  C63      1.0000 0.94998  0.16862  0.91988  Biso   1.000  C
  C64      1.0000 0.16862  0.55002  0.91988  Biso   1.000  C
  H33      1.0000 0.50400  0.21800  0.45300  Biso   1.000  H
  H34      1.0000 0.28200  0.50400  0.45300  Biso   1.000  H
  H35      1.0000 0.21800  0.99600  0.45300  Biso   1.000  H
  H36      1.0000 0.71800  0.00400  0.04700  Biso   1.000  H
  H37      1.0000 0.99600  0.28200  0.45300  Biso   1.000  H
  H38      1.0000 0.49600  0.71800  0.04700  Biso   1.000  H
  H39      1.0000 0.00400  0.78200  0.04700  Biso   1.000  H
  H40      1.0000 0.78200  0.49600  0.04700  Biso   1.000  H
  H41      1.0000 0.49600  0.78200  0.54700  Biso   1.000  H
  H42      1.0000 0.71800  0.49600  0.54700  Biso   1.000  H
  H43      1.0000 0.78200  0.00400  0.54700  Biso   1.000  H
  H44      1.0000 0.28200  0.99600  0.95300  Biso   1.000  H
  H45      1.0000 0.00400  0.71800  0.54700  Biso   1.000  H
  H46      1.0000 0.50400  0.28200  0.95300  Biso   1.000  H
  H47      1.0000 0.99600  0.21800  0.95300  Biso   1.000  H
  H48      1.0000 0.21800  0.50400  0.95300  Biso   1.000  H
  C65      1.0000 0.60106  0.22461  0.36743  Biso   1.000  C
  C66      1.0000 0.27539  0.60106  0.36743  Biso   1.000  C
  C67      1.0000 0.22461  0.89894  0.36743  Biso   1.000  C
  C68      1.0000 0.72461  0.10106  0.13257  Biso   1.000  C
  C69      1.0000 0.89894  0.27539  0.36743  Biso   1.000  C
  C70      1.0000 0.39894  0.72461  0.13257  Biso   1.000  C
  C71      1.0000 0.10106  0.77539  0.13257  Biso   1.000  C
  C72      1.0000 0.77539  0.39894  0.13257  Biso   1.000  C
  C73      1.0000 0.39894  0.77539  0.63257  Biso   1.000  C
  C74      1.0000 0.72461  0.39894  0.63257  Biso   1.000  C
  C75      1.0000 0.77539  0.10106  0.63257  Biso   1.000  C
  C76      1.0000 0.27539  0.89894  0.86743  Biso   1.000  C
  C77      1.0000 0.10106  0.72461  0.63257  Biso   1.000  C
  C78      1.0000 0.60106  0.27539  0.86743  Biso   1.000  C
  C79      1.0000 0.89894  0.22461  0.86743  Biso   1.000  C
  C80      1.0000 0.22461  0.60106  0.86743  Biso   1.000  C
  H49      1.0000 0.60100  0.31500  0.36340  Biso   1.000  H
  H50      1.0000 0.18500  0.60100  0.36340  Biso   1.000  H
  H51      1.0000 0.31500  0.89900  0.36340  Biso   1.000  H
  H52      1.0000 0.81500  0.10100  0.13660  Biso   1.000  H
  H53      1.0000 0.89900  0.18500  0.36340  Biso   1.000  H
  H54      1.0000 0.39900  0.81500  0.13660  Biso   1.000  H
  H55      1.0000 0.10100  0.68500  0.13660  Biso   1.000  H
  H56      1.0000 0.68500  0.39900  0.13660  Biso   1.000  H
  H57      1.0000 0.39900  0.68500  0.63660  Biso   1.000  H
  H58      1.0000 0.81500  0.39900  0.63660  Biso   1.000  H
  H59      1.0000 0.68500  0.10100  0.63660  Biso   1.000  H
  H60      1.0000 0.18500  0.89900  0.86340  Biso   1.000  H
  H61      1.0000 0.10100  0.81500  0.63660  Biso   1.000  H
  H62      1.0000 0.60100  0.18500  0.86340  Biso   1.000  H
  H63      1.0000 0.89900  0.31500  0.86340  Biso   1.000  H
  H64      1.0000 0.31500  0.60100  0.86340  Biso   1.000  H
  N17      1.0000 0.50309  0.97049  0.47503  Biso   1.000  N
  N18      1.0000 0.52951  0.50309  0.47503  Biso   1.000  N
  N19      1.0000 0.97049  0.99691  0.47503  Biso   1.000  N
  N20      1.0000 0.47049  0.00309  0.02497  Biso   1.000  N
  N21      1.0000 0.99691  0.52951  0.47503  Biso   1.000  N
  N22      1.0000 0.49691  0.47049  0.02497  Biso   1.000  N
  N23      1.0000 0.00309  0.02951  0.02497  Biso   1.000  N
  N24      1.0000 0.02951  0.49691  0.02497  Biso   1.000  N
  N25      1.0000 0.49691  0.02951  0.52497  Biso   1.000  N
  N26      1.0000 0.47049  0.49691  0.52497  Biso   1.000  N
  N27      1.0000 0.02951  0.00309  0.52497  Biso   1.000  N
  N28      1.0000 0.52951  0.99691  0.97503  Biso   1.000  N
  N29      1.0000 0.00309  0.47049  0.52497  Biso   1.000  N
  N30      1.0000 0.50309  0.52951  0.97503  Biso   1.000  N
  N31      1.0000 0.99691  0.97049  0.97503  Biso   1.000  N
  N32      1.0000 0.97049  0.50309  0.97503  Biso   1.000  N
  O1       1.0000 0.90383  0.09617  0.25000  Biso   1.000  O
  O2       1.0000 0.40383  0.90383  0.25000  Biso   1.000  O
  O3       1.0000 0.09617  0.59617  0.25000  Biso   1.000  O
  O4       1.0000 0.59617  0.40383  0.25000  Biso   1.000  O
  O5       1.0000 0.09617  0.90383  0.75000  Biso   1.000  O
  O6       1.0000 0.59617  0.09617  0.75000  Biso   1.000  O
  O7       1.0000 0.90383  0.40383  0.75000  Biso   1.000  O
  O8       1.0000 0.40383  0.59617  0.75000  Biso   1.000  O
  H65      1.0000 0.89200  0.02300  0.23900  Biso   1.000  H
  H66      1.0000 0.47700  0.89200  0.23900  Biso   1.000  H
  H67      1.0000 0.02300  0.60800  0.23900  Biso   1.000  H
  H68      1.0000 0.52300  0.39200  0.26100  Biso   1.000  H
  H69      1.0000 0.60800  0.47700  0.23900  Biso   1.000  H
  H70      1.0000 0.10800  0.52300  0.26100  Biso   1.000  H
  H71      1.0000 0.39200  0.97700  0.26100  Biso   1.000  H
  H72      1.0000 0.97700  0.10800  0.26100  Biso   1.000  H
  H73      1.0000 0.10800  0.97700  0.76100  Biso   1.000  H
  H74      1.0000 0.52300  0.10800  0.76100  Biso   1.000  H
  H75      1.0000 0.97700  0.39200  0.76100  Biso   1.000  H
  H76      1.0000 0.47700  0.60800  0.73900  Biso   1.000  H
  H77      1.0000 0.39200  0.52300  0.76100  Biso   1.000  H
  H78      1.0000 0.89200  0.47700  0.73900  Biso   1.000  H
  H79      1.0000 0.60800  0.02300  0.73900  Biso   1.000  H
  H80      1.0000 0.02300  0.89200  0.73900  Biso   1.000  H
  Si1      1.0000 0.25000  0.25000  0.29654  Biso   1.000  Si
  Si2      1.0000 0.75000  0.75000  0.20346  Biso   1.000  Si
  Si3      1.0000 0.75000  0.75000  0.70346  Biso   1.000  Si
  Si4      1.0000 0.25000  0.25000  0.79654  Biso   1.000  Si
  F1       1.0000 0.25000  0.25000  0.21614  Biso   1.000  F
  F2       1.0000 0.75000  0.75000  0.28386  Biso   1.000  F
  F3       1.0000 0.75000  0.75000  0.78386  Biso   1.000  F
  F4       1.0000 0.25000  0.25000  0.71614  Biso   1.000  F
  F5       1.0000 0.12978  0.14986  0.29619  Biso   1.000  F
  F6       1.0000 0.35014  0.12978  0.29619  Biso   1.000  F
  F7       1.0000 0.14986  0.37022  0.29619  Biso   1.000  F
  F8       1.0000 0.64986  0.62978  0.20381  Biso   1.000  F
  F9       1.0000 0.37022  0.35014  0.29619  Biso   1.000  F
  F10      1.0000 0.87022  0.64986  0.20381  Biso   1.000  F
  F11      1.0000 0.62978  0.85014  0.20381  Biso   1.000  F
  F12      1.0000 0.85014  0.87022  0.20381  Biso   1.000  F
  F13      1.0000 0.87022  0.85014  0.70381  Biso   1.000  F
  F14      1.0000 0.64986  0.87022  0.70381  Biso   1.000  F
  F15      1.0000 0.85014  0.62978  0.70381  Biso   1.000  F
  F16      1.0000 0.35014  0.37022  0.79619  Biso   1.000  F
  F17      1.0000 0.62978  0.64986  0.70381  Biso   1.000  F
  F18      1.0000 0.12978  0.35014  0.79619  Biso   1.000  F
  F19      1.0000 0.37022  0.14986  0.79619  Biso   1.000  F
  F20      1.0000 0.14986  0.12978  0.79619  Biso   1.000  F
  F21      1.0000 0.25000  0.25000  0.37581  Biso   1.000  F
  F22      1.0000 0.75000  0.75000  0.12419  Biso   1.000  F
  F23      1.0000 0.75000  0.75000  0.62419  Biso   1.000  F
  F24      1.0000 0.25000  0.25000  0.87581  Biso   1.000  F
  O9       1.0000 0.25000  0.25000  0.50550  Biso   1.000  O
  O10      1.0000 0.75000  0.75000  0.99450  Biso   1.000  O
  O11      1.0000 0.75000  0.75000  0.49450  Biso   1.000  O
  O12      1.0000 0.25000  0.25000  0.00550  Biso   1.000  O
  H81      1.0000 0.25000  0.25000  0.46530  Biso   1.000  H
  H82      1.0000 0.75000  0.75000  0.03470  Biso   1.000  H
  H83      1.0000 0.75000  0.75000  0.53470  Biso   1.000  H
  H84      1.0000 0.25000  0.25000  0.96530  Biso   1.000  H
