data_image0
_cell_length_a       7.4052
_cell_length_b       15.1376
_cell_length_c       12.5619
_cell_angle_alpha    90
_cell_angle_beta     104.043
_cell_angle_gamma    90

_symmetry_space_group_name_H-M    "P 1"
_symmetry_int_tables_number       1

loop_
  _symmetry_equiv_pos_as_xyz
  'x, y, z'

loop_
  _atom_site_label
  _atom_site_occupancy
  _atom_site_fract_x
  _atom_site_fract_y
  _atom_site_fract_z
  _atom_site_thermal_displace_type
  _atom_site_B_iso_or_equiv
  _atom_site_type_symbol
  Cu1      1.0000 0.64458  0.20055  0.29730  Biso   1.000  Cu
  Cu2      1.0000 0.35542  0.70055  0.20270  Biso   1.000  Cu
  Cu3      1.0000 0.35542  0.79945  0.70270  Biso   1.000  Cu
  Cu4      1.0000 0.64458  0.29945  0.79730  Biso   1.000  Cu
  N1       1.0000 0.50870  0.30932  0.22970  Biso   1.000  N
  N2       1.0000 0.49130  0.80932  0.27030  Biso   1.000  N
  N3       1.0000 0.49130  0.69068  0.77030  Biso   1.000  N
  N4       1.0000 0.50870  0.19068  0.72970  Biso   1.000  N
  N5       1.0000 0.39460  0.14200  0.25430  Biso   1.000  N
  N6       1.0000 0.60540  0.64200  0.24570  Biso   1.000  N
  N7       1.0000 0.60540  0.85800  0.74570  Biso   1.000  N
  N8       1.0000 0.39460  0.35800  0.75430  Biso   1.000  N
  N9       1.0000 0.72890  0.08978  0.38050  Biso   1.000  N
  N10      1.0000 0.27110  0.58978  0.11950  Biso   1.000  N
  N11      1.0000 0.27110  0.91022  0.61950  Biso   1.000  N
  N12      1.0000 0.72890  0.41022  0.88050  Biso   1.000  N
  N13      1.0000 0.88260  0.26344  0.35230  Biso   1.000  N
  N14      1.0000 0.11740  0.76344  0.14770  Biso   1.000  N
  N15      1.0000 0.11740  0.73656  0.64770  Biso   1.000  N
  N16      1.0000 0.88260  0.23656  0.85230  Biso   1.000  N
  N17      1.0000 0.09760  0.36485  0.47385  Biso   1.000  N
  N18      1.0000 0.90240  0.86485  0.02615  Biso   1.000  N
  N19      1.0000 0.90240  0.63515  0.52615  Biso   1.000  N
  N20      1.0000 0.09760  0.13515  0.97385  Biso   1.000  N
  N21      1.0000 0.29210  0.64463  0.38263  Biso   1.000  N
  N22      1.0000 0.70790  0.14463  0.11737  Biso   1.000  N
  N23      1.0000 0.70790  0.35537  0.61737  Biso   1.000  N
  N24      1.0000 0.29210  0.85537  0.88263  Biso   1.000  N
  N25      1.0000 0.47170  0.74152  0.53070  Biso   1.000  N
  N26      1.0000 0.52830  0.24152  0.96930  Biso   1.000  N
  N27      1.0000 0.52830  0.25848  0.46930  Biso   1.000  N
  N28      1.0000 0.47170  0.75848  0.03070  Biso   1.000  N
  O1       1.0000 0.35160  0.52001  0.60507  Biso   1.000  O
  O2       1.0000 0.64840  0.02001  0.89493  Biso   1.000  O
  O3       1.0000 0.64840  0.47999  0.39493  Biso   1.000  O
  O4       1.0000 0.35160  0.97999  0.10507  Biso   1.000  O
  O5       1.0000 0.05480  0.48478  0.24469  Biso   1.000  O
  O6       1.0000 0.94520  0.98478  0.25531  Biso   1.000  O
  O7       1.0000 0.94520  0.51522  0.75531  Biso   1.000  O
  O8       1.0000 0.05480  0.01522  0.74469  Biso   1.000  O
  C1       1.0000 0.31180  0.28765  0.17780  Biso   1.000  C
  C2       1.0000 0.68820  0.78765  0.32220  Biso   1.000  C
  C3       1.0000 0.68820  0.71235  0.82220  Biso   1.000  C
  C4       1.0000 0.31180  0.21235  0.67780  Biso   1.000  C
  H1       1.0000 0.29910  0.27130  0.10170  Biso   1.000  H
  H2       1.0000 0.70090  0.77130  0.39830  Biso   1.000  H
  H3       1.0000 0.70090  0.72870  0.89830  Biso   1.000  H
  H4       1.0000 0.29910  0.22870  0.60170  Biso   1.000  H
  H5       1.0000 0.23380  0.33880  0.17980  Biso   1.000  H
  H6       1.0000 0.76620  0.83880  0.32020  Biso   1.000  H
  H7       1.0000 0.76620  0.66120  0.82020  Biso   1.000  H
  H8       1.0000 0.23380  0.16120  0.67980  Biso   1.000  H
  C5       1.0000 0.25110  0.21198  0.23920  Biso   1.000  C
  C6       1.0000 0.74890  0.71198  0.26080  Biso   1.000  C
  C7       1.0000 0.74890  0.78802  0.76080  Biso   1.000  C
  C8       1.0000 0.25110  0.28802  0.73920  Biso   1.000  C
  H9       1.0000 0.23680  0.23210  0.31000  Biso   1.000  H
  H10      1.0000 0.76320  0.73210  0.19000  Biso   1.000  H
  H11      1.0000 0.76320  0.76790  0.69000  Biso   1.000  H
  H12      1.0000 0.23680  0.26790  0.81000  Biso   1.000  H
  H13      1.0000 0.13230  0.18910  0.19800  Biso   1.000  H
  H14      1.0000 0.86770  0.68910  0.30200  Biso   1.000  H
  H15      1.0000 0.86770  0.81090  0.80200  Biso   1.000  H
  H16      1.0000 0.13230  0.31090  0.69800  Biso   1.000  H
  C9       1.0000 0.39110  0.07586  0.33860  Biso   1.000  C
  C10      1.0000 0.60890  0.57586  0.16140  Biso   1.000  C
  C11      1.0000 0.60890  0.92414  0.66140  Biso   1.000  C
  C12      1.0000 0.39110  0.42414  0.83860  Biso   1.000  C
  H17      1.0000 0.28720  0.03580  0.31370  Biso   1.000  H
  H18      1.0000 0.71280  0.53580  0.18630  Biso   1.000  H
  H19      1.0000 0.71280  0.96420  0.68630  Biso   1.000  H
  H20      1.0000 0.28720  0.46420  0.81370  Biso   1.000  H
  H21      1.0000 0.37780  0.10430  0.40550  Biso   1.000  H
  H22      1.0000 0.62220  0.60430  0.09450  Biso   1.000  H
  H23      1.0000 0.62220  0.89570  0.59450  Biso   1.000  H
  H24      1.0000 0.37780  0.39570  0.90550  Biso   1.000  H
  C13      1.0000 0.57310  0.02592  0.35930  Biso   1.000  C
  C14      1.0000 0.42690  0.52592  0.14070  Biso   1.000  C
  C15      1.0000 0.42690  0.97408  0.64070  Biso   1.000  C
  C16      1.0000 0.57310  0.47408  0.85930  Biso   1.000  C
  H25      1.0000 0.58440  0.98710  0.42200  Biso   1.000  H
  H26      1.0000 0.41560  0.48710  0.07800  Biso   1.000  H
  H27      1.0000 0.41560  0.01290  0.57800  Biso   1.000  H
  H28      1.0000 0.58440  0.51290  0.92200  Biso   1.000  H
  H29      1.0000 0.57660  0.99000  0.29590  Biso   1.000  H
  H30      1.0000 0.42340  0.49000  0.20410  Biso   1.000  H
  H31      1.0000 0.42340  0.01000  0.70410  Biso   1.000  H
  H32      1.0000 0.57660  0.51000  0.79590  Biso   1.000  H
  C17      1.0000 0.98280  0.31502  0.40450  Biso   1.000  C
  C18      1.0000 0.01720  0.81502  0.09550  Biso   1.000  C
  C19      1.0000 0.01720  0.68498  0.59550  Biso   1.000  C
  C20      1.0000 0.98280  0.18498  0.90450  Biso   1.000  C
  C21      1.0000 0.15260  0.44258  0.44320  Biso   1.000  C
  C22      1.0000 0.84740  0.94258  0.05680  Biso   1.000  C
  C23      1.0000 0.84740  0.55742  0.55680  Biso   1.000  C
  C24      1.0000 0.15260  0.05742  0.94320  Biso   1.000  C
  C25      1.0000 0.26800  0.51101  0.50810  Biso   1.000  C
  C26      1.0000 0.73200  0.01101  0.99190  Biso   1.000  C
  C27      1.0000 0.73200  0.48899  0.49190  Biso   1.000  C
  C28      1.0000 0.26800  0.98899  0.00810  Biso   1.000  C
  C29      1.0000 0.24150  0.56446  0.40780  Biso   1.000  C
  C30      1.0000 0.75850  0.06446  0.09220  Biso   1.000  C
  C31      1.0000 0.75850  0.43554  0.59220  Biso   1.000  C
  C32      1.0000 0.24150  0.93554  0.90780  Biso   1.000  C
  C33      1.0000 0.13230  0.49497  0.34360  Biso   1.000  C
  C34      1.0000 0.86770  0.99497  0.15640  Biso   1.000  C
  C35      1.0000 0.86770  0.50503  0.65640  Biso   1.000  C
  C36      1.0000 0.13230  0.00503  0.84360  Biso   1.000  C
  C37      1.0000 0.38900  0.69209  0.46620  Biso   1.000  C
  C38      1.0000 0.61100  0.19209  0.03380  Biso   1.000  C
  C39      1.0000 0.61100  0.30791  0.53380  Biso   1.000  C
  C40      1.0000 0.38900  0.80791  0.96620  Biso   1.000  C
  O9       1.0000 0.82210  0.36856  0.11913  Biso   1.000  O
  O10      1.0000 0.17790  0.86856  0.38087  Biso   1.000  O
  O11      1.0000 0.17790  0.63144  0.88087  Biso   1.000  O
  O12      1.0000 0.82210  0.13144  0.61913  Biso   1.000  O
  H33      1.0000 0.90000  0.40600  0.16600  Biso   1.000  H
  H34      1.0000 0.10000  0.90600  0.33400  Biso   1.000  H
  H35      1.0000 0.10000  0.59400  0.83400  Biso   1.000  H
  H36      1.0000 0.90000  0.09400  0.66600  Biso   1.000  H
  H37      1.0000 0.84500  0.32300  0.14000  Biso   1.000  H
  H38      1.0000 0.15500  0.82300  0.36000  Biso   1.000  H
  H39      1.0000 0.15500  0.67700  0.86000  Biso   1.000  H
  H40      1.0000 0.84500  0.17700  0.64000  Biso   1.000  H
  H41      1.0000 0.38100  0.11700  0.19900  Biso   1.000  H
  H42      1.0000 0.61900  0.61700  0.30100  Biso   1.000  H
  H43      1.0000 0.61900  0.88300  0.80100  Biso   1.000  H
  H44      1.0000 0.38100  0.38300  0.69900  Biso   1.000  H
  H45      1.0000 0.81600  0.06800  0.36500  Biso   1.000  H
  H46      1.0000 0.18400  0.56800  0.13500  Biso   1.000  H
  H47      1.0000 0.18400  0.93200  0.63500  Biso   1.000  H
  H48      1.0000 0.81600  0.43200  0.86500  Biso   1.000  H
  H49      1.0000 0.76100  0.10400  0.44700  Biso   1.000  H
  H50      1.0000 0.23900  0.60400  0.05300  Biso   1.000  H
  H51      1.0000 0.23900  0.89600  0.55300  Biso   1.000  H
  H52      1.0000 0.76100  0.39600  0.94700  Biso   1.000  H
  H53      1.0000 0.56600  0.33300  0.17800  Biso   1.000  H
  H54      1.0000 0.43400  0.83300  0.32200  Biso   1.000  H
  H55      1.0000 0.43400  0.66700  0.82200  Biso   1.000  H
  H56      1.0000 0.56600  0.16700  0.67800  Biso   1.000  H
  H57      1.0000 0.52200  0.34300  0.28400  Biso   1.000  H
  H58      1.0000 0.47800  0.84300  0.21600  Biso   1.000  H
  H59      1.0000 0.47800  0.65700  0.71600  Biso   1.000  H
  H60      1.0000 0.52200  0.15700  0.78400  Biso   1.000  H
