data_image0
_cell_length_a       10.232
_cell_length_b       7.961
_cell_length_c       11.016
_cell_angle_alpha    90
_cell_angle_beta     101.448
_cell_angle_gamma    90

_symmetry_space_group_name_H-M    "P 1"
_symmetry_int_tables_number       1

loop_
  _symmetry_equiv_pos_as_xyz
  'x, y, z'

loop_
  _atom_site_label
  _atom_site_occupancy
  _atom_site_fract_x
  _atom_site_fract_y
  _atom_site_fract_z
  _atom_site_thermal_displace_type
  _atom_site_B_iso_or_equiv
  _atom_site_type_symbol
  Cu1      1.0000 0.61389  0.08150  0.20544  Biso   1.000  Cu
  Cu2      1.0000 0.88611  0.58150  0.29456  Biso   1.000  Cu
  Cu3      1.0000 0.38611  0.91850  0.79456  Biso   1.000  Cu
  Cu4      1.0000 0.11389  0.41850  0.70544  Biso   1.000  Cu
  Cu5      1.0000 0.00000  0.00000  0.00000  Biso   1.000  Cu
  Cu6      1.0000 0.50000  0.50000  0.50000  Biso   1.000  Cu
  N1       1.0000 0.82310  0.58300  0.90600  Biso   1.000  N
  N2       1.0000 0.67690  0.08300  0.59400  Biso   1.000  N
  N3       1.0000 0.17690  0.41700  0.09400  Biso   1.000  N
  N4       1.0000 0.32310  0.91700  0.40600  Biso   1.000  N
  O1       1.0000 0.64950  0.89970  0.04170  Biso   1.000  O
  O2       1.0000 0.85050  0.39970  0.45830  Biso   1.000  O
  O3       1.0000 0.35050  0.10030  0.95830  Biso   1.000  O
  O4       1.0000 0.14950  0.60030  0.54170  Biso   1.000  O
  O5       1.0000 0.81740  0.96010  0.90520  Biso   1.000  O
  O6       1.0000 0.68260  0.46010  0.59480  Biso   1.000  O
  O7       1.0000 0.18260  0.03990  0.09480  Biso   1.000  O
  O8       1.0000 0.31740  0.53990  0.40520  Biso   1.000  O
  O9       1.0000 0.57340  0.98380  0.81630  Biso   1.000  O
  O10      1.0000 0.92660  0.48380  0.68370  Biso   1.000  O
  O11      1.0000 0.42660  0.01620  0.18370  Biso   1.000  O
  O12      1.0000 0.07340  0.51620  0.31630  Biso   1.000  O
  O13      1.0000 0.80050  0.15010  0.21550  Biso   1.000  O
  O14      1.0000 0.69950  0.65010  0.28450  Biso   1.000  O
  O15      1.0000 0.19950  0.84990  0.78450  Biso   1.000  O
  O16      1.0000 0.30050  0.34990  0.71550  Biso   1.000  O
  O17      1.0000 0.95360  0.21020  0.06360  Biso   1.000  O
  O18      1.0000 0.54640  0.71020  0.43640  Biso   1.000  O
  O19      1.0000 0.04640  0.78980  0.93640  Biso   1.000  O
  O20      1.0000 0.45360  0.28980  0.56360  Biso   1.000  O
  O21      1.0000 0.83610  0.44750  0.14150  Biso   1.000  O
  O22      1.0000 0.66390  0.94750  0.35850  Biso   1.000  O
  O23      1.0000 0.16390  0.55250  0.85850  Biso   1.000  O
  O24      1.0000 0.33610  0.05250  0.64150  Biso   1.000  O
  O25      1.0000 0.57340  0.24850  0.04940  Biso   1.000  O
  O26      1.0000 0.92660  0.74850  0.45060  Biso   1.000  O
  O27      1.0000 0.42660  0.75150  0.95060  Biso   1.000  O
  O28      1.0000 0.07340  0.25150  0.54940  Biso   1.000  O
  O29      1.0000 0.59390  0.32440  0.32290  Biso   1.000  O
  O30      1.0000 0.90610  0.82440  0.17710  Biso   1.000  O
  O31      1.0000 0.40610  0.67560  0.67710  Biso   1.000  O
  O32      1.0000 0.09390  0.17560  0.82290  Biso   1.000  O
  P1       1.0000 0.68107  0.00237  0.93409  Biso   1.000  P
  P2       1.0000 0.81893  0.50237  0.56591  Biso   1.000  P
  P3       1.0000 0.31893  0.99763  0.06591  Biso   1.000  P
  P4       1.0000 0.18107  0.49763  0.43409  Biso   1.000  P
  P5       1.0000 0.82943  0.26098  0.11086  Biso   1.000  P
  P6       1.0000 0.67057  0.76098  0.38914  Biso   1.000  P
  P7       1.0000 0.17057  0.73902  0.88914  Biso   1.000  P
  P8       1.0000 0.32943  0.23902  0.61086  Biso   1.000  P
  C1       1.0000 0.68410  0.22460  0.98440  Biso   1.000  C
  C2       1.0000 0.81590  0.72460  0.51560  Biso   1.000  C
  C3       1.0000 0.31590  0.77540  0.01560  Biso   1.000  C
  C4       1.0000 0.18410  0.27540  0.48440  Biso   1.000  C
  C5       1.0000 0.66960  0.33830  0.87010  Biso   1.000  C
  C6       1.0000 0.83040  0.83830  0.62990  Biso   1.000  C
  C7       1.0000 0.33040  0.66170  0.12990  Biso   1.000  C
  C8       1.0000 0.16960  0.16170  0.37010  Biso   1.000  C
  H1       1.0000 0.73600  0.30310  0.82350  Biso   1.000  H
  H2       1.0000 0.76400  0.80310  0.67650  Biso   1.000  H
  H3       1.0000 0.26400  0.69690  0.17650  Biso   1.000  H
  H4       1.0000 0.23600  0.19690  0.32350  Biso   1.000  H
  H5       1.0000 0.58300  0.31570  0.81850  Biso   1.000  H
  H6       1.0000 0.91700  0.81570  0.68150  Biso   1.000  H
  H7       1.0000 0.41700  0.68430  0.18150  Biso   1.000  H
  H8       1.0000 0.08300  0.18430  0.31850  Biso   1.000  H
  C9       1.0000 0.68190  0.52540  0.88660  Biso   1.000  C
  C10      1.0000 0.81810  0.02540  0.61340  Biso   1.000  C
  C11      1.0000 0.31810  0.47460  0.11340  Biso   1.000  C
  C12      1.0000 0.18190  0.97460  0.38660  Biso   1.000  C
  H9       1.0000 0.63090  0.58040  0.81380  Biso   1.000  H
  H10      1.0000 0.86910  0.08040  0.68620  Biso   1.000  H
  H11      1.0000 0.36910  0.41960  0.18620  Biso   1.000  H
  H12      1.0000 0.13090  0.91960  0.31380  Biso   1.000  H
  H13      1.0000 0.64440  0.55840  0.95720  Biso   1.000  H
  H14      1.0000 0.85560  0.05840  0.54280  Biso   1.000  H
  H15      1.0000 0.35560  0.44160  0.04280  Biso   1.000  H
  H16      1.0000 0.14440  0.94160  0.45720  Biso   1.000  H
  H17      1.0000 0.49300  0.22400  0.00300  Biso   1.000  H
  H18      1.0000 0.00700  0.72400  0.49700  Biso   1.000  H
  H19      1.0000 0.50700  0.77600  0.99700  Biso   1.000  H
  H20      1.0000 0.99300  0.27600  0.50300  Biso   1.000  H
  H21      1.0000 0.58800  0.40800  0.27700  Biso   1.000  H
  H22      1.0000 0.91200  0.90800  0.22300  Biso   1.000  H
  H23      1.0000 0.41200  0.59200  0.72300  Biso   1.000  H
  H24      1.0000 0.08800  0.09200  0.77700  Biso   1.000  H
  H25      1.0000 0.66700  0.32100  0.36400  Biso   1.000  H
  H26      1.0000 0.83300  0.82100  0.13600  Biso   1.000  H
  H27      1.0000 0.33300  0.67900  0.63600  Biso   1.000  H
  H28      1.0000 0.16700  0.17900  0.86400  Biso   1.000  H
  H29      1.0000 0.82900  0.69200  0.90300  Biso   1.000  H
  H30      1.0000 0.67100  0.19200  0.59700  Biso   1.000  H
  H31      1.0000 0.17100  0.30800  0.09700  Biso   1.000  H
  H32      1.0000 0.32900  0.80800  0.40300  Biso   1.000  H
  H33      1.0000 0.87100  0.54500  0.84700  Biso   1.000  H
  H34      1.0000 0.62900  0.04500  0.65300  Biso   1.000  H
  H35      1.0000 0.12900  0.45500  0.15300  Biso   1.000  H
  H36      1.0000 0.37100  0.95500  0.34700  Biso   1.000  H
  H37      1.0000 0.86300  0.53600  0.97900  Biso   1.000  H
  H38      1.0000 0.63700  0.03600  0.52100  Biso   1.000  H
  H39      1.0000 0.13700  0.46400  0.02100  Biso   1.000  H
  H40      1.0000 0.36300  0.96400  0.47900  Biso   1.000  H
