data_image0
_cell_length_a       11.032
_cell_length_b       11.948
_cell_length_c       13.468
_cell_angle_alpha    66.303
_cell_angle_beta     88.486
_cell_angle_gamma    78.288

_symmetry_space_group_name_H-M    "P 1"
_symmetry_int_tables_number       1

loop_
  _symmetry_equiv_pos_as_xyz
  'x, y, z'

loop_
  _atom_site_label
  _atom_site_occupancy
  _atom_site_fract_x
  _atom_site_fract_y
  _atom_site_fract_z
  _atom_site_thermal_displace_type
  _atom_site_B_iso_or_equiv
  _atom_site_type_symbol
  Nd1      1.0000 0.08818  0.19920  0.09094  Biso   1.000  Nd
  Nd2      1.0000 0.91182  0.80080  0.90906  Biso   1.000  Nd
  Cu1      1.0000 0.55974  0.15849  0.53422  Biso   1.000  Cu
  Cu2      1.0000 0.44026  0.84151  0.46578  Biso   1.000  Cu
  Cu3      1.0000 0.50000  0.50000  0.00000  Biso   1.000  Cu
  O1       1.0000 0.16310  0.99090  0.24130  Biso   1.000  O
  O2       1.0000 0.83690  0.00910  0.75870  Biso   1.000  O
  O3       1.0000 0.27910  0.93970  0.39170  Biso   1.000  O
  O4       1.0000 0.72090  0.06030  0.60830  Biso   1.000  O
  O5       1.0000 0.22990  0.06920  0.02250  Biso   1.000  O
  O6       1.0000 0.77010  0.93080  0.97750  Biso   1.000  O
  O7       1.0000 0.24540  0.88060  0.02970  Biso   1.000  O
  O8       1.0000 0.75460  0.11940  0.97030  Biso   1.000  O
  O9       1.0000 0.39340  0.23580  0.47010  Biso   1.000  O
  O10      1.0000 0.60660  0.76420  0.52990  Biso   1.000  O
  O11      1.0000 0.28700  0.31660  0.31040  Biso   1.000  O
  O12      1.0000 0.71300  0.68340  0.68960  Biso   1.000  O
  O13      1.0000 0.29080  0.18750  0.16540  Biso   1.000  O
  O14      1.0000 0.70920  0.81250  0.83460  Biso   1.000  O
  O15      1.0000 0.39300  0.32590  0.05480  Biso   1.000  O
  O16      1.0000 0.60700  0.67410  0.94520  Biso   1.000  O
  O17      1.0000 0.65740  0.40380  0.08660  Biso   1.000  O
  O18      1.0000 0.34260  0.59620  0.91340  Biso   1.000  O
  O19      1.0000 0.75070  0.34700  0.24920  Biso   1.000  O
  O20      1.0000 0.24930  0.65300  0.75080  Biso   1.000  O
  O21      1.0000 0.64140  0.32790  0.47910  Biso   1.000  O
  O22      1.0000 0.35860  0.67210  0.52090  Biso   1.000  O
  O23      1.0000 0.72000  0.49700  0.39360  Biso   1.000  O
  O24      1.0000 0.28000  0.50300  0.60640  Biso   1.000  O
  O25      1.0000 0.96320  0.18400  0.25120  Biso   1.000  O
  O26      1.0000 0.03680  0.81600  0.74880  Biso   1.000  O
  H1       1.0000 0.98750  0.18520  0.29440  Biso   1.000  H
  H2       1.0000 0.01250  0.81480  0.70560  Biso   1.000  H
  H3       1.0000 0.89900  0.18320  0.23580  Biso   1.000  H
  H4       1.0000 0.10100  0.81680  0.76420  Biso   1.000  H
  O27      1.0000 0.09930  0.38890  0.15030  Biso   1.000  O
  O28      1.0000 0.90070  0.61110  0.84970  Biso   1.000  O
  H5       1.0000 0.06090  0.35400  0.20530  Biso   1.000  H
  H6       1.0000 0.93910  0.64600  0.79470  Biso   1.000  H
  H7       1.0000 0.09200  0.44510  0.12490  Biso   1.000  H
  H8       1.0000 0.90800  0.55490  0.87510  Biso   1.000  H
  O29      1.0000 0.17700  0.36050  0.94680  Biso   1.000  O
  O30      1.0000 0.82300  0.63950  0.05320  Biso   1.000  O
  H9       1.0000 0.13870  0.41140  0.91550  Biso   1.000  H
  H10      1.0000 0.86130  0.58860  0.08450  Biso   1.000  H
  H11      1.0000 0.24650  0.35390  0.97520  Biso   1.000  H
  H12      1.0000 0.75350  0.64610  0.02480  Biso   1.000  H
  O31      1.0000 0.89900  0.37270  0.02610  Biso   1.000  O
  O32      1.0000 0.10100  0.62730  0.97390  Biso   1.000  O
  H13      1.0000 0.82680  0.35830  0.03600  Biso   1.000  H
  H14      1.0000 0.17320  0.64170  0.96400  Biso   1.000  H
  H15      1.0000 0.91030  0.42440  0.00600  Biso   1.000  H
  H16      1.0000 0.08970  0.57560  0.99400  Biso   1.000  H
  O33      1.0000 0.99600  0.23520  0.90270  Biso   1.000  O
  O34      1.0000 0.00400  0.76480  0.09730  Biso   1.000  O
  H17      1.0000 0.02340  0.29430  0.85610  Biso   1.000  H
  H18      1.0000 0.97660  0.70570  0.14390  Biso   1.000  H
  H19      1.0000 0.92680  0.22480  0.88760  Biso   1.000  H
  H20      1.0000 0.07320  0.77520  0.11240  Biso   1.000  H
  O35      1.0000 0.95170  0.05390  0.09960  Biso   1.000  O
  O36      1.0000 0.04830  0.94610  0.90040  Biso   1.000  O
  H21      1.0000 0.98760  0.01310  0.06490  Biso   1.000  H
  H22      1.0000 0.01240  0.98690  0.93510  Biso   1.000  H
  H23      1.0000 0.92910  0.01200  0.16120  Biso   1.000  H
  H24      1.0000 0.07090  0.98800  0.83880  Biso   1.000  H
  O37      1.0000 0.14960  0.43750  0.45430  Biso   1.000  O
  O38      1.0000 0.85040  0.56250  0.54570  Biso   1.000  O
  H25      1.0000 0.10690  0.41370  0.41850  Biso   1.000  H
  H26      1.0000 0.89310  0.58630  0.58150  Biso   1.000  H
  H27      1.0000 0.15380  0.51340  0.42500  Biso   1.000  H
  H28      1.0000 0.84620  0.48660  0.57500  Biso   1.000  H
  O39      1.0000 0.05150  0.17860  0.72070  Biso   1.000  O
  O40      1.0000 0.94850  0.82140  0.27930  Biso   1.000  O
  H29      1.0000 0.97440  0.18200  0.72100  Biso   1.000  H
  H30      1.0000 0.02560  0.81800  0.27900  Biso   1.000  H
  H31      1.0000 0.08090  0.22180  0.69100  Biso   1.000  H
  H32      1.0000 0.91910  0.77820  0.30900  Biso   1.000  H
  O41      1.0000 0.07430  0.48850  0.73640  Biso   1.000  O
  O42      1.0000 0.92570  0.51150  0.26360  Biso   1.000  O
  H33      1.0000 0.06790  0.43760  0.73450  Biso   1.000  H
  H34      1.0000 0.93210  0.56240  0.26550  Biso   1.000  H
  H35      1.0000 0.08930  0.51440  0.77480  Biso   1.000  H
  H36      1.0000 0.91070  0.48560  0.22520  Biso   1.000  H
  O43      1.0000 0.08320  0.74700  0.46990  Biso   1.000  O
  O44      1.0000 0.91680  0.25300  0.53010  Biso   1.000  O
  H37      1.0000 0.05400  0.70220  0.47600  Biso   1.000  H
  H38      1.0000 0.94600  0.29780  0.52400  Biso   1.000  H
  H39      1.0000 0.15750  0.74080  0.48830  Biso   1.000  H
  H40      1.0000 0.84250  0.25920  0.51170  Biso   1.000  H
  O45      1.0000 0.02620  0.99670  0.45190  Biso   1.000  O
  O46      1.0000 0.97380  0.00330  0.54810  Biso   1.000  O
  H41      1.0000 0.02900  0.91890  0.48000  Biso   1.000  H
  H42      1.0000 0.97100  0.08110  0.52000  Biso   1.000  H
  H43      1.0000 0.99360  0.02550  0.40550  Biso   1.000  H
  H44      1.0000 0.00640  0.97450  0.59450  Biso   1.000  H
  O47      1.0000 0.05090  0.41360  0.59520  Biso   1.000  O
  O48      1.0000 0.94910  0.58640  0.40480  Biso   1.000  O
  H45      1.0000 0.08240  0.41230  0.63480  Biso   1.000  H
  H46      1.0000 0.91760  0.58770  0.36520  Biso   1.000  H
  H47      1.0000 0.01450  0.40320  0.56040  Biso   1.000  H
  H48      1.0000 0.98550  0.59680  0.43960  Biso   1.000  H
  N1       1.0000 0.47630  0.84580  0.32110  Biso   1.000  N
  N2       1.0000 0.52370  0.15420  0.67890  Biso   1.000  N
  N3       1.0000 0.58390  0.12520  0.40120  Biso   1.000  N
  N4       1.0000 0.41610  0.87480  0.59880  Biso   1.000  N
  N5       1.0000 0.45770  0.52740  0.13260  Biso   1.000  N
  N6       1.0000 0.54230  0.47260  0.86740  Biso   1.000  N
  C1       1.0000 0.26560  0.94880  0.29470  Biso   1.000  C
  C2       1.0000 0.73440  0.05120  0.70530  Biso   1.000  C
  C3       1.0000 0.37760  0.90040  0.24830  Biso   1.000  C
  C4       1.0000 0.62240  0.09960  0.75170  Biso   1.000  C
  C5       1.0000 0.38420  0.90370  0.14410  Biso   1.000  C
  C6       1.0000 0.61580  0.09630  0.85590  Biso   1.000  C
  C7       1.0000 0.27500  0.95650  0.06000  Biso   1.000  C
  C8       1.0000 0.72500  0.04350  0.94000  Biso   1.000  C
  C9       1.0000 0.49780  0.85200  0.11480  Biso   1.000  C
  C10      1.0000 0.50220  0.14800  0.88520  Biso   1.000  C
  H49      1.0000 0.50420  0.85100  0.04610  Biso   1.000  H
  H50      1.0000 0.49580  0.14900  0.95390  Biso   1.000  H
  C11      1.0000 0.60090  0.80240  0.18760  Biso   1.000  C
  C12      1.0000 0.39910  0.19760  0.81240  Biso   1.000  C
  H51      1.0000 0.67790  0.77320  0.16700  Biso   1.000  H
  H52      1.0000 0.32210  0.22680  0.83300  Biso   1.000  H
  C13      1.0000 0.58630  0.79730  0.29150  Biso   1.000  C
  C14      1.0000 0.41370  0.20270  0.70850  Biso   1.000  C
  H53      1.0000 0.65360  0.75970  0.34230  Biso   1.000  H
  H54      1.0000 0.34640  0.24030  0.65770  Biso   1.000  H
  C15      1.0000 0.37850  0.25230  0.36980  Biso   1.000  C
  C16      1.0000 0.62150  0.74770  0.63020  Biso   1.000  C
  C17      1.0000 0.48790  0.18230  0.32990  Biso   1.000  C
  C18      1.0000 0.51210  0.81770  0.67010  Biso   1.000  C
  C19      1.0000 0.49050  0.18290  0.22690  Biso   1.000  C
  C20      1.0000 0.50950  0.81710  0.77310  Biso   1.000  C
  C21      1.0000 0.38250  0.23790  0.14510  Biso   1.000  C
  C22      1.0000 0.61750  0.76210  0.85490  Biso   1.000  C
  C23      1.0000 0.60070  0.11960  0.20140  Biso   1.000  C
  C24      1.0000 0.39930  0.88040  0.79860  Biso   1.000  C
  H55      1.0000 0.60760  0.11900  0.13260  Biso   1.000  H
  H56      1.0000 0.39240  0.88100  0.86740  Biso   1.000  H
  C25      1.0000 0.69840  0.05860  0.27830  Biso   1.000  C
  C26      1.0000 0.30160  0.94140  0.72170  Biso   1.000  C
  H57      1.0000 0.77110  0.01560  0.26240  Biso   1.000  H
  H58      1.0000 0.22890  0.98440  0.73760  Biso   1.000  H
  C27      1.0000 0.68700  0.06220  0.37730  Biso   1.000  C
  C28      1.0000 0.31300  0.93780  0.62270  Biso   1.000  C
  H59      1.0000 0.75210  0.01990  0.42990  Biso   1.000  H
  H60      1.0000 0.24790  0.98010  0.57010  Biso   1.000  H
  C29      1.0000 0.66250  0.39900  0.18360  Biso   1.000  C
  C30      1.0000 0.33750  0.60100  0.81640  Biso   1.000  C
  C31      1.0000 0.55070  0.47190  0.21320  Biso   1.000  C
  C32      1.0000 0.44930  0.52810  0.78680  Biso   1.000  C
  C33      1.0000 0.53990  0.48120  0.31120  Biso   1.000  C
  C34      1.0000 0.46010  0.51880  0.68880  Biso   1.000  C
  C35      1.0000 0.64280  0.43100  0.39980  Biso   1.000  C
  C36      1.0000 0.35720  0.56900  0.60020  Biso   1.000  C
  C37      1.0000 0.42620  0.54980  0.33170  Biso   1.000  C
  C38      1.0000 0.57380  0.45020  0.66830  Biso   1.000  C
  H61      1.0000 0.41540  0.55790  0.39740  Biso   1.000  H
  H62      1.0000 0.58460  0.44210  0.60260  Biso   1.000  H
  C39      1.0000 0.33210  0.60400  0.24790  Biso   1.000  C
  C40      1.0000 0.66790  0.39600  0.75210  Biso   1.000  C
  H63      1.0000 0.25680  0.64870  0.25770  Biso   1.000  H
  H64      1.0000 0.74320  0.35130  0.74230  Biso   1.000  H
  C41      1.0000 0.35110  0.59130  0.15210  Biso   1.000  C
  C42      1.0000 0.64890  0.40870  0.84790  Biso   1.000  C
  H65      1.0000 0.28740  0.62840  0.09780  Biso   1.000  H
  H66      1.0000 0.71260  0.37160  0.90220  Biso   1.000  H
