data_image0
_cell_length_a       11.117
_cell_length_b       11.992
_cell_length_c       13.42
_cell_angle_alpha    66.193
_cell_angle_beta     88.151
_cell_angle_gamma    78.3

_symmetry_space_group_name_H-M    "P 1"
_symmetry_int_tables_number       1

loop_
  _symmetry_equiv_pos_as_xyz
  'x, y, z'

loop_
  _atom_site_label
  _atom_site_occupancy
  _atom_site_fract_x
  _atom_site_fract_y
  _atom_site_fract_z
  _atom_site_thermal_displace_type
  _atom_site_B_iso_or_equiv
  _atom_site_type_symbol
  La1      1.0000 0.08815  0.19993  0.08867  Biso   1.000  La
  La2      1.0000 0.91185  0.80007  0.91133  Biso   1.000  La
  Cu1      1.0000 0.56047  0.15730  0.53409  Biso   1.000  Cu
  Cu2      1.0000 0.43953  0.84270  0.46591  Biso   1.000  Cu
  Cu3      1.0000 0.50000  0.50000  0.00000  Biso   1.000  Cu
  O1       1.0000 0.16510  0.98860  0.24330  Biso   1.000  O
  O2       1.0000 0.83490  0.01140  0.75670  Biso   1.000  O
  O3       1.0000 0.28040  0.93940  0.39300  Biso   1.000  O
  O4       1.0000 0.71960  0.06060  0.60700  Biso   1.000  O
  O5       1.0000 0.23050  0.06550  0.02140  Biso   1.000  O
  O6       1.0000 0.76950  0.93450  0.97860  Biso   1.000  O
  O7       1.0000 0.24110  0.87320  0.03730  Biso   1.000  O
  O8       1.0000 0.75890  0.12680  0.96270  Biso   1.000  O
  O9       1.0000 0.39580  0.23240  0.46970  Biso   1.000  O
  O10      1.0000 0.60420  0.76760  0.53030  Biso   1.000  O
  O11      1.0000 0.29040  0.31180  0.31110  Biso   1.000  O
  O12      1.0000 0.70960  0.68820  0.68890  Biso   1.000  O
  O13      1.0000 0.29570  0.18520  0.16390  Biso   1.000  O
  O14      1.0000 0.70430  0.81480  0.83610  Biso   1.000  O
  O15      1.0000 0.39710  0.32320  0.05700  Biso   1.000  O
  O16      1.0000 0.60290  0.67680  0.94300  Biso   1.000  O
  O17      1.0000 0.65460  0.40520  0.08630  Biso   1.000  O
  O18      1.0000 0.34540  0.59480  0.91370  Biso   1.000  O
  O19      1.0000 0.74720  0.34460  0.24910  Biso   1.000  O
  O20      1.0000 0.25280  0.65540  0.75090  Biso   1.000  O
  O21      1.0000 0.64070  0.32780  0.47930  Biso   1.000  O
  O22      1.0000 0.35930  0.67220  0.52070  Biso   1.000  O
  O23      1.0000 0.71390  0.49670  0.38970  Biso   1.000  O
  O24      1.0000 0.28610  0.50330  0.61030  Biso   1.000  O
  O25      1.0000 0.95810  0.18330  0.25210  Biso   1.000  O
  O26      1.0000 0.04190  0.81670  0.74790  Biso   1.000  O
  H1       1.0000 0.99750  0.18620  0.28530  Biso   1.000  H
  H2       1.0000 0.00250  0.81380  0.71470  Biso   1.000  H
  H3       1.0000 0.89200  0.23050  0.22000  Biso   1.000  H
  H4       1.0000 0.10800  0.76950  0.78000  Biso   1.000  H
  O27      1.0000 0.10420  0.38450  0.15270  Biso   1.000  O
  O28      1.0000 0.89580  0.61550  0.84730  Biso   1.000  O
  H5       1.0000 0.15030  0.33160  0.20610  Biso   1.000  H
  H6       1.0000 0.84970  0.66840  0.79390  Biso   1.000  H
  H7       1.0000 0.04980  0.43690  0.16430  Biso   1.000  H
  H8       1.0000 0.95020  0.56310  0.83570  Biso   1.000  H
  O29      1.0000 0.18450  0.36290  0.94020  Biso   1.000  O
  O30      1.0000 0.81550  0.63710  0.05980  Biso   1.000  O
  H9       1.0000 0.24730  0.33500  0.96960  Biso   1.000  H
  H10      1.0000 0.75270  0.66500  0.03040  Biso   1.000  H
  O31      1.0000 0.89720  0.37660  0.02490  Biso   1.000  O
  O32      1.0000 0.10280  0.62340  0.97510  Biso   1.000  O
  H11      1.0000 0.83140  0.38000  0.05710  Biso   1.000  H
  H12      1.0000 0.16860  0.62000  0.94290  Biso   1.000  H
  H13      1.0000 0.91060  0.44450  0.97860  Biso   1.000  H
  H14      1.0000 0.08940  0.55550  0.02140  Biso   1.000  H
  O33      1.0000 0.99450  0.23980  0.89790  Biso   1.000  O
  O34      1.0000 0.00550  0.76020  0.10210  Biso   1.000  O
  H15      1.0000 0.03330  0.28800  0.85110  Biso   1.000  H
  H16      1.0000 0.96670  0.71200  0.14890  Biso   1.000  H
  H17      1.0000 0.96580  0.19070  0.87970  Biso   1.000  H
  H18      1.0000 0.03420  0.80930  0.12030  Biso   1.000  H
  O35      1.0000 0.94970  0.04980  0.10360  Biso   1.000  O
  O36      1.0000 0.05030  0.95020  0.89640  Biso   1.000  O
  H19      1.0000 0.94160  0.06190  0.03780  Biso   1.000  H
  H20      1.0000 0.05840  0.93810  0.96220  Biso   1.000  H
  H21      1.0000 0.97100  0.97580  0.14920  Biso   1.000  H
  H22      1.0000 0.02900  0.02420  0.85080  Biso   1.000  H
  O37      1.0000 0.16390  0.42380  0.47250  Biso   1.000  O
  O38      1.0000 0.83610  0.57620  0.52750  Biso   1.000  O
  H23      1.0000 0.09740  0.45300  0.43380  Biso   1.000  H
  H24      1.0000 0.90260  0.54700  0.56620  Biso   1.000  H
  H25      1.0000 0.16300  0.36720  0.53520  Biso   1.000  H
  H26      1.0000 0.83700  0.63280  0.46480  Biso   1.000  H
  O39      1.0000 0.05030  0.17790  0.71950  Biso   1.000  O
  O40      1.0000 0.94970  0.82210  0.28050  Biso   1.000  O
  H27      1.0000 0.01310  0.15970  0.67620  Biso   1.000  H
  H28      1.0000 0.98690  0.84030  0.32380  Biso   1.000  H
  H29      1.0000 0.07670  0.24450  0.69060  Biso   1.000  H
  H30      1.0000 0.92330  0.75550  0.30940  Biso   1.000  H
  O41      1.0000 0.06650  0.50970  0.72890  Biso   1.000  O
  O42      1.0000 0.93350  0.49030  0.27110  Biso   1.000  O
  H31      1.0000 0.09900  0.52850  0.76610  Biso   1.000  H
  H32      1.0000 0.90100  0.47150  0.23390  Biso   1.000  H
  O43      1.0000 0.09310  0.75020  0.47430  Biso   1.000  O
  O44      1.0000 0.90690  0.24980  0.52570  Biso   1.000  O
  H33      1.0000 0.12300  0.70230  0.44360  Biso   1.000  H
  H34      1.0000 0.87700  0.29770  0.55640  Biso   1.000  H
  H35      1.0000 0.12700  0.73650  0.53460  Biso   1.000  H
  H36      1.0000 0.87300  0.26350  0.46540  Biso   1.000  H
  O45      1.0000 0.02880  0.01230  0.45350  Biso   1.000  O
  O46      1.0000 0.97120  0.98770  0.54650  Biso   1.000  O
  H37      1.0000 0.99400  0.05140  0.41030  Biso   1.000  H
  H38      1.0000 0.00600  0.94860  0.58970  Biso   1.000  H
  H39      1.0000 0.06200  0.93660  0.47200  Biso   1.000  H
  H40      1.0000 0.93800  0.06340  0.52800  Biso   1.000  H
  O47      1.0000 0.91490  0.83100  0.56320  Biso   1.000  O
  O48      1.0000 0.08510  0.16900  0.43680  Biso   1.000  O
  H41      1.0000 0.86960  0.81170  0.61690  Biso   1.000  H
  H42      1.0000 0.13040  0.18830  0.38310  Biso   1.000  H
  H43      1.0000 0.93300  0.77860  0.53490  Biso   1.000  H
  H44      1.0000 0.06700  0.22140  0.46510  Biso   1.000  H
  N1       1.0000 0.47560  0.84530  0.32010  Biso   1.000  N
  N2       1.0000 0.52440  0.15470  0.67990  Biso   1.000  N
  N3       1.0000 0.58510  0.12410  0.40080  Biso   1.000  N
  N4       1.0000 0.41490  0.87590  0.59920  Biso   1.000  N
  N5       1.0000 0.45570  0.52530  0.13490  Biso   1.000  N
  N6       1.0000 0.54430  0.47470  0.86510  Biso   1.000  N
  C1       1.0000 0.26490  0.94690  0.29610  Biso   1.000  C
  C2       1.0000 0.73510  0.05310  0.70390  Biso   1.000  C
  C3       1.0000 0.37800  0.89680  0.24920  Biso   1.000  C
  C4       1.0000 0.62200  0.10320  0.75080  Biso   1.000  C
  C5       1.0000 0.38280  0.90120  0.14430  Biso   1.000  C
  C6       1.0000 0.61720  0.09880  0.85570  Biso   1.000  C
  C7       1.0000 0.27450  0.95120  0.06190  Biso   1.000  C
  C8       1.0000 0.72550  0.04880  0.93810  Biso   1.000  C
  C9       1.0000 0.49560  0.85130  0.11570  Biso   1.000  C
  C10      1.0000 0.50440  0.14870  0.88430  Biso   1.000  C
  H45      1.0000 0.50200  0.85180  0.04630  Biso   1.000  H
  H46      1.0000 0.49800  0.14820  0.95370  Biso   1.000  H
  C11      1.0000 0.59690  0.80200  0.18520  Biso   1.000  C
  C12      1.0000 0.40310  0.19800  0.81480  Biso   1.000  C
  H47      1.0000 0.67270  0.77240  0.16380  Biso   1.000  H
  H48      1.0000 0.32730  0.22760  0.83620  Biso   1.000  H
  C13      1.0000 0.58230  0.79750  0.29150  Biso   1.000  C
  C14      1.0000 0.41770  0.20250  0.70850  Biso   1.000  C
  H49      1.0000 0.64880  0.76040  0.34250  Biso   1.000  H
  H50      1.0000 0.35120  0.23960  0.65750  Biso   1.000  H
  C15      1.0000 0.38050  0.24770  0.37100  Biso   1.000  C
  C16      1.0000 0.61950  0.75230  0.62900  Biso   1.000  C
  C17      1.0000 0.48820  0.17970  0.32980  Biso   1.000  C
  C18      1.0000 0.51180  0.82030  0.67020  Biso   1.000  C
  C19      1.0000 0.49180  0.17920  0.22680  Biso   1.000  C
  C20      1.0000 0.50820  0.82080  0.77320  Biso   1.000  C
  C21      1.0000 0.38670  0.23630  0.14240  Biso   1.000  C
  C22      1.0000 0.61330  0.76370  0.85760  Biso   1.000  C
  C23      1.0000 0.59940  0.11990  0.20060  Biso   1.000  C
  C24      1.0000 0.40060  0.88010  0.79940  Biso   1.000  C
  H51      1.0000 0.60610  0.12130  0.13090  Biso   1.000  H
  H52      1.0000 0.39390  0.87870  0.86910  Biso   1.000  H
  C25      1.0000 0.69700  0.05880  0.27560  Biso   1.000  C
  C26      1.0000 0.30300  0.94120  0.72440  Biso   1.000  C
  H53      1.0000 0.76820  0.01560  0.25840  Biso   1.000  H
  H54      1.0000 0.23180  0.98440  0.74160  Biso   1.000  H
  C27      1.0000 0.68780  0.06250  0.37610  Biso   1.000  C
  C28      1.0000 0.31220  0.93750  0.62390  Biso   1.000  C
  H55      1.0000 0.75340  0.02190  0.42770  Biso   1.000  H
  H56      1.0000 0.24660  0.97810  0.57230  Biso   1.000  H
  C29      1.0000 0.65860  0.39990  0.18300  Biso   1.000  C
  C30      1.0000 0.34140  0.60010  0.81700  Biso   1.000  C
  C31      1.0000 0.54760  0.47270  0.21240  Biso   1.000  C
  C32      1.0000 0.45240  0.52730  0.78760  Biso   1.000  C
  C33      1.0000 0.53640  0.48070  0.31340  Biso   1.000  C
  C34      1.0000 0.46360  0.51930  0.68660  Biso   1.000  C
  C35      1.0000 0.64130  0.42860  0.40010  Biso   1.000  C
  C36      1.0000 0.35870  0.57140  0.59990  Biso   1.000  C
  C37      1.0000 0.42760  0.54660  0.33090  Biso   1.000  C
  C38      1.0000 0.57240  0.45340  0.66910  Biso   1.000  C
  H57      1.0000 0.41670  0.55440  0.39690  Biso   1.000  H
  H58      1.0000 0.58330  0.44560  0.60310  Biso   1.000  H
  C39      1.0000 0.33580  0.60040  0.25130  Biso   1.000  C
  C40      1.0000 0.66420  0.39960  0.74870  Biso   1.000  C
  H59      1.0000 0.26210  0.64480  0.26320  Biso   1.000  H
  H60      1.0000 0.73790  0.35520  0.73680  Biso   1.000  H
  C41      1.0000 0.35120  0.58980  0.15310  Biso   1.000  C
  C42      1.0000 0.64880  0.41020  0.84690  Biso   1.000  C
  H61      1.0000 0.28810  0.62790  0.09900  Biso   1.000  H
  H62      1.0000 0.71190  0.37210  0.90100  Biso   1.000  H
  H63      1.0000 0.15040  0.42850  0.90500  Biso   1.000  H
  H64      1.0000 0.84960  0.57150  0.09500  Biso   1.000  H
  H65      1.0000 0.00710  0.53100  0.69390  Biso   1.000  H
  H66      1.0000 0.99290  0.46900  0.30610  Biso   1.000  H
