data_image0
_cell_length_a       11.711
_cell_length_b       13.103
_cell_length_c       19.499
_cell_angle_alpha    90
_cell_angle_beta     96.755
_cell_angle_gamma    90

_symmetry_space_group_name_H-M    "P 1"
_symmetry_int_tables_number       1

loop_
  _symmetry_equiv_pos_as_xyz
  'x, y, z'

loop_
  _atom_site_label
  _atom_site_occupancy
  _atom_site_fract_x
  _atom_site_fract_y
  _atom_site_fract_z
  _atom_site_thermal_displace_type
  _atom_site_B_iso_or_equiv
  _atom_site_type_symbol
  Yb1      1.0000 0.86915  0.06320  0.65154  Biso   1.000  Yb
  Yb2      1.0000 0.63085  0.56320  0.84846  Biso   1.000  Yb
  Yb3      1.0000 0.13085  0.93680  0.34846  Biso   1.000  Yb
  Yb4      1.0000 0.36915  0.43680  0.15154  Biso   1.000  Yb
  Cu1      1.0000 0.16149  0.41797  0.84517  Biso   1.000  Cu
  Cu2      1.0000 0.33851  0.91797  0.65483  Biso   1.000  Cu
  Cu3      1.0000 0.83851  0.58203  0.15483  Biso   1.000  Cu
  Cu4      1.0000 0.66149  0.08203  0.34517  Biso   1.000  Cu
  Cu5      1.0000 0.00000  0.00000  0.00000  Biso   1.000  Cu
  Cu6      1.0000 0.50000  0.50000  0.50000  Biso   1.000  Cu
  O1       1.0000 0.17770  0.96135  0.65170  Biso   1.000  O
  O2       1.0000 0.32230  0.46135  0.84830  Biso   1.000  O
  O3       1.0000 0.82230  0.03865  0.34830  Biso   1.000  O
  O4       1.0000 0.67770  0.53865  0.15170  Biso   1.000  O
  O5       1.0000 0.06689  0.09749  0.65513  Biso   1.000  O
  O6       1.0000 0.43311  0.59749  0.84487  Biso   1.000  O
  O7       1.0000 0.93311  0.90251  0.34487  Biso   1.000  O
  O8       1.0000 0.56689  0.40251  0.15513  Biso   1.000  O
  O9       1.0000 0.12080  0.29730  0.59583  Biso   1.000  O
  O10      1.0000 0.37920  0.79730  0.90417  Biso   1.000  O
  O11      1.0000 0.87920  0.70270  0.40417  Biso   1.000  O
  O12      1.0000 0.62080  0.20270  0.09583  Biso   1.000  O
  O13      1.0000 0.14360  0.35290  0.70409  Biso   1.000  O
  O14      1.0000 0.35640  0.85290  0.79591  Biso   1.000  O
  O15      1.0000 0.85640  0.64710  0.29591  Biso   1.000  O
  O16      1.0000 0.64360  0.14710  0.20409  Biso   1.000  O
  O17      1.0000 0.00207  0.37636  0.84020  Biso   1.000  O
  O18      1.0000 0.49793  0.87636  0.65980  Biso   1.000  O
  O19      1.0000 0.99793  0.62364  0.15980  Biso   1.000  O
  O20      1.0000 0.50207  0.12364  0.34020  Biso   1.000  O
  O21      1.0000 0.89261  0.23763  0.84012  Biso   1.000  O
  O22      1.0000 0.60739  0.73763  0.65988  Biso   1.000  O
  O23      1.0000 0.10739  0.76237  0.15988  Biso   1.000  O
  O24      1.0000 0.39261  0.26237  0.34012  Biso   1.000  O
  O25      1.0000 0.93280  0.04996  0.76364  Biso   1.000  O
  O26      1.0000 0.56720  0.54996  0.73636  Biso   1.000  O
  O27      1.0000 0.06720  0.95004  0.23636  Biso   1.000  O
  O28      1.0000 0.43280  0.45004  0.26364  Biso   1.000  O
  O29      1.0000 0.96410  0.99002  0.86954  Biso   1.000  O
  O30      1.0000 0.53590  0.49002  0.63046  Biso   1.000  O
  O31      1.0000 0.03590  0.00998  0.13046  Biso   1.000  O
  O32      1.0000 0.46410  0.50998  0.36954  Biso   1.000  O
  O33      1.0000 0.84190  0.95239  0.99621  Biso   1.000  O
  O34      1.0000 0.65810  0.45239  0.50379  Biso   1.000  O
  O35      1.0000 0.15810  0.04761  0.00379  Biso   1.000  O
  O36      1.0000 0.34190  0.54761  0.49621  Biso   1.000  O
  O37      1.0000 0.73731  0.81067  0.98975  Biso   1.000  O
  O38      1.0000 0.76269  0.31067  0.51025  Biso   1.000  O
  O39      1.0000 0.26269  0.18933  0.01025  Biso   1.000  O
  O40      1.0000 0.23731  0.68933  0.48975  Biso   1.000  O
  O41      1.0000 0.80950  0.57591  0.02826  Biso   1.000  O
  O42      1.0000 0.69050  0.07591  0.47174  Biso   1.000  O
  O43      1.0000 0.19050  0.42409  0.97174  Biso   1.000  O
  O44      1.0000 0.30950  0.92409  0.52826  Biso   1.000  O
  O45      1.0000 0.79879  0.60893  0.91538  Biso   1.000  O
  O46      1.0000 0.70121  0.10893  0.58462  Biso   1.000  O
  O47      1.0000 0.20121  0.39107  0.08462  Biso   1.000  O
  O48      1.0000 0.29879  0.89107  0.41538  Biso   1.000  O
  O49      1.0000 0.77180  0.18012  0.71418  Biso   1.000  O
  O50      1.0000 0.72820  0.68012  0.78582  Biso   1.000  O
  O51      1.0000 0.22820  0.81988  0.28582  Biso   1.000  O
  O52      1.0000 0.27180  0.31988  0.21418  Biso   1.000  O
  H1       1.0000 0.76060  0.23910  0.69820  Biso   1.000  H
  H2       1.0000 0.73940  0.73910  0.80180  Biso   1.000  H
  H3       1.0000 0.23940  0.76090  0.30180  Biso   1.000  H
  H4       1.0000 0.26060  0.26090  0.19820  Biso   1.000  H
  H5       1.0000 0.81550  0.17540  0.75150  Biso   1.000  H
  H6       1.0000 0.68450  0.67540  0.74850  Biso   1.000  H
  H7       1.0000 0.18450  0.82460  0.24850  Biso   1.000  H
  H8       1.0000 0.31550  0.32460  0.25150  Biso   1.000  H
  O53      1.0000 0.90510  0.21876  0.60406  Biso   1.000  O
  O54      1.0000 0.59490  0.71876  0.89594  Biso   1.000  O
  O55      1.0000 0.09490  0.78124  0.39594  Biso   1.000  O
  O56      1.0000 0.40510  0.28124  0.10406  Biso   1.000  O
  H9       1.0000 0.85940  0.26420  0.58700  Biso   1.000  H
  H10      1.0000 0.64060  0.76420  0.91300  Biso   1.000  H
  H11      1.0000 0.14060  0.73580  0.41300  Biso   1.000  H
  H12      1.0000 0.35940  0.23580  0.08700  Biso   1.000  H
  H13      1.0000 0.94810  0.19430  0.57640  Biso   1.000  H
  H14      1.0000 0.55190  0.69430  0.92360  Biso   1.000  H
  H15      1.0000 0.05190  0.80570  0.42360  Biso   1.000  H
  H16      1.0000 0.44810  0.30570  0.07640  Biso   1.000  H
  O57      1.0000 0.73530  0.95092  0.68342  Biso   1.000  O
  O58      1.0000 0.76470  0.45092  0.81658  Biso   1.000  O
  O59      1.0000 0.26470  0.04908  0.31658  Biso   1.000  O
  O60      1.0000 0.23530  0.54908  0.18342  Biso   1.000  O
  H17      1.0000 0.68740  0.92760  0.65210  Biso   1.000  H
  H18      1.0000 0.81260  0.42760  0.84790  Biso   1.000  H
  H19      1.0000 0.31260  0.07240  0.34790  Biso   1.000  H
  H20      1.0000 0.18740  0.57240  0.15210  Biso   1.000  H
  H21      1.0000 0.71370  0.95860  0.72250  Biso   1.000  H
  H22      1.0000 0.78630  0.45860  0.77750  Biso   1.000  H
  H23      1.0000 0.28630  0.04140  0.27750  Biso   1.000  H
  H24      1.0000 0.21370  0.54140  0.22250  Biso   1.000  H
  O61      1.0000 0.88730  0.00280  0.54176  Biso   1.000  O
  O62      1.0000 0.61270  0.50280  0.95824  Biso   1.000  O
  O63      1.0000 0.11270  0.99720  0.45824  Biso   1.000  O
  O64      1.0000 0.38730  0.49720  0.04176  Biso   1.000  O
  H25      1.0000 0.83390  0.02070  0.51150  Biso   1.000  H
  H26      1.0000 0.66610  0.52070  0.98850  Biso   1.000  H
  H27      1.0000 0.16610  0.97930  0.48850  Biso   1.000  H
  H28      1.0000 0.33390  0.47930  0.01150  Biso   1.000  H
  H29      1.0000 0.92030  0.94720  0.53470  Biso   1.000  H
  H30      1.0000 0.57970  0.44720  0.96530  Biso   1.000  H
  H31      1.0000 0.07970  0.05280  0.46530  Biso   1.000  H
  H32      1.0000 0.42030  0.55280  0.03470  Biso   1.000  H
  O65      1.0000 0.95810  0.90048  0.66654  Biso   1.000  O
  O66      1.0000 0.54190  0.40048  0.83346  Biso   1.000  O
  O67      1.0000 0.04190  0.09952  0.33346  Biso   1.000  O
  O68      1.0000 0.45810  0.59952  0.16654  Biso   1.000  O
  H33      1.0000 0.02980  0.91030  0.67080  Biso   1.000  H
  H34      1.0000 0.47020  0.41030  0.82920  Biso   1.000  H
  H35      1.0000 0.97020  0.08970  0.32920  Biso   1.000  H
  H36      1.0000 0.52980  0.58970  0.17080  Biso   1.000  H
  H37      1.0000 0.93500  0.86270  0.63280  Biso   1.000  H
  H38      1.0000 0.56500  0.36270  0.86720  Biso   1.000  H
  H39      1.0000 0.06500  0.13730  0.36720  Biso   1.000  H
  H40      1.0000 0.43500  0.63730  0.13280  Biso   1.000  H
  O69      1.0000 0.89570  0.53230  0.51590  Biso   1.000  O
  O70      1.0000 0.60430  0.03230  0.98410  Biso   1.000  O
  O71      1.0000 0.10430  0.46770  0.48410  Biso   1.000  O
  O72      1.0000 0.39570  0.96770  0.01590  Biso   1.000  O
  H41      1.0000 0.92360  0.58960  0.50540  Biso   1.000  H
  H42      1.0000 0.57640  0.08960  0.99460  Biso   1.000  H
  H43      1.0000 0.07640  0.41040  0.49460  Biso   1.000  H
  H44      1.0000 0.42360  0.91040  0.00540  Biso   1.000  H
  H45      1.0000 0.88730  0.52980  0.55870  Biso   1.000  H
  H46      1.0000 0.61270  0.02980  0.94130  Biso   1.000  H
  H47      1.0000 0.11270  0.47020  0.44130  Biso   1.000  H
  H48      1.0000 0.38730  0.97020  0.05870  Biso   1.000  H
  O73      1.0000 0.76620  0.88320  0.81730  Biso   1.000  O
  O74      1.0000 0.73380  0.38320  0.68270  Biso   1.000  O
  O75      1.0000 0.23380  0.11680  0.18270  Biso   1.000  O
  O76      1.0000 0.26620  0.61680  0.31730  Biso   1.000  O
  H49      1.0000 0.81980  0.92580  0.81650  Biso   1.000  H
  H50      1.0000 0.68020  0.42580  0.68350  Biso   1.000  H
  H51      1.0000 0.18020  0.07420  0.18350  Biso   1.000  H
  H52      1.0000 0.31980  0.57420  0.31650  Biso   1.000  H
  H53      1.0000 0.71590  0.89900  0.84260  Biso   1.000  H
  H54      1.0000 0.78410  0.39900  0.65740  Biso   1.000  H
  H55      1.0000 0.28410  0.10100  0.15740  Biso   1.000  H
  H56      1.0000 0.21590  0.60100  0.34260  Biso   1.000  H
  O77      1.0000 0.55830  0.97260  0.84347  Biso   1.000  O
  O78      1.0000 0.94170  0.47260  0.65653  Biso   1.000  O
  O79      1.0000 0.44170  0.02740  0.15653  Biso   1.000  O
  O80      1.0000 0.05830  0.52740  0.34347  Biso   1.000  O
  H57      1.0000 0.59340  0.98550  0.80930  Biso   1.000  H
  H58      1.0000 0.90660  0.48550  0.69070  Biso   1.000  H
  H59      1.0000 0.40660  0.01450  0.19070  Biso   1.000  H
  H60      1.0000 0.09340  0.51450  0.30930  Biso   1.000  H
  H61      1.0000 0.50980  0.92480  0.83750  Biso   1.000  H
  H62      1.0000 0.99020  0.42480  0.66250  Biso   1.000  H
  H63      1.0000 0.49020  0.07520  0.16250  Biso   1.000  H
  H64      1.0000 0.00980  0.57520  0.33750  Biso   1.000  H
  O81      1.0000 0.96370  0.81250  0.52330  Biso   1.000  O
  O82      1.0000 0.53630  0.31250  0.97670  Biso   1.000  O
  O83      1.0000 0.03630  0.18750  0.47670  Biso   1.000  O
  O84      1.0000 0.46370  0.68750  0.02330  Biso   1.000  O
  H65      1.0000 0.92060  0.77380  0.49830  Biso   1.000  H
  H66      1.0000 0.57940  0.27380  0.00170  Biso   1.000  H
  H67      1.0000 0.07940  0.22620  0.50170  Biso   1.000  H
  H68      1.0000 0.42060  0.72620  0.99830  Biso   1.000  H
  H69      1.0000 0.01740  0.84300  0.50790  Biso   1.000  H
  H70      1.0000 0.48260  0.34300  0.99210  Biso   1.000  H
  H71      1.0000 0.98260  0.15700  0.49210  Biso   1.000  H
  H72      1.0000 0.51740  0.65700  0.00790  Biso   1.000  H
  O85      1.0000 0.84950  0.71340  0.63795  Biso   1.000  O
  O86      1.0000 0.65050  0.21340  0.86205  Biso   1.000  O
  O87      1.0000 0.15050  0.28660  0.36205  Biso   1.000  O
  O88      1.0000 0.34950  0.78660  0.13795  Biso   1.000  O
  H73      1.0000 0.89170  0.66490  0.65460  Biso   1.000  H
  H74      1.0000 0.60830  0.16490  0.84540  Biso   1.000  H
  H75      1.0000 0.10830  0.33510  0.34540  Biso   1.000  H
  H76      1.0000 0.39170  0.83510  0.15460  Biso   1.000  H
  H77      1.0000 0.85500  0.72380  0.59540  Biso   1.000  H
  H78      1.0000 0.64500  0.22380  0.90460  Biso   1.000  H
  H79      1.0000 0.14500  0.27620  0.40460  Biso   1.000  H
  H80      1.0000 0.35500  0.77620  0.09540  Biso   1.000  H
  N1       1.0000 0.36680  0.06413  0.67328  Biso   1.000  N
  N2       1.0000 0.13320  0.56413  0.82672  Biso   1.000  N
  N3       1.0000 0.63320  0.93587  0.32672  Biso   1.000  N
  N4       1.0000 0.86680  0.43587  0.17328  Biso   1.000  N
  N5       1.0000 0.19170  0.27090  0.84979  Biso   1.000  N
  N6       1.0000 0.30830  0.77090  0.65021  Biso   1.000  N
  N7       1.0000 0.80830  0.72910  0.15021  Biso   1.000  N
  N8       1.0000 0.69170  0.22910  0.34979  Biso   1.000  N
  N9       1.0000 0.03490  0.85250  0.99729  Biso   1.000  N
  N10      1.0000 0.46510  0.35250  0.50271  Biso   1.000  N
  N11      1.0000 0.96510  0.14750  0.00271  Biso   1.000  N
  N12      1.0000 0.53490  0.64750  0.49729  Biso   1.000  N
  C1       1.0000 0.16250  0.05700  0.65540  Biso   1.000  C
  C2       1.0000 0.33750  0.55700  0.84460  Biso   1.000  C
  C3       1.0000 0.83750  0.94300  0.34460  Biso   1.000  C
  C4       1.0000 0.66250  0.44300  0.15540  Biso   1.000  C
  C5       1.0000 0.26950  0.12200  0.66593  Biso   1.000  C
  C6       1.0000 0.23050  0.62200  0.83407  Biso   1.000  C
  C7       1.0000 0.73050  0.87800  0.33407  Biso   1.000  C
  C8       1.0000 0.76950  0.37800  0.16593  Biso   1.000  C
  C9       1.0000 0.27270  0.22670  0.67172  Biso   1.000  C
  C10      1.0000 0.22730  0.72670  0.82828  Biso   1.000  C
  C11      1.0000 0.72730  0.77330  0.32828  Biso   1.000  C
  C12      1.0000 0.77270  0.27330  0.17172  Biso   1.000  C
  C13      1.0000 0.16670  0.29720  0.65655  Biso   1.000  C
  C14      1.0000 0.33330  0.79720  0.84345  Biso   1.000  C
  C15      1.0000 0.83330  0.70280  0.34345  Biso   1.000  C
  C16      1.0000 0.66670  0.20280  0.15655  Biso   1.000  C
  C17      1.0000 0.37830  0.27140  0.68860  Biso   1.000  C
  C18      1.0000 0.12170  0.77140  0.81140  Biso   1.000  C
  C19      1.0000 0.62170  0.72860  0.31140  Biso   1.000  C
  C20      1.0000 0.87830  0.22860  0.18860  Biso   1.000  C
  H81      1.0000 0.38300  0.34180  0.69470  Biso   1.000  H
  H82      1.0000 0.11700  0.84180  0.80530  Biso   1.000  H
  H83      1.0000 0.61700  0.65820  0.30530  Biso   1.000  H
  H84      1.0000 0.88300  0.15820  0.19470  Biso   1.000  H
  C21      1.0000 0.47780  0.21370  0.69670  Biso   1.000  C
  C22      1.0000 0.02220  0.71370  0.80330  Biso   1.000  C
  C23      1.0000 0.52220  0.78630  0.30330  Biso   1.000  C
  C24      1.0000 0.97780  0.28630  0.19670  Biso   1.000  C
  H85      1.0000 0.54910  0.24420  0.70850  Biso   1.000  H
  H86      1.0000 0.95090  0.74420  0.79150  Biso   1.000  H
  H87      1.0000 0.45090  0.75580  0.29150  Biso   1.000  H
  H88      1.0000 0.04910  0.25580  0.20850  Biso   1.000  H
  C25      1.0000 0.46870  0.11050  0.68695  Biso   1.000  C
  C26      1.0000 0.03130  0.61050  0.81305  Biso   1.000  C
  C27      1.0000 0.53130  0.88950  0.31305  Biso   1.000  C
  C28      1.0000 0.96870  0.38950  0.18695  Biso   1.000  C
  H89      1.0000 0.53540  0.07140  0.68990  Biso   1.000  H
  H90      1.0000 0.96460  0.57140  0.81010  Biso   1.000  H
  H91      1.0000 0.46460  0.92860  0.31010  Biso   1.000  H
  H92      1.0000 0.03540  0.42860  0.18990  Biso   1.000  H
  C29      1.0000 0.98640  0.27990  0.83871  Biso   1.000  C
  C30      1.0000 0.51360  0.77990  0.66129  Biso   1.000  C
  C31      1.0000 0.01360  0.72010  0.16129  Biso   1.000  C
  C32      1.0000 0.48640  0.22010  0.33871  Biso   1.000  C
  C33      1.0000 0.09300  0.21530  0.83996  Biso   1.000  C
  C34      1.0000 0.40700  0.71530  0.66004  Biso   1.000  C
  C35      1.0000 0.90700  0.78470  0.16004  Biso   1.000  C
  C36      1.0000 0.59300  0.28470  0.33996  Biso   1.000  C
  C37      1.0000 0.09470  0.11080  0.83444  Biso   1.000  C
  C38      1.0000 0.40530  0.61080  0.66556  Biso   1.000  C
  C39      1.0000 0.90530  0.88920  0.16556  Biso   1.000  C
  C40      1.0000 0.59470  0.38920  0.33444  Biso   1.000  C
  C41      1.0000 0.98680  0.04510  0.82194  Biso   1.000  C
  C42      1.0000 0.51320  0.54510  0.67806  Biso   1.000  C
  C43      1.0000 0.01320  0.95490  0.17806  Biso   1.000  C
  C44      1.0000 0.48680  0.45490  0.32194  Biso   1.000  C
  C45      1.0000 0.20230  0.06310  0.84010  Biso   1.000  C
  C46      1.0000 0.29770  0.56310  0.65990  Biso   1.000  C
  C47      1.0000 0.79770  0.93690  0.15990  Biso   1.000  C
  C48      1.0000 0.70230  0.43690  0.34010  Biso   1.000  C
  H93      1.0000 0.20650  0.99240  0.83690  Biso   1.000  H
  H94      1.0000 0.29350  0.49240  0.66310  Biso   1.000  H
  H95      1.0000 0.79350  0.00760  0.16310  Biso   1.000  H
  H96      1.0000 0.70650  0.50760  0.33690  Biso   1.000  H
  C49      1.0000 0.30210  0.11970  0.85030  Biso   1.000  C
  C50      1.0000 0.19790  0.61970  0.64970  Biso   1.000  C
  C51      1.0000 0.69790  0.88030  0.14970  Biso   1.000  C
  C52      1.0000 0.80210  0.38030  0.35030  Biso   1.000  C
  H97      1.0000 0.37380  0.08850  0.85380  Biso   1.000  H
  H98      1.0000 0.12620  0.58850  0.64620  Biso   1.000  H
  H99      1.0000 0.62620  0.91150  0.14620  Biso   1.000  H
  H100     1.0000 0.87380  0.41150  0.35380  Biso   1.000  H
  C53      1.0000 0.29210  0.22310  0.85509  Biso   1.000  C
  C54      1.0000 0.20790  0.72310  0.64491  Biso   1.000  C
  C55      1.0000 0.70790  0.77690  0.14491  Biso   1.000  C
  C56      1.0000 0.79210  0.27690  0.35509  Biso   1.000  C
  H101     1.0000 0.35890  0.26190  0.86240  Biso   1.000  H
  H102     1.0000 0.14110  0.76190  0.63760  Biso   1.000  H
  H103     1.0000 0.64110  0.73810  0.13760  Biso   1.000  H
  H104     1.0000 0.85890  0.23810  0.36240  Biso   1.000  H
  C57      1.0000 0.83080  0.85650  0.99185  Biso   1.000  C
  C58      1.0000 0.66920  0.35650  0.50815  Biso   1.000  C
  C59      1.0000 0.16920  0.14350  0.00815  Biso   1.000  C
  C60      1.0000 0.33080  0.64350  0.49185  Biso   1.000  C
  C61      1.0000 0.93860  0.79510  0.99156  Biso   1.000  C
  C62      1.0000 0.56140  0.29510  0.50844  Biso   1.000  C
  C63      1.0000 0.06140  0.20490  0.00844  Biso   1.000  C
  C64      1.0000 0.43860  0.70490  0.49156  Biso   1.000  C
  C65      1.0000 0.94460  0.69030  0.98735  Biso   1.000  C
  C66      1.0000 0.55540  0.19030  0.51265  Biso   1.000  C
  C67      1.0000 0.05540  0.30970  0.01265  Biso   1.000  C
  C68      1.0000 0.44460  0.80970  0.48735  Biso   1.000  C
  C69      1.0000 0.84090  0.62120  0.97744  Biso   1.000  C
  C70      1.0000 0.65910  0.12120  0.52256  Biso   1.000  C
  C71      1.0000 0.15910  0.37880  0.02256  Biso   1.000  C
  C72      1.0000 0.34090  0.87880  0.47744  Biso   1.000  C
  C73      1.0000 0.05310  0.64520  0.99020  Biso   1.000  C
  C74      1.0000 0.44690  0.14520  0.50980  Biso   1.000  C
  C75      1.0000 0.94690  0.35480  0.00980  Biso   1.000  C
  C76      1.0000 0.55310  0.85480  0.49020  Biso   1.000  C
  H105     1.0000 0.06000  0.57460  0.98770  Biso   1.000  H
  H106     1.0000 0.44000  0.07460  0.51230  Biso   1.000  H
  H107     1.0000 0.94000  0.42540  0.01230  Biso   1.000  H
  H108     1.0000 0.56000  0.92540  0.48770  Biso   1.000  H
  C77      1.0000 0.14950  0.70570  0.99676  Biso   1.000  C
  C78      1.0000 0.35050  0.20570  0.50324  Biso   1.000  C
  C79      1.0000 0.85050  0.29430  0.00324  Biso   1.000  C
  C80      1.0000 0.64950  0.79430  0.49676  Biso   1.000  C
  H109     1.0000 0.22220  0.67630  0.99980  Biso   1.000  H
  H110     1.0000 0.27780  0.17630  0.50020  Biso   1.000  H
  H111     1.0000 0.77780  0.32370  0.00020  Biso   1.000  H
  H112     1.0000 0.72220  0.82370  0.49980  Biso   1.000  H
  C81      1.0000 0.13790  0.80930  0.99883  Biso   1.000  C
  C82      1.0000 0.36210  0.30930  0.50117  Biso   1.000  C
  C83      1.0000 0.86210  0.19070  0.00117  Biso   1.000  C
  C84      1.0000 0.63790  0.69070  0.49883  Biso   1.000  C
  H113     1.0000 0.20300  0.85030  0.00140  Biso   1.000  H
  H114     1.0000 0.29700  0.35030  0.49860  Biso   1.000  H
  H115     1.0000 0.79700  0.14970  0.99860  Biso   1.000  H
  H116     1.0000 0.70300  0.64970  0.50140  Biso   1.000  H
