data_image0
_cell_length_a       11.7154
_cell_length_b       13.1026
_cell_length_c       19.534
_cell_angle_alpha    90
_cell_angle_beta     96.545
_cell_angle_gamma    90

_symmetry_space_group_name_H-M    "P 1"
_symmetry_int_tables_number       1

loop_
  _symmetry_equiv_pos_as_xyz
  'x, y, z'

loop_
  _atom_site_label
  _atom_site_occupancy
  _atom_site_fract_x
  _atom_site_fract_y
  _atom_site_fract_z
  _atom_site_thermal_displace_type
  _atom_site_B_iso_or_equiv
  _atom_site_type_symbol
  Er1      1.0000 0.87004  0.06270  0.65052  Biso   1.000  Er
  Er2      1.0000 0.62996  0.56270  0.84948  Biso   1.000  Er
  Er3      1.0000 0.12996  0.93730  0.34948  Biso   1.000  Er
  Er4      1.0000 0.37004  0.43730  0.15052  Biso   1.000  Er
  Cu1      1.0000 0.16031  0.41745  0.84479  Biso   1.000  Cu
  Cu2      1.0000 0.33969  0.91745  0.65521  Biso   1.000  Cu
  Cu3      1.0000 0.83969  0.58255  0.15521  Biso   1.000  Cu
  Cu4      1.0000 0.66031  0.08255  0.34479  Biso   1.000  Cu
  Cu5      1.0000 0.00000  0.00000  0.00000  Biso   1.000  Cu
  Cu6      1.0000 0.50000  0.50000  0.50000  Biso   1.000  Cu
  O1       1.0000 0.17960  0.96047  0.65255  Biso   1.000  O
  O2       1.0000 0.32040  0.46047  0.84745  Biso   1.000  O
  O3       1.0000 0.82040  0.03953  0.34745  Biso   1.000  O
  O4       1.0000 0.67960  0.53953  0.15255  Biso   1.000  O
  O5       1.0000 0.06806  0.09673  0.65337  Biso   1.000  O
  O6       1.0000 0.43194  0.59673  0.84663  Biso   1.000  O
  O7       1.0000 0.93194  0.90327  0.34663  Biso   1.000  O
  O8       1.0000 0.56806  0.40327  0.15337  Biso   1.000  O
  O9       1.0000 0.12220  0.29780  0.59565  Biso   1.000  O
  O10      1.0000 0.37780  0.79780  0.90435  Biso   1.000  O
  O11      1.0000 0.87780  0.70220  0.40435  Biso   1.000  O
  O12      1.0000 0.62220  0.20220  0.09565  Biso   1.000  O
  O13      1.0000 0.14100  0.35330  0.70335  Biso   1.000  O
  O14      1.0000 0.35900  0.85330  0.79665  Biso   1.000  O
  O15      1.0000 0.85900  0.64670  0.29665  Biso   1.000  O
  O16      1.0000 0.64100  0.14670  0.20335  Biso   1.000  O
  O17      1.0000 0.00043  0.37529  0.83989  Biso   1.000  O
  O18      1.0000 0.49957  0.87529  0.66011  Biso   1.000  O
  O19      1.0000 0.99957  0.62471  0.16011  Biso   1.000  O
  O20      1.0000 0.50043  0.12471  0.33989  Biso   1.000  O
  O21      1.0000 0.89208  0.23640  0.83991  Biso   1.000  O
  O22      1.0000 0.60792  0.73640  0.66009  Biso   1.000  O
  O23      1.0000 0.10792  0.76360  0.16009  Biso   1.000  O
  O24      1.0000 0.39208  0.26360  0.33991  Biso   1.000  O
  O25      1.0000 0.93330  0.04892  0.76328  Biso   1.000  O
  O26      1.0000 0.56670  0.54892  0.73672  Biso   1.000  O
  O27      1.0000 0.06670  0.95108  0.23672  Biso   1.000  O
  O28      1.0000 0.43330  0.45108  0.26328  Biso   1.000  O
  O29      1.0000 0.96450  0.98950  0.86935  Biso   1.000  O
  O30      1.0000 0.53550  0.48950  0.63065  Biso   1.000  O
  O31      1.0000 0.03550  0.01050  0.13065  Biso   1.000  O
  O32      1.0000 0.46450  0.51050  0.36935  Biso   1.000  O
  O33      1.0000 0.84245  0.95241  0.99666  Biso   1.000  O
  O34      1.0000 0.65755  0.45241  0.50334  Biso   1.000  O
  O35      1.0000 0.15755  0.04759  0.00334  Biso   1.000  O
  O36      1.0000 0.34245  0.54759  0.49666  Biso   1.000  O
  O37      1.0000 0.73761  0.81156  0.99016  Biso   1.000  O
  O38      1.0000 0.76239  0.31156  0.50984  Biso   1.000  O
  O39      1.0000 0.26239  0.18844  0.00984  Biso   1.000  O
  O40      1.0000 0.23761  0.68844  0.49016  Biso   1.000  O
  O41      1.0000 0.80950  0.57626  0.02898  Biso   1.000  O
  O42      1.0000 0.69050  0.07626  0.47102  Biso   1.000  O
  O43      1.0000 0.19050  0.42374  0.97102  Biso   1.000  O
  O44      1.0000 0.30950  0.92374  0.52898  Biso   1.000  O
  O45      1.0000 0.79910  0.60841  0.91629  Biso   1.000  O
  O46      1.0000 0.70090  0.10841  0.58371  Biso   1.000  O
  O47      1.0000 0.20090  0.39159  0.08371  Biso   1.000  O
  O48      1.0000 0.29910  0.89159  0.41629  Biso   1.000  O
  O49      1.0000 0.77300  0.18070  0.71409  Biso   1.000  O
  O50      1.0000 0.72700  0.68070  0.78591  Biso   1.000  O
  O51      1.0000 0.22700  0.81930  0.28591  Biso   1.000  O
  O52      1.0000 0.27300  0.31930  0.21409  Biso   1.000  O
  H1       1.0000 0.75020  0.23790  0.69870  Biso   1.000  H
  H2       1.0000 0.74980  0.73790  0.80130  Biso   1.000  H
  H3       1.0000 0.24980  0.76210  0.30130  Biso   1.000  H
  H4       1.0000 0.25020  0.26210  0.19870  Biso   1.000  H
  H5       1.0000 0.81110  0.18020  0.75320  Biso   1.000  H
  H6       1.0000 0.68890  0.68020  0.74680  Biso   1.000  H
  H7       1.0000 0.18890  0.81980  0.24680  Biso   1.000  H
  H8       1.0000 0.31110  0.31980  0.25320  Biso   1.000  H
  O53      1.0000 0.90700  0.21920  0.60247  Biso   1.000  O
  O54      1.0000 0.59300  0.71920  0.89753  Biso   1.000  O
  O55      1.0000 0.09300  0.78080  0.39753  Biso   1.000  O
  O56      1.0000 0.40700  0.28080  0.10247  Biso   1.000  O
  H9       1.0000 0.86210  0.26540  0.58610  Biso   1.000  H
  H10      1.0000 0.63790  0.76540  0.91390  Biso   1.000  H
  H11      1.0000 0.13790  0.73460  0.41390  Biso   1.000  H
  H12      1.0000 0.36210  0.23460  0.08610  Biso   1.000  H
  H13      1.0000 0.95190  0.19600  0.57560  Biso   1.000  H
  H14      1.0000 0.54810  0.69600  0.92440  Biso   1.000  H
  H15      1.0000 0.04810  0.80400  0.42440  Biso   1.000  H
  H16      1.0000 0.45190  0.30400  0.07560  Biso   1.000  H
  O57      1.0000 0.73470  0.94980  0.68380  Biso   1.000  O
  O58      1.0000 0.76530  0.44980  0.81620  Biso   1.000  O
  O59      1.0000 0.26530  0.05020  0.31620  Biso   1.000  O
  O60      1.0000 0.23470  0.55020  0.18380  Biso   1.000  O
  H17      1.0000 0.68470  0.92760  0.65290  Biso   1.000  H
  H18      1.0000 0.81530  0.42760  0.84710  Biso   1.000  H
  H19      1.0000 0.31530  0.07240  0.34710  Biso   1.000  H
  H20      1.0000 0.18470  0.57240  0.15290  Biso   1.000  H
  H21      1.0000 0.70790  0.96340  0.72110  Biso   1.000  H
  H22      1.0000 0.79210  0.46340  0.77890  Biso   1.000  H
  H23      1.0000 0.29210  0.03660  0.27890  Biso   1.000  H
  H24      1.0000 0.20790  0.53660  0.22110  Biso   1.000  H
  O61      1.0000 0.88810  0.00170  0.53939  Biso   1.000  O
  O62      1.0000 0.61190  0.50170  0.96061  Biso   1.000  O
  O63      1.0000 0.11190  0.99830  0.46061  Biso   1.000  O
  O64      1.0000 0.38810  0.49830  0.03939  Biso   1.000  O
  H25      1.0000 0.83570  0.01740  0.50830  Biso   1.000  H
  H26      1.0000 0.66430  0.51740  0.99170  Biso   1.000  H
  H27      1.0000 0.16430  0.98260  0.49170  Biso   1.000  H
  H28      1.0000 0.33570  0.48260  0.00830  Biso   1.000  H
  H29      1.0000 0.92150  0.94550  0.53560  Biso   1.000  H
  H30      1.0000 0.57850  0.44550  0.96440  Biso   1.000  H
  H31      1.0000 0.07850  0.05450  0.46440  Biso   1.000  H
  H32      1.0000 0.42150  0.55450  0.03560  Biso   1.000  H
  O65      1.0000 0.95800  0.89860  0.66477  Biso   1.000  O
  O66      1.0000 0.54200  0.39860  0.83523  Biso   1.000  O
  O67      1.0000 0.04200  0.10140  0.33523  Biso   1.000  O
  O68      1.0000 0.45800  0.60140  0.16477  Biso   1.000  O
  H33      1.0000 0.02870  0.91290  0.66910  Biso   1.000  H
  H34      1.0000 0.47130  0.41290  0.83090  Biso   1.000  H
  H35      1.0000 0.97130  0.08710  0.33090  Biso   1.000  H
  H36      1.0000 0.52870  0.58710  0.16910  Biso   1.000  H
  H37      1.0000 0.93720  0.86150  0.63010  Biso   1.000  H
  H38      1.0000 0.56280  0.36150  0.86990  Biso   1.000  H
  H39      1.0000 0.06280  0.13850  0.36990  Biso   1.000  H
  H40      1.0000 0.43720  0.63850  0.13010  Biso   1.000  H
  N1       1.0000 0.36710  0.06480  0.67298  Biso   1.000  N
  N2       1.0000 0.13290  0.56480  0.82702  Biso   1.000  N
  N3       1.0000 0.63290  0.93520  0.32702  Biso   1.000  N
  N4       1.0000 0.86710  0.43520  0.17298  Biso   1.000  N
  N5       1.0000 0.19050  0.27090  0.84940  Biso   1.000  N
  N6       1.0000 0.30950  0.77090  0.65060  Biso   1.000  N
  N7       1.0000 0.80950  0.72910  0.15060  Biso   1.000  N
  N8       1.0000 0.69050  0.22910  0.34940  Biso   1.000  N
  N9       1.0000 0.03430  0.85350  0.99721  Biso   1.000  N
  N10      1.0000 0.46570  0.35350  0.50279  Biso   1.000  N
  N11      1.0000 0.96570  0.14650  0.00279  Biso   1.000  N
  N12      1.0000 0.53430  0.64650  0.49721  Biso   1.000  N
  C1       1.0000 0.16440  0.05690  0.65572  Biso   1.000  C
  C2       1.0000 0.33560  0.55690  0.84428  Biso   1.000  C
  C3       1.0000 0.83560  0.94310  0.34428  Biso   1.000  C
  C4       1.0000 0.66440  0.44310  0.15572  Biso   1.000  C
  C5       1.0000 0.27040  0.12070  0.66573  Biso   1.000  C
  C6       1.0000 0.22960  0.62070  0.83427  Biso   1.000  C
  C7       1.0000 0.72960  0.87930  0.33427  Biso   1.000  C
  C8       1.0000 0.77040  0.37930  0.16573  Biso   1.000  C
  C9       1.0000 0.27250  0.22630  0.67100  Biso   1.000  C
  C10      1.0000 0.22750  0.72630  0.82900  Biso   1.000  C
  C11      1.0000 0.72750  0.77370  0.32900  Biso   1.000  C
  C12      1.0000 0.77250  0.27370  0.17100  Biso   1.000  C
  C13      1.0000 0.16820  0.29780  0.65690  Biso   1.000  C
  C14      1.0000 0.33180  0.79780  0.84310  Biso   1.000  C
  C15      1.0000 0.83180  0.70220  0.34310  Biso   1.000  C
  C16      1.0000 0.66820  0.20220  0.15690  Biso   1.000  C
  C17      1.0000 0.38010  0.27150  0.68710  Biso   1.000  C
  C18      1.0000 0.11990  0.77150  0.81290  Biso   1.000  C
  C19      1.0000 0.61990  0.72850  0.31290  Biso   1.000  C
  C20      1.0000 0.88010  0.22850  0.18710  Biso   1.000  C
  H41      1.0000 0.38520  0.34200  0.69190  Biso   1.000  H
  H42      1.0000 0.11480  0.84200  0.80810  Biso   1.000  H
  H43      1.0000 0.61480  0.65800  0.30810  Biso   1.000  H
  H44      1.0000 0.88520  0.15800  0.19190  Biso   1.000  H
  C21      1.0000 0.47820  0.21420  0.69580  Biso   1.000  C
  C22      1.0000 0.02180  0.71420  0.80420  Biso   1.000  C
  C23      1.0000 0.52180  0.78580  0.30420  Biso   1.000  C
  C24      1.0000 0.97820  0.28580  0.19580  Biso   1.000  C
  H45      1.0000 0.54910  0.24540  0.70740  Biso   1.000  H
  H46      1.0000 0.95090  0.74540  0.79260  Biso   1.000  H
  H47      1.0000 0.45090  0.75460  0.29260  Biso   1.000  H
  H48      1.0000 0.04910  0.25460  0.20740  Biso   1.000  H
  C25      1.0000 0.47100  0.10960  0.68720  Biso   1.000  C
  C26      1.0000 0.02900  0.60960  0.81280  Biso   1.000  C
  C27      1.0000 0.52900  0.89040  0.31280  Biso   1.000  C
  C28      1.0000 0.97100  0.39040  0.18720  Biso   1.000  C
  H49      1.0000 0.53740  0.07020  0.69130  Biso   1.000  H
  H50      1.0000 0.96260  0.57020  0.80870  Biso   1.000  H
  H51      1.0000 0.46260  0.92980  0.30870  Biso   1.000  H
  H52      1.0000 0.03740  0.42980  0.19130  Biso   1.000  H
  C29      1.0000 0.98460  0.27810  0.83946  Biso   1.000  C
  C30      1.0000 0.51540  0.77810  0.66054  Biso   1.000  C
  C31      1.0000 0.01540  0.72190  0.16054  Biso   1.000  C
  C32      1.0000 0.48460  0.22190  0.33946  Biso   1.000  C
  C33      1.0000 0.09290  0.21580  0.84004  Biso   1.000  C
  C34      1.0000 0.40710  0.71580  0.65996  Biso   1.000  C
  C35      1.0000 0.90710  0.78420  0.15996  Biso   1.000  C
  C36      1.0000 0.59290  0.28420  0.34004  Biso   1.000  C
  C37      1.0000 0.09520  0.10950  0.83426  Biso   1.000  C
  C38      1.0000 0.40480  0.60950  0.66574  Biso   1.000  C
  C39      1.0000 0.90480  0.89050  0.16574  Biso   1.000  C
  C40      1.0000 0.59520  0.39050  0.33426  Biso   1.000  C
  C41      1.0000 0.98830  0.04390  0.82154  Biso   1.000  C
  C42      1.0000 0.51170  0.54390  0.67846  Biso   1.000  C
  C43      1.0000 0.01170  0.95610  0.17846  Biso   1.000  C
  C44      1.0000 0.48830  0.45610  0.32154  Biso   1.000  C
  C45      1.0000 0.20220  0.06290  0.84020  Biso   1.000  C
  C46      1.0000 0.29780  0.56290  0.65980  Biso   1.000  C
  C47      1.0000 0.79780  0.93710  0.15980  Biso   1.000  C
  C48      1.0000 0.70220  0.43710  0.34020  Biso   1.000  C
  H53      1.0000 0.20720  0.99220  0.83800  Biso   1.000  H
  H54      1.0000 0.29280  0.49220  0.66200  Biso   1.000  H
  H55      1.0000 0.79280  0.00780  0.16200  Biso   1.000  H
  H56      1.0000 0.70720  0.50780  0.33800  Biso   1.000  H
  C49      1.0000 0.30120  0.12050  0.84930  Biso   1.000  C
  C50      1.0000 0.19880  0.62050  0.65070  Biso   1.000  C
  C51      1.0000 0.69880  0.87950  0.15070  Biso   1.000  C
  C52      1.0000 0.80120  0.37950  0.34930  Biso   1.000  C
  H57      1.0000 0.37290  0.08950  0.85150  Biso   1.000  H
  H58      1.0000 0.12710  0.58950  0.64850  Biso   1.000  H
  H59      1.0000 0.62710  0.91050  0.14850  Biso   1.000  H
  H60      1.0000 0.87290  0.41050  0.35150  Biso   1.000  H
  C53      1.0000 0.29190  0.22350  0.85500  Biso   1.000  C
  C54      1.0000 0.20810  0.72350  0.64500  Biso   1.000  C
  C55      1.0000 0.70810  0.77650  0.14500  Biso   1.000  C
  C56      1.0000 0.79190  0.27650  0.35500  Biso   1.000  C
  H61      1.0000 0.35860  0.26230  0.86300  Biso   1.000  H
  H62      1.0000 0.14140  0.76230  0.63700  Biso   1.000  H
  H63      1.0000 0.64140  0.73770  0.13700  Biso   1.000  H
  H64      1.0000 0.85860  0.23770  0.36300  Biso   1.000  H
  C57      1.0000 0.83000  0.85590  0.99277  Biso   1.000  C
  C58      1.0000 0.67000  0.35590  0.50723  Biso   1.000  C
  C59      1.0000 0.17000  0.14410  0.00723  Biso   1.000  C
  C60      1.0000 0.33000  0.64410  0.49277  Biso   1.000  C
  C61      1.0000 0.94060  0.79550  0.99192  Biso   1.000  C
  C62      1.0000 0.55940  0.29550  0.50808  Biso   1.000  C
  C63      1.0000 0.05940  0.20450  0.00808  Biso   1.000  C
  C64      1.0000 0.44060  0.70450  0.49192  Biso   1.000  C
  C65      1.0000 0.94460  0.69050  0.98850  Biso   1.000  C
  C66      1.0000 0.55540  0.19050  0.51150  Biso   1.000  C
  C67      1.0000 0.05540  0.30950  0.01150  Biso   1.000  C
  C68      1.0000 0.44460  0.80950  0.48850  Biso   1.000  C
  C69      1.0000 0.84070  0.62090  0.97759  Biso   1.000  C
  C70      1.0000 0.65930  0.12090  0.52241  Biso   1.000  C
  C71      1.0000 0.15930  0.37910  0.02241  Biso   1.000  C
  C72      1.0000 0.34070  0.87910  0.47759  Biso   1.000  C
  C73      1.0000 0.05270  0.64570  0.98985  Biso   1.000  C
  C74      1.0000 0.44730  0.14570  0.51015  Biso   1.000  C
  C75      1.0000 0.94730  0.35430  0.01015  Biso   1.000  C
  C76      1.0000 0.55270  0.85430  0.48985  Biso   1.000  C
  H65      1.0000 0.05940  0.57520  0.98680  Biso   1.000  H
  H66      1.0000 0.44060  0.07520  0.51320  Biso   1.000  H
  H67      1.0000 0.94060  0.42480  0.01320  Biso   1.000  H
  H68      1.0000 0.55940  0.92480  0.48680  Biso   1.000  H
  C77      1.0000 0.14920  0.70560  0.99570  Biso   1.000  C
  C78      1.0000 0.35080  0.20560  0.50430  Biso   1.000  C
  C79      1.0000 0.85080  0.29440  0.00430  Biso   1.000  C
  C80      1.0000 0.64920  0.79440  0.49570  Biso   1.000  C
  H69      1.0000 0.22180  0.67630  0.99770  Biso   1.000  H
  H70      1.0000 0.27820  0.17630  0.50230  Biso   1.000  H
  H71      1.0000 0.77820  0.32370  0.00230  Biso   1.000  H
  H72      1.0000 0.72180  0.82370  0.49770  Biso   1.000  H
  C81      1.0000 0.13710  0.80880  0.99859  Biso   1.000  C
  C82      1.0000 0.36290  0.30880  0.50141  Biso   1.000  C
  C83      1.0000 0.86290  0.19120  0.00141  Biso   1.000  C
  C84      1.0000 0.63710  0.69120  0.49859  Biso   1.000  C
  H73      1.0000 0.20240  0.84960  0.00160  Biso   1.000  H
  H74      1.0000 0.29760  0.34960  0.49840  Biso   1.000  H
  H75      1.0000 0.79760  0.15040  0.99840  Biso   1.000  H
  H76      1.0000 0.70240  0.65040  0.50160  Biso   1.000  H
  O69      1.0000 0.89550  0.53270  0.51600  Biso   1.000  O
  O70      1.0000 0.60450  0.03270  0.98400  Biso   1.000  O
  O71      1.0000 0.10450  0.46730  0.48400  Biso   1.000  O
  O72      1.0000 0.39550  0.96730  0.01600  Biso   1.000  O
  H77      1.0000 0.91800  0.59280  0.50780  Biso   1.000  H
  H78      1.0000 0.58200  0.09280  0.99220  Biso   1.000  H
  H79      1.0000 0.08200  0.40720  0.49220  Biso   1.000  H
  H80      1.0000 0.41800  0.90720  0.00780  Biso   1.000  H
  H81      1.0000 0.88750  0.52390  0.55830  Biso   1.000  H
  H82      1.0000 0.61250  0.02390  0.94170  Biso   1.000  H
  H83      1.0000 0.11250  0.47610  0.44170  Biso   1.000  H
  H84      1.0000 0.38750  0.97610  0.05830  Biso   1.000  H
  O73      1.0000 0.76540  0.88390  0.81837  Biso   1.000  O
  O74      1.0000 0.73460  0.38390  0.68163  Biso   1.000  O
  O75      1.0000 0.23460  0.11610  0.18163  Biso   1.000  O
  O76      1.0000 0.26540  0.61610  0.31837  Biso   1.000  O
  H85      1.0000 0.81690  0.92410  0.80910  Biso   1.000  H
  H86      1.0000 0.68310  0.42410  0.69090  Biso   1.000  H
  H87      1.0000 0.18310  0.07590  0.19090  Biso   1.000  H
  H88      1.0000 0.31690  0.57590  0.30910  Biso   1.000  H
  H89      1.0000 0.71990  0.90370  0.84580  Biso   1.000  H
  H90      1.0000 0.78010  0.40370  0.65420  Biso   1.000  H
  H91      1.0000 0.28010  0.09630  0.15420  Biso   1.000  H
  H92      1.0000 0.21990  0.59630  0.34580  Biso   1.000  H
  O77      1.0000 0.55790  0.97160  0.84373  Biso   1.000  O
  O78      1.0000 0.94210  0.47160  0.65627  Biso   1.000  O
  O79      1.0000 0.44210  0.02840  0.15627  Biso   1.000  O
  O80      1.0000 0.05790  0.52840  0.34373  Biso   1.000  O
  H93      1.0000 0.59530  0.98010  0.80970  Biso   1.000  H
  H94      1.0000 0.90470  0.48010  0.69030  Biso   1.000  H
  H95      1.0000 0.40470  0.01990  0.19030  Biso   1.000  H
  H96      1.0000 0.09530  0.51990  0.30970  Biso   1.000  H
  H97      1.0000 0.50710  0.92520  0.83690  Biso   1.000  H
  H98      1.0000 0.99290  0.42520  0.66310  Biso   1.000  H
  H99      1.0000 0.49290  0.07480  0.16310  Biso   1.000  H
  H100     1.0000 0.00710  0.57480  0.33690  Biso   1.000  H
  O81      1.0000 0.95920  0.80210  0.52470  Biso   1.000  O
  O82      1.0000 0.54080  0.30210  0.97530  Biso   1.000  O
  O83      1.0000 0.04080  0.19790  0.47530  Biso   1.000  O
  O84      1.0000 0.45920  0.69790  0.02470  Biso   1.000  O
  H101     1.0000 0.92030  0.77110  0.49280  Biso   1.000  H
  H102     1.0000 0.57970  0.27110  0.00720  Biso   1.000  H
  H103     1.0000 0.07970  0.22890  0.50720  Biso   1.000  H
  H104     1.0000 0.42030  0.72890  0.99280  Biso   1.000  H
  H105     1.0000 0.01540  0.83650  0.51530  Biso   1.000  H
  H106     1.0000 0.48460  0.33650  0.98470  Biso   1.000  H
  H107     1.0000 0.98460  0.16350  0.48470  Biso   1.000  H
  H108     1.0000 0.51540  0.66350  0.01530  Biso   1.000  H
  O85      1.0000 0.85070  0.71030  0.63900  Biso   1.000  O
  O86      1.0000 0.64930  0.21030  0.86100  Biso   1.000  O
  O87      1.0000 0.14930  0.28970  0.36100  Biso   1.000  O
  O88      1.0000 0.35070  0.78970  0.13900  Biso   1.000  O
  H109     1.0000 0.89660  0.66530  0.65650  Biso   1.000  H
  H110     1.0000 0.60340  0.16530  0.84350  Biso   1.000  H
  H111     1.0000 0.10340  0.33470  0.34350  Biso   1.000  H
  H112     1.0000 0.39660  0.83470  0.15650  Biso   1.000  H
  H113     1.0000 0.86050  0.72750  0.59830  Biso   1.000  H
  H114     1.0000 0.63950  0.22750  0.90170  Biso   1.000  H
  H115     1.0000 0.13950  0.27250  0.40170  Biso   1.000  H
  H116     1.0000 0.36050  0.77250  0.09830  Biso   1.000  H
