data_image0
_cell_length_a       11.669
_cell_length_b       13.086
_cell_length_c       19.396
_cell_angle_alpha    90
_cell_angle_beta     96.208
_cell_angle_gamma    90

_symmetry_space_group_name_H-M    "P 1"
_symmetry_int_tables_number       1

loop_
  _symmetry_equiv_pos_as_xyz
  'x, y, z'

loop_
  _atom_site_label
  _atom_site_occupancy
  _atom_site_fract_x
  _atom_site_fract_y
  _atom_site_fract_z
  _atom_site_thermal_displace_type
  _atom_site_B_iso_or_equiv
  _atom_site_type_symbol
  Lu1      1.0000 0.87036  0.06269  0.64990  Biso   1.000  Lu
  Lu2      1.0000 0.62964  0.56268  0.85010  Biso   1.000  Lu
  Lu3      1.0000 0.12964  0.93732  0.35010  Biso   1.000  Lu
  Lu4      1.0000 0.37036  0.43732  0.14989  Biso   1.000  Lu
  Cu1      1.0000 0.16044  0.41751  0.84398  Biso   1.000  Cu
  Cu2      1.0000 0.33956  0.91751  0.65602  Biso   1.000  Cu
  Cu3      1.0000 0.83956  0.58249  0.15602  Biso   1.000  Cu
  Cu4      1.0000 0.66044  0.08249  0.34398  Biso   1.000  Cu
  Cu5      1.0000 0.00000  0.00000  0.00000  Biso   1.000  Cu
  Cu6      1.0000 0.50000  0.50000  0.50000  Biso   1.000  Cu
  O1       1.0000 0.17940  0.96110  0.65332  Biso   1.000  O
  O2       1.0000 0.32060  0.46110  0.84668  Biso   1.000  O
  O3       1.0000 0.82060  0.03890  0.34668  Biso   1.000  O
  O4       1.0000 0.67940  0.53890  0.15332  Biso   1.000  O
  O5       1.0000 0.06850  0.09630  0.65344  Biso   1.000  O
  O6       1.0000 0.43150  0.59630  0.84656  Biso   1.000  O
  O7       1.0000 0.93150  0.90370  0.34656  Biso   1.000  O
  O8       1.0000 0.56850  0.40370  0.15344  Biso   1.000  O
  O9       1.0000 0.12200  0.29570  0.59460  Biso   1.000  O
  O10      1.0000 0.37800  0.79570  0.90540  Biso   1.000  O
  O11      1.0000 0.87800  0.70430  0.40540  Biso   1.000  O
  O12      1.0000 0.62200  0.20430  0.09460  Biso   1.000  O
  O13      1.0000 0.14010  0.35280  0.70290  Biso   1.000  O
  O14      1.0000 0.35990  0.85280  0.79710  Biso   1.000  O
  O15      1.0000 0.85990  0.64720  0.29710  Biso   1.000  O
  O16      1.0000 0.64010  0.14720  0.20290  Biso   1.000  O
  O17      1.0000 0.00000  0.37590  0.83983  Biso   1.000  O
  O18      1.0000 0.50000  0.87590  0.66017  Biso   1.000  O
  O19      1.0000 0.00000  0.62410  0.16017  Biso   1.000  O
  O20      1.0000 0.50000  0.12410  0.33983  Biso   1.000  O
  O21      1.0000 0.89090  0.23680  0.83881  Biso   1.000  O
  O22      1.0000 0.60910  0.73680  0.66119  Biso   1.000  O
  O23      1.0000 0.10910  0.76320  0.16119  Biso   1.000  O
  O24      1.0000 0.39090  0.26320  0.33881  Biso   1.000  O
  O25      1.0000 0.93320  0.04950  0.76195  Biso   1.000  O
  O26      1.0000 0.56680  0.54950  0.73805  Biso   1.000  O
  O27      1.0000 0.06680  0.95050  0.23805  Biso   1.000  O
  O28      1.0000 0.43320  0.45050  0.26195  Biso   1.000  O
  O29      1.0000 0.96360  0.98800  0.86831  Biso   1.000  O
  O30      1.0000 0.53640  0.48800  0.63169  Biso   1.000  O
  O31      1.0000 0.03640  0.01200  0.13169  Biso   1.000  O
  O32      1.0000 0.46360  0.51200  0.36831  Biso   1.000  O
  O33      1.0000 0.84250  0.95240  0.99678  Biso   1.000  O
  O34      1.0000 0.65750  0.45240  0.50322  Biso   1.000  O
  O35      1.0000 0.15750  0.04760  0.00322  Biso   1.000  O
  O36      1.0000 0.34250  0.54760  0.49678  Biso   1.000  O
  O37      1.0000 0.73690  0.81100  0.98952  Biso   1.000  O
  O38      1.0000 0.76310  0.31100  0.51048  Biso   1.000  O
  O39      1.0000 0.26310  0.18900  0.01048  Biso   1.000  O
  O40      1.0000 0.23690  0.68900  0.48952  Biso   1.000  O
  O41      1.0000 0.80800  0.57580  0.02961  Biso   1.000  O
  O42      1.0000 0.69200  0.07580  0.47039  Biso   1.000  O
  O43      1.0000 0.19200  0.42420  0.97039  Biso   1.000  O
  O44      1.0000 0.30800  0.92420  0.52961  Biso   1.000  O
  O45      1.0000 0.79690  0.60810  0.91570  Biso   1.000  O
  O46      1.0000 0.70310  0.10810  0.58430  Biso   1.000  O
  O47      1.0000 0.20310  0.39190  0.08430  Biso   1.000  O
  O48      1.0000 0.29690  0.89190  0.41570  Biso   1.000  O
  O49      1.0000 0.77480  0.18020  0.71330  Biso   1.000  O
  O50      1.0000 0.72520  0.68020  0.78670  Biso   1.000  O
  O51      1.0000 0.22520  0.81980  0.28670  Biso   1.000  O
  O52      1.0000 0.27480  0.31980  0.21330  Biso   1.000  O
  H1       1.0000 0.75230  0.23770  0.69810  Biso   1.000  H
  H2       1.0000 0.74770  0.73770  0.80190  Biso   1.000  H
  H3       1.0000 0.24770  0.76230  0.30190  Biso   1.000  H
  H4       1.0000 0.25230  0.26230  0.19810  Biso   1.000  H
  H5       1.0000 0.81460  0.17990  0.75230  Biso   1.000  H
  H6       1.0000 0.68540  0.67990  0.74770  Biso   1.000  H
  H7       1.0000 0.18540  0.82010  0.24770  Biso   1.000  H
  H8       1.0000 0.31460  0.32010  0.25230  Biso   1.000  H
  O53      1.0000 0.90770  0.21610  0.60109  Biso   1.000  O
  O54      1.0000 0.59230  0.71610  0.89891  Biso   1.000  O
  O55      1.0000 0.09230  0.78390  0.39891  Biso   1.000  O
  O56      1.0000 0.40770  0.28390  0.10109  Biso   1.000  O
  H9       1.0000 0.86230  0.26270  0.58540  Biso   1.000  H
  H10      1.0000 0.63770  0.76270  0.91460  Biso   1.000  H
  H11      1.0000 0.13770  0.73730  0.41460  Biso   1.000  H
  H12      1.0000 0.36230  0.23730  0.08540  Biso   1.000  H
  H13      1.0000 0.95040  0.19060  0.57330  Biso   1.000  H
  H14      1.0000 0.54960  0.69060  0.92670  Biso   1.000  H
  H15      1.0000 0.04960  0.80940  0.42670  Biso   1.000  H
  H16      1.0000 0.45040  0.30940  0.07330  Biso   1.000  H
  O57      1.0000 0.73620  0.95090  0.68264  Biso   1.000  O
  O58      1.0000 0.76380  0.45090  0.81736  Biso   1.000  O
  O59      1.0000 0.26380  0.04910  0.31736  Biso   1.000  O
  O60      1.0000 0.23620  0.54910  0.18264  Biso   1.000  O
  H17      1.0000 0.68680  0.92700  0.65190  Biso   1.000  H
  H18      1.0000 0.81320  0.42700  0.84810  Biso   1.000  H
  H19      1.0000 0.31320  0.07300  0.34810  Biso   1.000  H
  H20      1.0000 0.18680  0.57300  0.15190  Biso   1.000  H
  H21      1.0000 0.70970  0.95840  0.72120  Biso   1.000  H
  H22      1.0000 0.79030  0.45840  0.77880  Biso   1.000  H
  H23      1.0000 0.29030  0.04160  0.27880  Biso   1.000  H
  H24      1.0000 0.20970  0.54160  0.22120  Biso   1.000  H
  O61      1.0000 0.88910  0.00270  0.53946  Biso   1.000  O
  O62      1.0000 0.61090  0.50270  0.96054  Biso   1.000  O
  O63      1.0000 0.11090  0.99730  0.46054  Biso   1.000  O
  O64      1.0000 0.38910  0.49730  0.03946  Biso   1.000  O
  H25      1.0000 0.83580  0.01750  0.50830  Biso   1.000  H
  H26      1.0000 0.66420  0.51750  0.99170  Biso   1.000  H
  H27      1.0000 0.16420  0.98250  0.49170  Biso   1.000  H
  H28      1.0000 0.33580  0.48250  0.00830  Biso   1.000  H
  H29      1.0000 0.92090  0.94550  0.53620  Biso   1.000  H
  H30      1.0000 0.57910  0.44550  0.96380  Biso   1.000  H
  H31      1.0000 0.07910  0.05450  0.46380  Biso   1.000  H
  H32      1.0000 0.42090  0.55450  0.03620  Biso   1.000  H
  O65      1.0000 0.95760  0.89970  0.66340  Biso   1.000  O
  O66      1.0000 0.54240  0.39970  0.83660  Biso   1.000  O
  O67      1.0000 0.04240  0.10030  0.33660  Biso   1.000  O
  O68      1.0000 0.45760  0.60030  0.16340  Biso   1.000  O
  H33      1.0000 0.02910  0.91120  0.66990  Biso   1.000  H
  H34      1.0000 0.47090  0.41120  0.83010  Biso   1.000  H
  H35      1.0000 0.97090  0.08880  0.33010  Biso   1.000  H
  H36      1.0000 0.52910  0.58880  0.16990  Biso   1.000  H
  H37      1.0000 0.93780  0.86050  0.62950  Biso   1.000  H
  H38      1.0000 0.56220  0.36050  0.87050  Biso   1.000  H
  H39      1.0000 0.06220  0.13950  0.37050  Biso   1.000  H
  H40      1.0000 0.43780  0.63950  0.12950  Biso   1.000  H
  O69      1.0000 0.89660  0.53260  0.51560  Biso   1.000  O
  O70      1.0000 0.60340  0.03260  0.98440  Biso   1.000  O
  O71      1.0000 0.10340  0.46740  0.48440  Biso   1.000  O
  O72      1.0000 0.39660  0.96740  0.01560  Biso   1.000  O
  H41      1.0000 0.91900  0.59220  0.50630  Biso   1.000  H
  H42      1.0000 0.58100  0.09220  0.99370  Biso   1.000  H
  H43      1.0000 0.08100  0.40780  0.49370  Biso   1.000  H
  H44      1.0000 0.41900  0.90780  0.00630  Biso   1.000  H
  H45      1.0000 0.89000  0.52410  0.55830  Biso   1.000  H
  H46      1.0000 0.61000  0.02410  0.94170  Biso   1.000  H
  H47      1.0000 0.11000  0.47590  0.44170  Biso   1.000  H
  H48      1.0000 0.39000  0.97590  0.05830  Biso   1.000  H
  O73      1.0000 0.76560  0.88330  0.81619  Biso   1.000  O
  O74      1.0000 0.73440  0.38330  0.68381  Biso   1.000  O
  O75      1.0000 0.23440  0.11670  0.18381  Biso   1.000  O
  O76      1.0000 0.26560  0.61670  0.31619  Biso   1.000  O
  H49      1.0000 0.81830  0.92430  0.80920  Biso   1.000  H
  H50      1.0000 0.68170  0.42430  0.69080  Biso   1.000  H
  H51      1.0000 0.18170  0.07570  0.19080  Biso   1.000  H
  H52      1.0000 0.31830  0.57570  0.30920  Biso   1.000  H
  H53      1.0000 0.72000  0.90220  0.84440  Biso   1.000  H
  H54      1.0000 0.78000  0.40220  0.65560  Biso   1.000  H
  H55      1.0000 0.28000  0.09780  0.15560  Biso   1.000  H
  H56      1.0000 0.22000  0.59780  0.34440  Biso   1.000  H
  O77      1.0000 0.55810  0.97210  0.84520  Biso   1.000  O
  O78      1.0000 0.94190  0.47210  0.65480  Biso   1.000  O
  O79      1.0000 0.44190  0.02790  0.15480  Biso   1.000  O
  O80      1.0000 0.05810  0.52790  0.34520  Biso   1.000  O
  H57      1.0000 0.59450  0.98040  0.81030  Biso   1.000  H
  H58      1.0000 0.90550  0.48040  0.68970  Biso   1.000  H
  H59      1.0000 0.40550  0.01960  0.18970  Biso   1.000  H
  H60      1.0000 0.09450  0.51960  0.31030  Biso   1.000  H
  H61      1.0000 0.50710  0.92580  0.83960  Biso   1.000  H
  H62      1.0000 0.99290  0.42580  0.66040  Biso   1.000  H
  H63      1.0000 0.49290  0.07420  0.16040  Biso   1.000  H
  H64      1.0000 0.00710  0.57420  0.33960  Biso   1.000  H
  O81      1.0000 0.95800  0.80160  0.52580  Biso   1.000  O
  O82      1.0000 0.54200  0.30160  0.97420  Biso   1.000  O
  O83      1.0000 0.04200  0.19840  0.47420  Biso   1.000  O
  O84      1.0000 0.45800  0.69840  0.02580  Biso   1.000  O
  H65      1.0000 0.92030  0.77030  0.49310  Biso   1.000  H
  H66      1.0000 0.57970  0.27030  0.00690  Biso   1.000  H
  H67      1.0000 0.07970  0.22970  0.50690  Biso   1.000  H
  H68      1.0000 0.42030  0.72970  0.99310  Biso   1.000  H
  H69      1.0000 0.01510  0.83560  0.51600  Biso   1.000  H
  H70      1.0000 0.48490  0.33560  0.98400  Biso   1.000  H
  H71      1.0000 0.98490  0.16440  0.48400  Biso   1.000  H
  H72      1.0000 0.51510  0.66440  0.01600  Biso   1.000  H
  O85      1.0000 0.85170  0.71160  0.63941  Biso   1.000  O
  O86      1.0000 0.64830  0.21160  0.86059  Biso   1.000  O
  O87      1.0000 0.14830  0.28840  0.36059  Biso   1.000  O
  O88      1.0000 0.35170  0.78840  0.13941  Biso   1.000  O
  H73      1.0000 0.89530  0.66530  0.65750  Biso   1.000  H
  H74      1.0000 0.60470  0.16530  0.84250  Biso   1.000  H
  H75      1.0000 0.10470  0.33470  0.34250  Biso   1.000  H
  H76      1.0000 0.39530  0.83470  0.15750  Biso   1.000  H
  H77      1.0000 0.86280  0.72850  0.59860  Biso   1.000  H
  H78      1.0000 0.63720  0.22850  0.90140  Biso   1.000  H
  H79      1.0000 0.13720  0.27150  0.40140  Biso   1.000  H
  H80      1.0000 0.36280  0.77150  0.09860  Biso   1.000  H
  N1       1.0000 0.36850  0.06420  0.67410  Biso   1.000  N
  N2       1.0000 0.13150  0.56420  0.82590  Biso   1.000  N
  N3       1.0000 0.63150  0.93580  0.32590  Biso   1.000  N
  N4       1.0000 0.86850  0.43580  0.17410  Biso   1.000  N
  N5       1.0000 0.19050  0.27030  0.84890  Biso   1.000  N
  N6       1.0000 0.30950  0.77030  0.65110  Biso   1.000  N
  N7       1.0000 0.80950  0.72970  0.15110  Biso   1.000  N
  N8       1.0000 0.69050  0.22970  0.34890  Biso   1.000  N
  N9       1.0000 0.03380  0.85320  0.99714  Biso   1.000  N
  N10      1.0000 0.46620  0.35320  0.50286  Biso   1.000  N
  N11      1.0000 0.96620  0.14680  0.00286  Biso   1.000  N
  N12      1.0000 0.53380  0.64680  0.49714  Biso   1.000  N
  C1       1.0000 0.16350  0.05550  0.65680  Biso   1.000  C
  C2       1.0000 0.33650  0.55550  0.84320  Biso   1.000  C
  C3       1.0000 0.83650  0.94450  0.34320  Biso   1.000  C
  C4       1.0000 0.66350  0.44450  0.15680  Biso   1.000  C
  C5       1.0000 0.27070  0.12270  0.66580  Biso   1.000  C
  C6       1.0000 0.22930  0.62270  0.83420  Biso   1.000  C
  C7       1.0000 0.72930  0.87730  0.33420  Biso   1.000  C
  C8       1.0000 0.77070  0.37730  0.16580  Biso   1.000  C
  C9       1.0000 0.27130  0.22710  0.67130  Biso   1.000  C
  C10      1.0000 0.22870  0.72710  0.82870  Biso   1.000  C
  C11      1.0000 0.72870  0.77290  0.32870  Biso   1.000  C
  C12      1.0000 0.77130  0.27290  0.17130  Biso   1.000  C
  C13      1.0000 0.16670  0.29870  0.65690  Biso   1.000  C
  C14      1.0000 0.33330  0.79870  0.84310  Biso   1.000  C
  C15      1.0000 0.83330  0.70130  0.34310  Biso   1.000  C
  C16      1.0000 0.66670  0.20130  0.15690  Biso   1.000  C
  C17      1.0000 0.38060  0.27240  0.68770  Biso   1.000  C
  C18      1.0000 0.11940  0.77240  0.81230  Biso   1.000  C
  C19      1.0000 0.61940  0.72760  0.31230  Biso   1.000  C
  C20      1.0000 0.88060  0.22760  0.18770  Biso   1.000  C
  H81      1.0000 0.38670  0.34290  0.69300  Biso   1.000  H
  H82      1.0000 0.11330  0.84290  0.80700  Biso   1.000  H
  H83      1.0000 0.61330  0.65710  0.30700  Biso   1.000  H
  H84      1.0000 0.88670  0.15710  0.19300  Biso   1.000  H
  C21      1.0000 0.47790  0.21280  0.69580  Biso   1.000  C
  C22      1.0000 0.02210  0.71280  0.80420  Biso   1.000  C
  C23      1.0000 0.52210  0.78720  0.30420  Biso   1.000  C
  C24      1.0000 0.97790  0.28720  0.19580  Biso   1.000  C
  H85      1.0000 0.54950  0.24300  0.70740  Biso   1.000  H
  H86      1.0000 0.95050  0.74300  0.79260  Biso   1.000  H
  H87      1.0000 0.45050  0.75700  0.29260  Biso   1.000  H
  H88      1.0000 0.04950  0.25700  0.20740  Biso   1.000  H
  C25      1.0000 0.47010  0.10980  0.68700  Biso   1.000  C
  C26      1.0000 0.02990  0.60980  0.81300  Biso   1.000  C
  C27      1.0000 0.52990  0.89020  0.31300  Biso   1.000  C
  C28      1.0000 0.97010  0.39020  0.18700  Biso   1.000  C
  H89      1.0000 0.53700  0.07070  0.69010  Biso   1.000  H
  H90      1.0000 0.96300  0.57070  0.80990  Biso   1.000  H
  H91      1.0000 0.46300  0.92930  0.30990  Biso   1.000  H
  H92      1.0000 0.03700  0.42930  0.19010  Biso   1.000  H
  C29      1.0000 0.98420  0.27900  0.83880  Biso   1.000  C
  C30      1.0000 0.51580  0.77900  0.66120  Biso   1.000  C
  C31      1.0000 0.01580  0.72100  0.16120  Biso   1.000  C
  C32      1.0000 0.48420  0.22100  0.33880  Biso   1.000  C
  C33      1.0000 0.09340  0.21470  0.84010  Biso   1.000  C
  C34      1.0000 0.40660  0.71470  0.65990  Biso   1.000  C
  C35      1.0000 0.90660  0.78530  0.15990  Biso   1.000  C
  C36      1.0000 0.59340  0.28530  0.34010  Biso   1.000  C
  C37      1.0000 0.09520  0.11170  0.83360  Biso   1.000  C
  C38      1.0000 0.40480  0.61170  0.66640  Biso   1.000  C
  C39      1.0000 0.90480  0.88830  0.16640  Biso   1.000  C
  C40      1.0000 0.59520  0.38830  0.33360  Biso   1.000  C
  C41      1.0000 0.98810  0.04430  0.82000  Biso   1.000  C
  C42      1.0000 0.51190  0.54430  0.68000  Biso   1.000  C
  C43      1.0000 0.01190  0.95570  0.18000  Biso   1.000  C
  C44      1.0000 0.48810  0.45570  0.32000  Biso   1.000  C
  C45      1.0000 0.20150  0.06360  0.83950  Biso   1.000  C
  C46      1.0000 0.29850  0.56360  0.66050  Biso   1.000  C
  C47      1.0000 0.79850  0.93640  0.16050  Biso   1.000  C
  C48      1.0000 0.70150  0.43640  0.33950  Biso   1.000  C
  H93      1.0000 0.20500  0.99270  0.83670  Biso   1.000  H
  H94      1.0000 0.29500  0.49270  0.66330  Biso   1.000  H
  H95      1.0000 0.79500  0.00730  0.16330  Biso   1.000  H
  H96      1.0000 0.70500  0.50730  0.33670  Biso   1.000  H
  C49      1.0000 0.30220  0.11920  0.84950  Biso   1.000  C
  C50      1.0000 0.19780  0.61920  0.65050  Biso   1.000  C
  C51      1.0000 0.69780  0.88080  0.15050  Biso   1.000  C
  C52      1.0000 0.80220  0.38080  0.34950  Biso   1.000  C
  H97      1.0000 0.37390  0.08750  0.85270  Biso   1.000  H
  H98      1.0000 0.12610  0.58750  0.64730  Biso   1.000  H
  H99      1.0000 0.62610  0.91250  0.14730  Biso   1.000  H
  H100     1.0000 0.87390  0.41250  0.35270  Biso   1.000  H
  C53      1.0000 0.29220  0.22280  0.85450  Biso   1.000  C
  C54      1.0000 0.20780  0.72280  0.64550  Biso   1.000  C
  C55      1.0000 0.70780  0.77720  0.14550  Biso   1.000  C
  C56      1.0000 0.79220  0.27720  0.35450  Biso   1.000  C
  H101     1.0000 0.35900  0.26180  0.86210  Biso   1.000  H
  H102     1.0000 0.14100  0.76180  0.63790  Biso   1.000  H
  H103     1.0000 0.64100  0.73820  0.13790  Biso   1.000  H
  H104     1.0000 0.85900  0.23820  0.36210  Biso   1.000  H
  C57      1.0000 0.83100  0.85570  0.99260  Biso   1.000  C
  C58      1.0000 0.66900  0.35570  0.50740  Biso   1.000  C
  C59      1.0000 0.16900  0.14430  0.00740  Biso   1.000  C
  C60      1.0000 0.33100  0.64430  0.49260  Biso   1.000  C
  C61      1.0000 0.93970  0.79500  0.99150  Biso   1.000  C
  C62      1.0000 0.56030  0.29500  0.50850  Biso   1.000  C
  C63      1.0000 0.06030  0.20500  0.00850  Biso   1.000  C
  C64      1.0000 0.43970  0.70500  0.49150  Biso   1.000  C
  C65      1.0000 0.94470  0.68890  0.98820  Biso   1.000  C
  C66      1.0000 0.55530  0.18890  0.51180  Biso   1.000  C
  C67      1.0000 0.05530  0.31110  0.01180  Biso   1.000  C
  C68      1.0000 0.44470  0.81110  0.48820  Biso   1.000  C
  C69      1.0000 0.83970  0.62040  0.97730  Biso   1.000  C
  C70      1.0000 0.66030  0.12040  0.52270  Biso   1.000  C
  C71      1.0000 0.16030  0.37960  0.02270  Biso   1.000  C
  C72      1.0000 0.33970  0.87960  0.47730  Biso   1.000  C
  C73      1.0000 0.05290  0.64460  0.99060  Biso   1.000  C
  C74      1.0000 0.44710  0.14460  0.50940  Biso   1.000  C
  C75      1.0000 0.94710  0.35540  0.00940  Biso   1.000  C
  C76      1.0000 0.55290  0.85540  0.49060  Biso   1.000  C
  H105     1.0000 0.06020  0.57390  0.98850  Biso   1.000  H
  H106     1.0000 0.43980  0.07390  0.51150  Biso   1.000  H
  H107     1.0000 0.93980  0.42610  0.01150  Biso   1.000  H
  H108     1.0000 0.56020  0.92610  0.48850  Biso   1.000  H
  C77      1.0000 0.14880  0.70510  0.99590  Biso   1.000  C
  C78      1.0000 0.35120  0.20510  0.50410  Biso   1.000  C
  C79      1.0000 0.85120  0.29490  0.00410  Biso   1.000  C
  C80      1.0000 0.64880  0.79490  0.49590  Biso   1.000  C
  H109     1.0000 0.22160  0.67580  0.99760  Biso   1.000  H
  H110     1.0000 0.27840  0.17580  0.50240  Biso   1.000  H
  H111     1.0000 0.77840  0.32420  0.00240  Biso   1.000  H
  H112     1.0000 0.72160  0.82420  0.49760  Biso   1.000  H
  C81      1.0000 0.13720  0.80860  0.99870  Biso   1.000  C
  C82      1.0000 0.36280  0.30860  0.50130  Biso   1.000  C
  C83      1.0000 0.86280  0.19140  0.00130  Biso   1.000  C
  C84      1.0000 0.63720  0.69140  0.49870  Biso   1.000  C
  H113     1.0000 0.20300  0.84930  0.00180  Biso   1.000  H
  H114     1.0000 0.29700  0.34930  0.49820  Biso   1.000  H
  H115     1.0000 0.79700  0.15070  0.99820  Biso   1.000  H
  H116     1.0000 0.70300  0.65070  0.50180  Biso   1.000  H
