data_image0
_cell_length_a       11.758
_cell_length_b       13.149
_cell_length_c       21.709
_cell_angle_alpha    90
_cell_angle_beta     116.489
_cell_angle_gamma    90

_symmetry_space_group_name_H-M    "P 1"
_symmetry_int_tables_number       1

loop_
  _symmetry_equiv_pos_as_xyz
  'x, y, z'

loop_
  _atom_site_label
  _atom_site_occupancy
  _atom_site_fract_x
  _atom_site_fract_y
  _atom_site_fract_z
  _atom_site_thermal_displace_type
  _atom_site_B_iso_or_equiv
  _atom_site_type_symbol
  Tb1      1.0000 0.27774  0.06200  0.14786  Biso   1.000  Tb
  Tb2      1.0000 0.72226  0.56200  0.35214  Biso   1.000  Tb
  Tb3      1.0000 0.72226  0.93800  0.85214  Biso   1.000  Tb
  Tb4      1.0000 0.27774  0.43800  0.64786  Biso   1.000  Tb
  Cu1      1.0000 0.18336  0.41557  0.34278  Biso   1.000  Cu
  Cu2      1.0000 0.81664  0.91557  0.15722  Biso   1.000  Cu
  Cu3      1.0000 0.81664  0.58443  0.65722  Biso   1.000  Cu
  Cu4      1.0000 0.18336  0.08443  0.84278  Biso   1.000  Cu
  Cu5      1.0000 0.50000  0.00000  0.50000  Biso   1.000  Cu
  Cu6      1.0000 0.50000  0.50000  0.00000  Biso   1.000  Cu
  O1       1.0000 0.08140  0.09570  0.15138  Biso   1.000  O
  O2       1.0000 0.91860  0.59570  0.34862  Biso   1.000  O
  O3       1.0000 0.91860  0.90430  0.84862  Biso   1.000  O
  O4       1.0000 0.08140  0.40430  0.65138  Biso   1.000  O
  O5       1.0000 0.97200  0.95920  0.15431  Biso   1.000  O
  O6       1.0000 0.02800  0.45920  0.34569  Biso   1.000  O
  O7       1.0000 0.02800  0.04080  0.84569  Biso   1.000  O
  O8       1.0000 0.97200  0.54080  0.65431  Biso   1.000  O
  O9       1.0000 0.96740  0.29610  0.09335  Biso   1.000  O
  O10      1.0000 0.03260  0.79610  0.40665  Biso   1.000  O
  O11      1.0000 0.03260  0.70390  0.90665  Biso   1.000  O
  O12      1.0000 0.96740  0.20390  0.59335  Biso   1.000  O
  O13      1.0000 0.05740  0.34930  0.20215  Biso   1.000  O
  O14      1.0000 0.94260  0.84930  0.29785  Biso   1.000  O
  O15      1.0000 0.94260  0.65070  0.79785  Biso   1.000  O
  O16      1.0000 0.05740  0.15070  0.70215  Biso   1.000  O
  O17      1.0000 0.33800  0.37340  0.33869  Biso   1.000  O
  O18      1.0000 0.66200  0.87340  0.16131  Biso   1.000  O
  O19      1.0000 0.66200  0.62660  0.66131  Biso   1.000  O
  O20      1.0000 0.33800  0.12660  0.83869  Biso   1.000  O
  O21      1.0000 0.44560  0.23460  0.33846  Biso   1.000  O
  O22      1.0000 0.55440  0.73460  0.16154  Biso   1.000  O
  O23      1.0000 0.55440  0.76540  0.66154  Biso   1.000  O
  O24      1.0000 0.44560  0.26540  0.83846  Biso   1.000  O
  O25      1.0000 0.32890  0.04680  0.26171  Biso   1.000  O
  O26      1.0000 0.67110  0.54680  0.23829  Biso   1.000  O
  O27      1.0000 0.67110  0.95320  0.73829  Biso   1.000  O
  O28      1.0000 0.32890  0.45320  0.76171  Biso   1.000  O
  O29      1.0000 0.40520  0.98870  0.36904  Biso   1.000  O
  O30      1.0000 0.59480  0.48870  0.13096  Biso   1.000  O
  O31      1.0000 0.59480  0.01130  0.63096  Biso   1.000  O
  O32      1.0000 0.40520  0.51130  0.86904  Biso   1.000  O
  O33      1.0000 0.65530  0.95200  0.49826  Biso   1.000  O
  O34      1.0000 0.34470  0.45200  0.00174  Biso   1.000  O
  O35      1.0000 0.34470  0.04800  0.50174  Biso   1.000  O
  O36      1.0000 0.65530  0.54800  0.99826  Biso   1.000  O
  O37      1.0000 0.75440  0.81130  0.49329  Biso   1.000  O
  O38      1.0000 0.24560  0.31130  0.00671  Biso   1.000  O
  O39      1.0000 0.24560  0.18870  0.50671  Biso   1.000  O
  O40      1.0000 0.75440  0.68870  0.99329  Biso   1.000  O
  O41      1.0000 0.61990  0.60770  0.41963  Biso   1.000  O
  O42      1.0000 0.38010  0.10770  0.08037  Biso   1.000  O
  O43      1.0000 0.38010  0.39230  0.58037  Biso   1.000  O
  O44      1.0000 0.61990  0.89230  0.91963  Biso   1.000  O
  O45      1.0000 0.72210  0.57700  0.53195  Biso   1.000  O
  O46      1.0000 0.27790  0.07700  0.96805  Biso   1.000  O
  O47      1.0000 0.27790  0.42300  0.46805  Biso   1.000  O
  O48      1.0000 0.72210  0.92300  0.03195  Biso   1.000  O
  O49      1.0000 0.43740  0.18360  0.21257  Biso   1.000  O
  O50      1.0000 0.56260  0.68360  0.28743  Biso   1.000  O
  O51      1.0000 0.56260  0.81640  0.78743  Biso   1.000  O
  O52      1.0000 0.43740  0.31640  0.71257  Biso   1.000  O
  H1       1.0000 0.43080  0.19240  0.24920  Biso   1.000  H
  H2       1.0000 0.56920  0.69240  0.25080  Biso   1.000  H
  H3       1.0000 0.56920  0.80760  0.75080  Biso   1.000  H
  H4       1.0000 0.43080  0.30760  0.74920  Biso   1.000  H
  H5       1.0000 0.43520  0.23600  0.19010  Biso   1.000  H
  H6       1.0000 0.56480  0.73600  0.30990  Biso   1.000  H
  H7       1.0000 0.56480  0.76400  0.80990  Biso   1.000  H
  H8       1.0000 0.43520  0.26400  0.69010  Biso   1.000  H
  O53      1.0000 0.19040  0.21890  0.09820  Biso   1.000  O
  O54      1.0000 0.80960  0.71890  0.40180  Biso   1.000  O
  O55      1.0000 0.80960  0.78110  0.90180  Biso   1.000  O
  O56      1.0000 0.19040  0.28110  0.59820  Biso   1.000  O
  H9       1.0000 0.11890  0.23570  0.09470  Biso   1.000  H
  H10      1.0000 0.88110  0.73570  0.40530  Biso   1.000  H
  H11      1.0000 0.88110  0.76430  0.90530  Biso   1.000  H
  H12      1.0000 0.11890  0.26430  0.59470  Biso   1.000  H
  H13      1.0000 0.21500  0.24710  0.07160  Biso   1.000  H
  H14      1.0000 0.78500  0.74710  0.42840  Biso   1.000  H
  H15      1.0000 0.78500  0.75290  0.92840  Biso   1.000  H
  H16      1.0000 0.21500  0.25290  0.57160  Biso   1.000  H
  O57      1.0000 0.14540  0.00250  0.03327  Biso   1.000  O
  O58      1.0000 0.85460  0.50250  0.46673  Biso   1.000  O
  O59      1.0000 0.85460  0.99750  0.96673  Biso   1.000  O
  O60      1.0000 0.14540  0.49750  0.53327  Biso   1.000  O
  H17      1.0000 0.16390  0.03190  0.00440  Biso   1.000  H
  H18      1.0000 0.83610  0.53190  0.49560  Biso   1.000  H
  H19      1.0000 0.83610  0.96810  0.99560  Biso   1.000  H
  H20      1.0000 0.16390  0.46810  0.50440  Biso   1.000  H
  H21      1.0000 0.12890  0.94050  0.02800  Biso   1.000  H
  H22      1.0000 0.87110  0.44050  0.47200  Biso   1.000  H
  H23      1.0000 0.87110  0.05950  0.97200  Biso   1.000  H
  H24      1.0000 0.12890  0.55950  0.52800  Biso   1.000  H
  O61      1.0000 0.45140  0.94730  0.18418  Biso   1.000  O
  O62      1.0000 0.54860  0.44730  0.31582  Biso   1.000  O
  O63      1.0000 0.54860  0.05270  0.81582  Biso   1.000  O
  O64      1.0000 0.45140  0.55270  0.68418  Biso   1.000  O
  H25      1.0000 0.48610  0.92630  0.16010  Biso   1.000  H
  H26      1.0000 0.51390  0.42630  0.33990  Biso   1.000  H
  H27      1.0000 0.51390  0.07370  0.83990  Biso   1.000  H
  H28      1.0000 0.48610  0.57370  0.66010  Biso   1.000  H
  H29      1.0000 0.49740  0.95200  0.22670  Biso   1.000  H
  H30      1.0000 0.50260  0.45200  0.27330  Biso   1.000  H
  H31      1.0000 0.50260  0.04800  0.77330  Biso   1.000  H
  H32      1.0000 0.49740  0.54800  0.72670  Biso   1.000  H
  O65      1.0000 0.20020  0.89590  0.15962  Biso   1.000  O
  O66      1.0000 0.79980  0.39590  0.34038  Biso   1.000  O
  O67      1.0000 0.79980  0.10410  0.84038  Biso   1.000  O
  O68      1.0000 0.20020  0.60410  0.65962  Biso   1.000  O
  H33      1.0000 0.13520  0.89600  0.16630  Biso   1.000  H
  H34      1.0000 0.86480  0.39600  0.33370  Biso   1.000  H
  H35      1.0000 0.86480  0.10400  0.83370  Biso   1.000  H
  H36      1.0000 0.13520  0.60400  0.66630  Biso   1.000  H
  H37      1.0000 0.19750  0.85810  0.12780  Biso   1.000  H
  H38      1.0000 0.80250  0.35810  0.37220  Biso   1.000  H
  H39      1.0000 0.80250  0.14190  0.87220  Biso   1.000  H
  H40      1.0000 0.19750  0.64190  0.62780  Biso   1.000  H
  N1       1.0000 0.80520  0.06270  0.17263  Biso   1.000  N
  N2       1.0000 0.19480  0.56270  0.32737  Biso   1.000  N
  N3       1.0000 0.19480  0.93730  0.82737  Biso   1.000  N
  N4       1.0000 0.80520  0.43730  0.67263  Biso   1.000  N
  N5       1.0000 0.15630  0.26850  0.34599  Biso   1.000  N
  N6       1.0000 0.84370  0.76850  0.15401  Biso   1.000  N
  N7       1.0000 0.84370  0.73150  0.65401  Biso   1.000  N
  N8       1.0000 0.15630  0.23150  0.84599  Biso   1.000  N
  N9       1.0000 0.46400  0.85370  0.49858  Biso   1.000  N
  N10      1.0000 0.53600  0.35370  0.00142  Biso   1.000  N
  N11      1.0000 0.53600  0.14630  0.50142  Biso   1.000  N
  N12      1.0000 0.46400  0.64630  0.99858  Biso   1.000  N
  C1       1.0000 0.99170  0.05560  0.15650  Biso   1.000  C
  C2       1.0000 0.00830  0.55560  0.34350  Biso   1.000  C
  C3       1.0000 0.00830  0.94440  0.84350  Biso   1.000  C
  C4       1.0000 0.99170  0.44440  0.65650  Biso   1.000  C
  C5       1.0000 0.89330  0.12040  0.16520  Biso   1.000  C
  C6       1.0000 0.10670  0.62040  0.33480  Biso   1.000  C
  C7       1.0000 0.10670  0.87960  0.83480  Biso   1.000  C
  C8       1.0000 0.89330  0.37960  0.66520  Biso   1.000  C
  C9       1.0000 0.89620  0.22570  0.16900  Biso   1.000  C
  C10      1.0000 0.10380  0.72570  0.33100  Biso   1.000  C
  C11      1.0000 0.10380  0.77430  0.83100  Biso   1.000  C
  C12      1.0000 0.89620  0.27430  0.66900  Biso   1.000  C
  C13      1.0000 0.98410  0.29610  0.15340  Biso   1.000  C
  C14      1.0000 0.01590  0.79610  0.34660  Biso   1.000  C
  C15      1.0000 0.01590  0.70390  0.84660  Biso   1.000  C
  C16      1.0000 0.98410  0.20390  0.65340  Biso   1.000  C
  C17      1.0000 0.80370  0.27070  0.18350  Biso   1.000  C
  C18      1.0000 0.19630  0.77070  0.31650  Biso   1.000  C
  C19      1.0000 0.19630  0.72930  0.81650  Biso   1.000  C
  C20      1.0000 0.80370  0.22930  0.68350  Biso   1.000  C
  H41      1.0000 0.80240  0.34100  0.18760  Biso   1.000  H
  H42      1.0000 0.19760  0.84100  0.31240  Biso   1.000  H
  H43      1.0000 0.19760  0.65900  0.81240  Biso   1.000  H
  H44      1.0000 0.80240  0.15900  0.68760  Biso   1.000  H
  C21      1.0000 0.71440  0.21250  0.19180  Biso   1.000  C
  C22      1.0000 0.28560  0.71250  0.30820  Biso   1.000  C
  C23      1.0000 0.28560  0.78750  0.80820  Biso   1.000  C
  C24      1.0000 0.71440  0.28750  0.69180  Biso   1.000  C
  H45      1.0000 0.65300  0.24350  0.20140  Biso   1.000  H
  H46      1.0000 0.34700  0.74350  0.29860  Biso   1.000  H
  H47      1.0000 0.34700  0.75650  0.79860  Biso   1.000  H
  H48      1.0000 0.65300  0.25650  0.70140  Biso   1.000  H
  C25      1.0000 0.71570  0.10770  0.18600  Biso   1.000  C
  C26      1.0000 0.28430  0.60770  0.31400  Biso   1.000  C
  C27      1.0000 0.28430  0.89230  0.81400  Biso   1.000  C
  C28      1.0000 0.71570  0.39230  0.68600  Biso   1.000  C
  H49      1.0000 0.65480  0.06850  0.19130  Biso   1.000  H
  H50      1.0000 0.34520  0.56850  0.30870  Biso   1.000  H
  H51      1.0000 0.34520  0.93150  0.80870  Biso   1.000  H
  H52      1.0000 0.65480  0.43150  0.69130  Biso   1.000  H
  C29      1.0000 0.35200  0.27740  0.33690  Biso   1.000  C
  C30      1.0000 0.64800  0.77740  0.16310  Biso   1.000  C
  C31      1.0000 0.64800  0.72260  0.66310  Biso   1.000  C
  C32      1.0000 0.35200  0.22260  0.83690  Biso   1.000  C
  C33      1.0000 0.24570  0.21420  0.33785  Biso   1.000  C
  C34      1.0000 0.75430  0.71420  0.16215  Biso   1.000  C
  C35      1.0000 0.75430  0.78580  0.66215  Biso   1.000  C
  C36      1.0000 0.24570  0.28580  0.83785  Biso   1.000  C
  C37      1.0000 0.23900  0.10880  0.33260  Biso   1.000  C
  C38      1.0000 0.76100  0.60880  0.16740  Biso   1.000  C
  C39      1.0000 0.76100  0.89120  0.66740  Biso   1.000  C
  C40      1.0000 0.23900  0.39120  0.83260  Biso   1.000  C
  C41      1.0000 0.33320  0.04270  0.32080  Biso   1.000  C
  C42      1.0000 0.66680  0.54270  0.17920  Biso   1.000  C
  C43      1.0000 0.66680  0.95730  0.67920  Biso   1.000  C
  C44      1.0000 0.33320  0.45730  0.82080  Biso   1.000  C
  C45      1.0000 0.13810  0.06250  0.33770  Biso   1.000  C
  C46      1.0000 0.86190  0.56250  0.16230  Biso   1.000  C
  C47      1.0000 0.86190  0.93750  0.66230  Biso   1.000  C
  C48      1.0000 0.13810  0.43750  0.83770  Biso   1.000  C
  H53      1.0000 0.13070  0.99200  0.33490  Biso   1.000  H
  H54      1.0000 0.86930  0.49200  0.16510  Biso   1.000  H
  H55      1.0000 0.86930  0.00800  0.66510  Biso   1.000  H
  H56      1.0000 0.13070  0.50800  0.83490  Biso   1.000  H
  C49      1.0000 0.04800  0.11960  0.34670  Biso   1.000  C
  C50      1.0000 0.95200  0.61960  0.15330  Biso   1.000  C
  C51      1.0000 0.95200  0.88040  0.65330  Biso   1.000  C
  C52      1.0000 0.04800  0.38040  0.84670  Biso   1.000  C
  H57      1.0000 0.97960  0.08820  0.34970  Biso   1.000  H
  H58      1.0000 0.02040  0.58820  0.15030  Biso   1.000  H
  H59      1.0000 0.02040  0.91180  0.65030  Biso   1.000  H
  H60      1.0000 0.97960  0.41180  0.84970  Biso   1.000  H
  C53      1.0000 0.06130  0.22340  0.35140  Biso   1.000  C
  C54      1.0000 0.93870  0.72340  0.14860  Biso   1.000  C
  C55      1.0000 0.93870  0.77660  0.64860  Biso   1.000  C
  C56      1.0000 0.06130  0.27660  0.85140  Biso   1.000  C
  H61      1.0000 0.00220  0.26250  0.35840  Biso   1.000  H
  H62      1.0000 0.99780  0.76250  0.14160  Biso   1.000  H
  H63      1.0000 0.99780  0.73750  0.64160  Biso   1.000  H
  H64      1.0000 0.00220  0.23750  0.85840  Biso   1.000  H
  C57      1.0000 0.66450  0.85490  0.49400  Biso   1.000  C
  C58      1.0000 0.33550  0.35490  0.00600  Biso   1.000  C
  C59      1.0000 0.33550  0.14510  0.50600  Biso   1.000  C
  C60      1.0000 0.66450  0.64510  0.99400  Biso   1.000  C
  C61      1.0000 0.55350  0.79440  0.49331  Biso   1.000  C
  C62      1.0000 0.44650  0.29440  0.00669  Biso   1.000  C
  C63      1.0000 0.44650  0.20560  0.50669  Biso   1.000  C
  C64      1.0000 0.55350  0.70560  0.99331  Biso   1.000  C
  C65      1.0000 0.54320  0.68940  0.49000  Biso   1.000  C
  C66      1.0000 0.45680  0.18940  0.01000  Biso   1.000  C
  C67      1.0000 0.45680  0.31060  0.51000  Biso   1.000  C
  C68      1.0000 0.54320  0.81060  0.99000  Biso   1.000  C
  C69      1.0000 0.63840  0.62090  0.48040  Biso   1.000  C
  C70      1.0000 0.36160  0.12090  0.01960  Biso   1.000  C
  C71      1.0000 0.36160  0.37910  0.51960  Biso   1.000  C
  C72      1.0000 0.63840  0.87910  0.98040  Biso   1.000  C
  C73      1.0000 0.43790  0.64550  0.49180  Biso   1.000  C
  C74      1.0000 0.56210  0.14550  0.00820  Biso   1.000  C
  C75      1.0000 0.56210  0.35450  0.50820  Biso   1.000  C
  C76      1.0000 0.43790  0.85450  0.99180  Biso   1.000  C
  H65      1.0000 0.42780  0.57530  0.48930  Biso   1.000  H
  H66      1.0000 0.57220  0.07530  0.01070  Biso   1.000  H
  H67      1.0000 0.57220  0.42470  0.51070  Biso   1.000  H
  H68      1.0000 0.42780  0.92470  0.98930  Biso   1.000  H
  C77      1.0000 0.34970  0.70580  0.49730  Biso   1.000  C
  C78      1.0000 0.65030  0.20580  0.00270  Biso   1.000  C
  C79      1.0000 0.65030  0.29420  0.50270  Biso   1.000  C
  C80      1.0000 0.34970  0.79420  0.99730  Biso   1.000  C
  H69      1.0000 0.27890  0.67660  0.49890  Biso   1.000  H
  H70      1.0000 0.72110  0.17660  0.00110  Biso   1.000  H
  H71      1.0000 0.72110  0.32340  0.50110  Biso   1.000  H
  H72      1.0000 0.27890  0.82340  0.99890  Biso   1.000  H
  C81      1.0000 0.36360  0.80970  0.50060  Biso   1.000  C
  C82      1.0000 0.63640  0.30970  0.99940  Biso   1.000  C
  C83      1.0000 0.63640  0.19030  0.49940  Biso   1.000  C
  C84      1.0000 0.36360  0.69030  0.00060  Biso   1.000  C
  H73      1.0000 0.30190  0.85000  0.50430  Biso   1.000  H
  H74      1.0000 0.69810  0.35000  0.99570  Biso   1.000  H
  H75      1.0000 0.69810  0.15000  0.49570  Biso   1.000  H
  H76      1.0000 0.30190  0.65000  0.00430  Biso   1.000  H
  O69      1.0000 0.71400  0.20610  0.35840  Biso   1.000  O
  O70      1.0000 0.28600  0.70610  0.14160  Biso   1.000  O
  O71      1.0000 0.28600  0.79390  0.64160  Biso   1.000  O
  O72      1.0000 0.71400  0.29390  0.85840  Biso   1.000  O
  H77      1.0000 0.66610  0.25500  0.35610  Biso   1.000  H
  H78      1.0000 0.33390  0.75500  0.14390  Biso   1.000  H
  H79      1.0000 0.33390  0.74500  0.64390  Biso   1.000  H
  H80      1.0000 0.66610  0.24500  0.85610  Biso   1.000  H
  H81      1.0000 0.68110  0.14780  0.35200  Biso   1.000  H
  H82      1.0000 0.31890  0.64780  0.14800  Biso   1.000  H
  H83      1.0000 0.31890  0.85220  0.64800  Biso   1.000  H
  H84      1.0000 0.68110  0.35220  0.85200  Biso   1.000  H
  O73      1.0000 0.44440  0.38500  0.18066  Biso   1.000  O
  O74      1.0000 0.55560  0.88500  0.31934  Biso   1.000  O
  O75      1.0000 0.55560  0.61500  0.81934  Biso   1.000  O
  O76      1.0000 0.44440  0.11500  0.68066  Biso   1.000  O
  H85      1.0000 0.48210  0.41720  0.16170  Biso   1.000  H
  H86      1.0000 0.51790  0.91720  0.33830  Biso   1.000  H
  H87      1.0000 0.51790  0.58280  0.83830  Biso   1.000  H
  H88      1.0000 0.48210  0.08280  0.66170  Biso   1.000  H
  H89      1.0000 0.37860  0.41200  0.17910  Biso   1.000  H
  H90      1.0000 0.62140  0.91200  0.32090  Biso   1.000  H
  H91      1.0000 0.62140  0.58800  0.82090  Biso   1.000  H
  H92      1.0000 0.37860  0.08800  0.67910  Biso   1.000  H
  O77      1.0000 0.20990  0.47060  0.15430  Biso   1.000  O
  O78      1.0000 0.79010  0.97060  0.34570  Biso   1.000  O
  O79      1.0000 0.79010  0.52940  0.84570  Biso   1.000  O
  O80      1.0000 0.20990  0.02940  0.65430  Biso   1.000  O
  H93      1.0000 0.18790  0.52010  0.17100  Biso   1.000  H
  H94      1.0000 0.81210  0.02010  0.32900  Biso   1.000  H
  H95      1.0000 0.81210  0.47990  0.82900  Biso   1.000  H
  H96      1.0000 0.18790  0.97990  0.67100  Biso   1.000  H
  H97      1.0000 0.19630  0.41250  0.16590  Biso   1.000  H
  H98      1.0000 0.80370  0.91250  0.33410  Biso   1.000  H
  H99      1.0000 0.80370  0.58750  0.83410  Biso   1.000  H
  H100     1.0000 0.19630  0.08750  0.66590  Biso   1.000  H
  O81      1.0000 0.12450  0.52770  0.01790  Biso   1.000  O
  O82      1.0000 0.87550  0.02770  0.48210  Biso   1.000  O
  O83      1.0000 0.87550  0.47230  0.98210  Biso   1.000  O
  O84      1.0000 0.12450  0.97230  0.51790  Biso   1.000  O
  H101     1.0000 0.07300  0.57630  0.00800  Biso   1.000  H
  H102     1.0000 0.92700  0.07630  0.49200  Biso   1.000  H
  H103     1.0000 0.92700  0.42370  0.99200  Biso   1.000  H
  H104     1.0000 0.07300  0.92370  0.50800  Biso   1.000  H
  H105     1.0000 0.17170  0.52600  0.99810  Biso   1.000  H
  H106     1.0000 0.82830  0.02600  0.50190  Biso   1.000  H
  H107     1.0000 0.82830  0.47400  0.00190  Biso   1.000  H
  H108     1.0000 0.17170  0.97400  0.49810  Biso   1.000  H
  O85      1.0000 0.07650  0.71280  0.52710  Biso   1.000  O
  O86      1.0000 0.92350  0.21280  0.97290  Biso   1.000  O
  O87      1.0000 0.92350  0.28720  0.47290  Biso   1.000  O
  O88      1.0000 0.07650  0.78720  0.02710  Biso   1.000  O
  H109     1.0000 0.04800  0.71020  0.48390  Biso   1.000  H
  H110     1.0000 0.95200  0.21020  0.01610  Biso   1.000  H
  H111     1.0000 0.95200  0.28980  0.51610  Biso   1.000  H
  H112     1.0000 0.04800  0.78980  0.98390  Biso   1.000  H
  H113     1.0000 0.06440  0.76880  0.54230  Biso   1.000  H
  H114     1.0000 0.93560  0.26880  0.95770  Biso   1.000  H
  H115     1.0000 0.93560  0.23120  0.45770  Biso   1.000  H
  H116     1.0000 0.06440  0.73120  0.04230  Biso   1.000  H
