data_image0
_cell_length_a       11.739
_cell_length_b       13.138
_cell_length_c       21.666
_cell_angle_alpha    90
_cell_angle_beta     116.366
_cell_angle_gamma    90

_symmetry_space_group_name_H-M    "P 1"
_symmetry_int_tables_number       1

loop_
  _symmetry_equiv_pos_as_xyz
  'x, y, z'

loop_
  _atom_site_label
  _atom_site_occupancy
  _atom_site_fract_x
  _atom_site_fract_y
  _atom_site_fract_z
  _atom_site_thermal_displace_type
  _atom_site_B_iso_or_equiv
  _atom_site_type_symbol
  Ho1      1.0000 0.27848  0.06215  0.14882  Biso   1.000  Ho
  Ho2      1.0000 0.72152  0.56215  0.35118  Biso   1.000  Ho
  Ho3      1.0000 0.72152  0.93785  0.85118  Biso   1.000  Ho
  Ho4      1.0000 0.27848  0.43785  0.64882  Biso   1.000  Ho
  Cu1      1.0000 0.18351  0.41620  0.34336  Biso   1.000  Cu
  Cu2      1.0000 0.81649  0.91620  0.15664  Biso   1.000  Cu
  Cu3      1.0000 0.81649  0.58380  0.65664  Biso   1.000  Cu
  Cu4      1.0000 0.18351  0.08380  0.84336  Biso   1.000  Cu
  Cu5      1.0000 0.50000  0.00000  0.50000  Biso   1.000  Cu
  Cu6      1.0000 0.50000  0.50000  0.00000  Biso   1.000  Cu
  O1       1.0000 0.08440  0.09560  0.15260  Biso   1.000  O
  O2       1.0000 0.91560  0.59560  0.34740  Biso   1.000  O
  O3       1.0000 0.91560  0.90440  0.84740  Biso   1.000  O
  O4       1.0000 0.08440  0.40440  0.65260  Biso   1.000  O
  O5       1.0000 0.97280  0.95950  0.15390  Biso   1.000  O
  O6       1.0000 0.02720  0.45950  0.34610  Biso   1.000  O
  O7       1.0000 0.02720  0.04050  0.84610  Biso   1.000  O
  O8       1.0000 0.97280  0.54050  0.65390  Biso   1.000  O
  O9       1.0000 0.97020  0.29610  0.09500  Biso   1.000  O
  O10      1.0000 0.02980  0.79610  0.40500  Biso   1.000  O
  O11      1.0000 0.02980  0.70390  0.90500  Biso   1.000  O
  O12      1.0000 0.97020  0.20390  0.59500  Biso   1.000  O
  O13      1.0000 0.05990  0.35040  0.20260  Biso   1.000  O
  O14      1.0000 0.94010  0.85040  0.29740  Biso   1.000  O
  O15      1.0000 0.94010  0.64960  0.79740  Biso   1.000  O
  O16      1.0000 0.05990  0.14960  0.70260  Biso   1.000  O
  O17      1.0000 0.33740  0.37340  0.33880  Biso   1.000  O
  O18      1.0000 0.66260  0.87340  0.16120  Biso   1.000  O
  O19      1.0000 0.66260  0.62660  0.66120  Biso   1.000  O
  O20      1.0000 0.33740  0.12660  0.83880  Biso   1.000  O
  O21      1.0000 0.44560  0.23610  0.33860  Biso   1.000  O
  O22      1.0000 0.55440  0.73610  0.16140  Biso   1.000  O
  O23      1.0000 0.55440  0.76390  0.66140  Biso   1.000  O
  O24      1.0000 0.44560  0.26390  0.83860  Biso   1.000  O
  O25      1.0000 0.32790  0.04760  0.26200  Biso   1.000  O
  O26      1.0000 0.67210  0.54760  0.23800  Biso   1.000  O
  O27      1.0000 0.67210  0.95240  0.73800  Biso   1.000  O
  O28      1.0000 0.32790  0.45240  0.76200  Biso   1.000  O
  O29      1.0000 0.40600  0.98830  0.36880  Biso   1.000  O
  O30      1.0000 0.59400  0.48830  0.13120  Biso   1.000  O
  O31      1.0000 0.59400  0.01170  0.63120  Biso   1.000  O
  O32      1.0000 0.40600  0.51170  0.86880  Biso   1.000  O
  O33      1.0000 0.65440  0.95240  0.49690  Biso   1.000  O
  O34      1.0000 0.34560  0.45240  0.00310  Biso   1.000  O
  O35      1.0000 0.34560  0.04760  0.50310  Biso   1.000  O
  O36      1.0000 0.65440  0.54760  0.99690  Biso   1.000  O
  O37      1.0000 0.75170  0.81220  0.49090  Biso   1.000  O
  O38      1.0000 0.24830  0.31220  0.00910  Biso   1.000  O
  O39      1.0000 0.24830  0.18780  0.50910  Biso   1.000  O
  O40      1.0000 0.75170  0.68780  0.99090  Biso   1.000  O
  O41      1.0000 0.61820  0.60800  0.41710  Biso   1.000  O
  O42      1.0000 0.38180  0.10800  0.08290  Biso   1.000  O
  O43      1.0000 0.38180  0.39200  0.58290  Biso   1.000  O
  O44      1.0000 0.61820  0.89200  0.91710  Biso   1.000  O
  O45      1.0000 0.72170  0.57710  0.53070  Biso   1.000  O
  O46      1.0000 0.27830  0.07710  0.96930  Biso   1.000  O
  O47      1.0000 0.27830  0.42290  0.46930  Biso   1.000  O
  O48      1.0000 0.72170  0.92290  0.03070  Biso   1.000  O
  O49      1.0000 0.43880  0.18180  0.21260  Biso   1.000  O
  O50      1.0000 0.56120  0.68180  0.28740  Biso   1.000  O
  O51      1.0000 0.56120  0.81820  0.78740  Biso   1.000  O
  O52      1.0000 0.43880  0.31820  0.71260  Biso   1.000  O
  H1       1.0000 0.43210  0.19060  0.24920  Biso   1.000  H
  H2       1.0000 0.56790  0.69060  0.25080  Biso   1.000  H
  H3       1.0000 0.56790  0.80940  0.75080  Biso   1.000  H
  H4       1.0000 0.43210  0.30940  0.74920  Biso   1.000  H
  H5       1.0000 0.43650  0.23430  0.19010  Biso   1.000  H
  H6       1.0000 0.56350  0.73430  0.30990  Biso   1.000  H
  H7       1.0000 0.56350  0.76570  0.80990  Biso   1.000  H
  H8       1.0000 0.43650  0.26570  0.69010  Biso   1.000  H
  O53      1.0000 0.19240  0.21670  0.10000  Biso   1.000  O
  O54      1.0000 0.80760  0.71670  0.40000  Biso   1.000  O
  O55      1.0000 0.80760  0.78330  0.90000  Biso   1.000  O
  O56      1.0000 0.19240  0.28330  0.60000  Biso   1.000  O
  H9       1.0000 0.12080  0.23340  0.09650  Biso   1.000  H
  H10      1.0000 0.87920  0.73340  0.40350  Biso   1.000  H
  H11      1.0000 0.87920  0.76660  0.90350  Biso   1.000  H
  H12      1.0000 0.12080  0.26660  0.59650  Biso   1.000  H
  H13      1.0000 0.21690  0.24480  0.07340  Biso   1.000  H
  H14      1.0000 0.78310  0.74480  0.42660  Biso   1.000  H
  H15      1.0000 0.78310  0.75520  0.92660  Biso   1.000  H
  H16      1.0000 0.21690  0.25520  0.57340  Biso   1.000  H
  O57      1.0000 0.14810  0.00130  0.03680  Biso   1.000  O
  O58      1.0000 0.85190  0.50130  0.46320  Biso   1.000  O
  O59      1.0000 0.85190  0.99870  0.96320  Biso   1.000  O
  O60      1.0000 0.14810  0.49870  0.53680  Biso   1.000  O
  H17      1.0000 0.16660  0.03070  0.00790  Biso   1.000  H
  H18      1.0000 0.83340  0.53070  0.49210  Biso   1.000  H
  H19      1.0000 0.83340  0.96930  0.99210  Biso   1.000  H
  H20      1.0000 0.16660  0.46930  0.50790  Biso   1.000  H
  H21      1.0000 0.13170  0.93930  0.03150  Biso   1.000  H
  H22      1.0000 0.86830  0.43930  0.46850  Biso   1.000  H
  H23      1.0000 0.86830  0.06070  0.96850  Biso   1.000  H
  H24      1.0000 0.13170  0.56070  0.53150  Biso   1.000  H
  O61      1.0000 0.44820  0.94960  0.18310  Biso   1.000  O
  O62      1.0000 0.55180  0.44960  0.31690  Biso   1.000  O
  O63      1.0000 0.55180  0.05040  0.81690  Biso   1.000  O
  O64      1.0000 0.44820  0.55040  0.68310  Biso   1.000  O
  H25      1.0000 0.48290  0.92860  0.15900  Biso   1.000  H
  H26      1.0000 0.51710  0.42860  0.34100  Biso   1.000  H
  H27      1.0000 0.51710  0.07140  0.84100  Biso   1.000  H
  H28      1.0000 0.48290  0.57140  0.65900  Biso   1.000  H
  H29      1.0000 0.49410  0.95450  0.22560  Biso   1.000  H
  H30      1.0000 0.50590  0.45450  0.27440  Biso   1.000  H
  H31      1.0000 0.50590  0.04550  0.77440  Biso   1.000  H
  H32      1.0000 0.49410  0.54550  0.72560  Biso   1.000  H
  O65      1.0000 0.20190  0.89820  0.16130  Biso   1.000  O
  O66      1.0000 0.79810  0.39820  0.33870  Biso   1.000  O
  O67      1.0000 0.79810  0.10180  0.83870  Biso   1.000  O
  O68      1.0000 0.20190  0.60180  0.66130  Biso   1.000  O
  H33      1.0000 0.13680  0.89840  0.16800  Biso   1.000  H
  H34      1.0000 0.86320  0.39840  0.33200  Biso   1.000  H
  H35      1.0000 0.86320  0.10160  0.83200  Biso   1.000  H
  H36      1.0000 0.13680  0.60160  0.66800  Biso   1.000  H
  H37      1.0000 0.19920  0.86040  0.12950  Biso   1.000  H
  H38      1.0000 0.80080  0.36040  0.37050  Biso   1.000  H
  H39      1.0000 0.80080  0.13960  0.87050  Biso   1.000  H
  H40      1.0000 0.19920  0.63960  0.62950  Biso   1.000  H
  N1       1.0000 0.80490  0.06370  0.17250  Biso   1.000  N
  N2       1.0000 0.19510  0.56370  0.32750  Biso   1.000  N
  N3       1.0000 0.19510  0.93630  0.82750  Biso   1.000  N
  N4       1.0000 0.80490  0.43630  0.67250  Biso   1.000  N
  N5       1.0000 0.15820  0.26970  0.34790  Biso   1.000  N
  N6       1.0000 0.84180  0.76970  0.15210  Biso   1.000  N
  N7       1.0000 0.84180  0.73030  0.65210  Biso   1.000  N
  N8       1.0000 0.15820  0.23030  0.84790  Biso   1.000  N
  N9       1.0000 0.46410  0.85290  0.49800  Biso   1.000  N
  N10      1.0000 0.53590  0.35290  0.00200  Biso   1.000  N
  N11      1.0000 0.53590  0.14710  0.50200  Biso   1.000  N
  N12      1.0000 0.46410  0.64710  0.99800  Biso   1.000  N
  C1       1.0000 0.99160  0.05450  0.15580  Biso   1.000  C
  C2       1.0000 0.00840  0.55450  0.34420  Biso   1.000  C
  C3       1.0000 0.00840  0.94550  0.84420  Biso   1.000  C
  C4       1.0000 0.99160  0.44550  0.65580  Biso   1.000  C
  C5       1.0000 0.89500  0.11970  0.16600  Biso   1.000  C
  C6       1.0000 0.10500  0.61970  0.33400  Biso   1.000  C
  C7       1.0000 0.10500  0.88030  0.83400  Biso   1.000  C
  C8       1.0000 0.89500  0.38030  0.66600  Biso   1.000  C
  C9       1.0000 0.89770  0.22570  0.17000  Biso   1.000  C
  C10      1.0000 0.10230  0.72570  0.33000  Biso   1.000  C
  C11      1.0000 0.10230  0.77430  0.83000  Biso   1.000  C
  C12      1.0000 0.89770  0.27430  0.67000  Biso   1.000  C
  C13      1.0000 0.98460  0.29620  0.15570  Biso   1.000  C
  C14      1.0000 0.01540  0.79620  0.34430  Biso   1.000  C
  C15      1.0000 0.01540  0.70380  0.84430  Biso   1.000  C
  C16      1.0000 0.98460  0.20380  0.65570  Biso   1.000  C
  C17      1.0000 0.80440  0.26970  0.18590  Biso   1.000  C
  C18      1.0000 0.19560  0.76970  0.31410  Biso   1.000  C
  C19      1.0000 0.19560  0.73030  0.81410  Biso   1.000  C
  C20      1.0000 0.80440  0.23030  0.68590  Biso   1.000  C
  H41      1.0000 0.80300  0.34000  0.19070  Biso   1.000  H
  H42      1.0000 0.19700  0.84000  0.30930  Biso   1.000  H
  H43      1.0000 0.19700  0.66000  0.80930  Biso   1.000  H
  H44      1.0000 0.80300  0.16000  0.69070  Biso   1.000  H
  C21      1.0000 0.71550  0.21120  0.19430  Biso   1.000  C
  C22      1.0000 0.28450  0.71120  0.30570  Biso   1.000  C
  C23      1.0000 0.28450  0.78880  0.80570  Biso   1.000  C
  C24      1.0000 0.71550  0.28880  0.69430  Biso   1.000  C
  H45      1.0000 0.65430  0.24160  0.20450  Biso   1.000  H
  H46      1.0000 0.34570  0.74160  0.29550  Biso   1.000  H
  H47      1.0000 0.34570  0.75840  0.79550  Biso   1.000  H
  H48      1.0000 0.65430  0.25840  0.70450  Biso   1.000  H
  C25      1.0000 0.71790  0.10820  0.18760  Biso   1.000  C
  C26      1.0000 0.28210  0.60820  0.31240  Biso   1.000  C
  C27      1.0000 0.28210  0.89180  0.81240  Biso   1.000  C
  C28      1.0000 0.71790  0.39180  0.68760  Biso   1.000  C
  H49      1.0000 0.65820  0.06830  0.19370  Biso   1.000  H
  H50      1.0000 0.34180  0.56830  0.30630  Biso   1.000  H
  H51      1.0000 0.34180  0.93170  0.80630  Biso   1.000  H
  H52      1.0000 0.65820  0.43170  0.69370  Biso   1.000  H
  C29      1.0000 0.35300  0.27830  0.33790  Biso   1.000  C
  C30      1.0000 0.64700  0.77830  0.16210  Biso   1.000  C
  C31      1.0000 0.64700  0.72170  0.66210  Biso   1.000  C
  C32      1.0000 0.35300  0.22170  0.83790  Biso   1.000  C
  C33      1.0000 0.24720  0.21340  0.33840  Biso   1.000  C
  C34      1.0000 0.75280  0.71340  0.16160  Biso   1.000  C
  C35      1.0000 0.75280  0.78660  0.66160  Biso   1.000  C
  C36      1.0000 0.24720  0.28660  0.83840  Biso   1.000  C
  C37      1.0000 0.23780  0.10880  0.33420  Biso   1.000  C
  C38      1.0000 0.76220  0.60880  0.16580  Biso   1.000  C
  C39      1.0000 0.76220  0.89120  0.66580  Biso   1.000  C
  C40      1.0000 0.23780  0.39120  0.83420  Biso   1.000  C
  C41      1.0000 0.33440  0.04460  0.32170  Biso   1.000  C
  C42      1.0000 0.66560  0.54460  0.17830  Biso   1.000  C
  C43      1.0000 0.66560  0.95540  0.67830  Biso   1.000  C
  C44      1.0000 0.33440  0.45540  0.82170  Biso   1.000  C
  C45      1.0000 0.13740  0.06160  0.33790  Biso   1.000  C
  C46      1.0000 0.86260  0.56160  0.16210  Biso   1.000  C
  C47      1.0000 0.86260  0.93840  0.66210  Biso   1.000  C
  C48      1.0000 0.13740  0.43840  0.83790  Biso   1.000  C
  H53      1.0000 0.12940  0.99120  0.33390  Biso   1.000  H
  H54      1.0000 0.87060  0.49120  0.16610  Biso   1.000  H
  H55      1.0000 0.87060  0.00880  0.66610  Biso   1.000  H
  H56      1.0000 0.12940  0.50880  0.83390  Biso   1.000  H
  C49      1.0000 0.04780  0.11850  0.34770  Biso   1.000  C
  C50      1.0000 0.95220  0.61850  0.15230  Biso   1.000  C
  C51      1.0000 0.95220  0.88150  0.65230  Biso   1.000  C
  C52      1.0000 0.04780  0.38150  0.84770  Biso   1.000  C
  H57      1.0000 0.97930  0.08730  0.35060  Biso   1.000  H
  H58      1.0000 0.02070  0.58730  0.14940  Biso   1.000  H
  H59      1.0000 0.02070  0.91270  0.64940  Biso   1.000  H
  H60      1.0000 0.97930  0.41270  0.85060  Biso   1.000  H
  C53      1.0000 0.06250  0.22200  0.35290  Biso   1.000  C
  C54      1.0000 0.93750  0.72200  0.14710  Biso   1.000  C
  C55      1.0000 0.93750  0.77800  0.64710  Biso   1.000  C
  C56      1.0000 0.06250  0.27800  0.85290  Biso   1.000  C
  H61      1.0000 0.00320  0.26060  0.36020  Biso   1.000  H
  H62      1.0000 0.99680  0.76060  0.13980  Biso   1.000  H
  H63      1.0000 0.99680  0.73940  0.63980  Biso   1.000  H
  H64      1.0000 0.00320  0.23940  0.86020  Biso   1.000  H
  C57      1.0000 0.66030  0.85580  0.49300  Biso   1.000  C
  C58      1.0000 0.33970  0.35580  0.00700  Biso   1.000  C
  C59      1.0000 0.33970  0.14420  0.50700  Biso   1.000  C
  C60      1.0000 0.66030  0.64420  0.99300  Biso   1.000  C
  C61      1.0000 0.55400  0.79440  0.49250  Biso   1.000  C
  C62      1.0000 0.44600  0.29440  0.00750  Biso   1.000  C
  C63      1.0000 0.44600  0.20560  0.50750  Biso   1.000  C
  C64      1.0000 0.55400  0.70560  0.99250  Biso   1.000  C
  C65      1.0000 0.54390  0.68940  0.48900  Biso   1.000  C
  C66      1.0000 0.45610  0.18940  0.01100  Biso   1.000  C
  C67      1.0000 0.45610  0.31060  0.51100  Biso   1.000  C
  C68      1.0000 0.54390  0.81060  0.98900  Biso   1.000  C
  C69      1.0000 0.63830  0.62010  0.47900  Biso   1.000  C
  C70      1.0000 0.36170  0.12010  0.02100  Biso   1.000  C
  C71      1.0000 0.36170  0.37990  0.52100  Biso   1.000  C
  C72      1.0000 0.63830  0.87990  0.97900  Biso   1.000  C
  C73      1.0000 0.43740  0.64500  0.49070  Biso   1.000  C
  C74      1.0000 0.56260  0.14500  0.00930  Biso   1.000  C
  C75      1.0000 0.56260  0.35500  0.50930  Biso   1.000  C
  C76      1.0000 0.43740  0.85500  0.99070  Biso   1.000  C
  H65      1.0000 0.42750  0.57470  0.48810  Biso   1.000  H
  H66      1.0000 0.57250  0.07470  0.01190  Biso   1.000  H
  H67      1.0000 0.57250  0.42530  0.51190  Biso   1.000  H
  H68      1.0000 0.42750  0.92530  0.98810  Biso   1.000  H
  C77      1.0000 0.34770  0.70570  0.49630  Biso   1.000  C
  C78      1.0000 0.65230  0.20570  0.00370  Biso   1.000  C
  C79      1.0000 0.65230  0.29430  0.50370  Biso   1.000  C
  C80      1.0000 0.34770  0.79430  0.99630  Biso   1.000  C
  H69      1.0000 0.27670  0.67720  0.49800  Biso   1.000  H
  H70      1.0000 0.72330  0.17720  0.00200  Biso   1.000  H
  H71      1.0000 0.72330  0.32280  0.50200  Biso   1.000  H
  H72      1.0000 0.27670  0.82280  0.99800  Biso   1.000  H
  C81      1.0000 0.36390  0.80840  0.49910  Biso   1.000  C
  C82      1.0000 0.63610  0.30840  0.00090  Biso   1.000  C
  C83      1.0000 0.63610  0.19160  0.50090  Biso   1.000  C
  C84      1.0000 0.36390  0.69160  0.99910  Biso   1.000  C
  H73      1.0000 0.30170  0.84920  0.50200  Biso   1.000  H
  H74      1.0000 0.69830  0.34920  0.99800  Biso   1.000  H
  H75      1.0000 0.69830  0.15080  0.49800  Biso   1.000  H
  H76      1.0000 0.30170  0.65080  0.00200  Biso   1.000  H
  O69      1.0000 0.71420  0.20720  0.36020  Biso   1.000  O
  O70      1.0000 0.28580  0.70720  0.13980  Biso   1.000  O
  O71      1.0000 0.28580  0.79280  0.63980  Biso   1.000  O
  O72      1.0000 0.71420  0.29280  0.86020  Biso   1.000  O
  H77      1.0000 0.66630  0.25610  0.35790  Biso   1.000  H
  H78      1.0000 0.33370  0.75610  0.14210  Biso   1.000  H
  H79      1.0000 0.33370  0.74390  0.64210  Biso   1.000  H
  H80      1.0000 0.66630  0.24390  0.85790  Biso   1.000  H
  H81      1.0000 0.68140  0.14890  0.35370  Biso   1.000  H
  H82      1.0000 0.31860  0.64890  0.14630  Biso   1.000  H
  H83      1.0000 0.31860  0.85110  0.64630  Biso   1.000  H
  H84      1.0000 0.68140  0.35110  0.85370  Biso   1.000  H
  O73      1.0000 0.44580  0.38480  0.18170  Biso   1.000  O
  O74      1.0000 0.55420  0.88480  0.31830  Biso   1.000  O
  O75      1.0000 0.55420  0.61520  0.81830  Biso   1.000  O
  O76      1.0000 0.44580  0.11520  0.68170  Biso   1.000  O
  H85      1.0000 0.48350  0.41700  0.16270  Biso   1.000  H
  H86      1.0000 0.51650  0.91700  0.33730  Biso   1.000  H
  H87      1.0000 0.51650  0.58300  0.83730  Biso   1.000  H
  H88      1.0000 0.48350  0.08300  0.66270  Biso   1.000  H
  H89      1.0000 0.37990  0.41190  0.18010  Biso   1.000  H
  H90      1.0000 0.62010  0.91190  0.31990  Biso   1.000  H
  H91      1.0000 0.62010  0.58810  0.81990  Biso   1.000  H
  H92      1.0000 0.37990  0.08810  0.68010  Biso   1.000  H
  O77      1.0000 0.21260  0.47030  0.15470  Biso   1.000  O
  O78      1.0000 0.78740  0.97030  0.34530  Biso   1.000  O
  O79      1.0000 0.78740  0.52970  0.84530  Biso   1.000  O
  O80      1.0000 0.21260  0.02970  0.65470  Biso   1.000  O
  H93      1.0000 0.19060  0.51980  0.17140  Biso   1.000  H
  H94      1.0000 0.80940  0.01980  0.32860  Biso   1.000  H
  H95      1.0000 0.80940  0.48020  0.82860  Biso   1.000  H
  H96      1.0000 0.19060  0.98020  0.67140  Biso   1.000  H
  H97      1.0000 0.19900  0.41220  0.16630  Biso   1.000  H
  H98      1.0000 0.80100  0.91220  0.33370  Biso   1.000  H
  H99      1.0000 0.80100  0.58780  0.83370  Biso   1.000  H
  H100     1.0000 0.19900  0.08780  0.66630  Biso   1.000  H
  O81      1.0000 0.12430  0.52840  0.01790  Biso   1.000  O
  O82      1.0000 0.87570  0.02840  0.48210  Biso   1.000  O
  O83      1.0000 0.87570  0.47160  0.98210  Biso   1.000  O
  O84      1.0000 0.12430  0.97160  0.51790  Biso   1.000  O
  H101     1.0000 0.07270  0.57700  0.00790  Biso   1.000  H
  H102     1.0000 0.92730  0.07700  0.49210  Biso   1.000  H
  H103     1.0000 0.92730  0.42300  0.99210  Biso   1.000  H
  H104     1.0000 0.07270  0.92300  0.50790  Biso   1.000  H
  H105     1.0000 0.17140  0.52710  0.99810  Biso   1.000  H
  H106     1.0000 0.82860  0.02710  0.50190  Biso   1.000  H
  H107     1.0000 0.82860  0.47290  0.00190  Biso   1.000  H
  H108     1.0000 0.17140  0.97290  0.49810  Biso   1.000  H
  O85      1.0000 0.07650  0.79120  0.02860  Biso   1.000  O
  O86      1.0000 0.92350  0.29120  0.47140  Biso   1.000  O
  O87      1.0000 0.92350  0.20880  0.97140  Biso   1.000  O
  O88      1.0000 0.07650  0.70880  0.52860  Biso   1.000  O
  H109     1.0000 0.04840  0.79380  0.98540  Biso   1.000  H
  H110     1.0000 0.95160  0.29380  0.51460  Biso   1.000  H
  H111     1.0000 0.95160  0.20620  0.01460  Biso   1.000  H
  H112     1.0000 0.04840  0.70620  0.48540  Biso   1.000  H
  H113     1.0000 0.06440  0.73520  0.04370  Biso   1.000  H
  H114     1.0000 0.93560  0.23520  0.45630  Biso   1.000  H
  H115     1.0000 0.93560  0.26480  0.95630  Biso   1.000  H
  H116     1.0000 0.06440  0.76480  0.54370  Biso   1.000  H
