data_image0
_cell_length_a       15.0084
_cell_length_b       15.8591
_cell_length_c       17.91
_cell_angle_alpha    112.6
_cell_angle_beta     103.553
_cell_angle_gamma    101.522

_symmetry_space_group_name_H-M    "P 1"
_symmetry_int_tables_number       1

loop_
  _symmetry_equiv_pos_as_xyz
  'x, y, z'

loop_
  _atom_site_label
  _atom_site_occupancy
  _atom_site_fract_x
  _atom_site_fract_y
  _atom_site_fract_z
  _atom_site_thermal_displace_type
  _atom_site_B_iso_or_equiv
  _atom_site_type_symbol
  Cu1      1.0000 0.84217  0.58824  0.08339  Biso   1.000  Cu
  Cu2      1.0000 0.15783  0.41176  0.91661  Biso   1.000  Cu
  Cu3      1.0000 0.24098  0.51083  0.61236  Biso   1.000  Cu
  Cu4      1.0000 0.75902  0.48917  0.38764  Biso   1.000  Cu
  Cu5      1.0000 0.12797  0.01738  0.97672  Biso   1.000  Cu
  Cu6      1.0000 0.87203  0.98262  0.02328  Biso   1.000  Cu
  N1       1.0000 0.70230  0.47790  0.06530  Biso   1.000  N
  N2       1.0000 0.29770  0.52210  0.93470  Biso   1.000  N
  N3       1.0000 0.27610  0.13220  0.00620  Biso   1.000  N
  N4       1.0000 0.72390  0.86780  0.99380  Biso   1.000  N
  O1       1.0000 0.80420  0.70100  0.13530  Biso   1.000  O
  O2       1.0000 0.19580  0.29900  0.86470  Biso   1.000  O
  O3       1.0000 0.90880  0.59720  0.19410  Biso   1.000  O
  O4       1.0000 0.09120  0.40280  0.80590  Biso   1.000  O
  O5       1.0000 0.16850  0.55000  0.53560  Biso   1.000  O
  O6       1.0000 0.83150  0.45000  0.46440  Biso   1.000  O
  O7       1.0000 0.21840  0.59660  0.71040  Biso   1.000  O
  O8       1.0000 0.78160  0.40340  0.28960  Biso   1.000  O
  O9       1.0000 0.30680  0.46420  0.68680  Biso   1.000  O
  O10      1.0000 0.69320  0.53580  0.31320  Biso   1.000  O
  O11      1.0000 0.24180  0.40870  0.51060  Biso   1.000  O
  O12      1.0000 0.75820  0.59130  0.48940  Biso   1.000  O
  O13      1.0000 0.14630  0.07690  0.09870  Biso   1.000  O
  O14      1.0000 0.85370  0.92310  0.90130  Biso   1.000  O
  O15      1.0000 0.18510  0.92040  0.98470  Biso   1.000  O
  O16      1.0000 0.81490  0.07960  0.01530  Biso   1.000  O
  O17      1.0000 0.09610  0.94730  0.85320  Biso   1.000  O
  O18      1.0000 0.90390  0.05270  0.14680  Biso   1.000  O
  O19      1.0000 0.05650  0.10320  0.96490  Biso   1.000  O
  O20      1.0000 0.94350  0.89680  0.03510  Biso   1.000  O
  O21      1.0000 0.89420  0.48650  0.03490  Biso   1.000  O
  O22      1.0000 0.10580  0.51350  0.96510  Biso   1.000  O
  O23      1.0000 0.79430  0.59140  0.97470  Biso   1.000  O
  O24      1.0000 0.20570  0.40860  0.02530  Biso   1.000  O
  C1       1.0000 0.78840  0.88840  0.32990  Biso   1.000  C
  C2       1.0000 0.21160  0.11160  0.67010  Biso   1.000  C
  H1       1.0000 0.75990  0.94000  0.33560  Biso   1.000  H
  H2       1.0000 0.24010  0.06000  0.66440  Biso   1.000  H
  H3       1.0000 0.85700  0.91640  0.36620  Biso   1.000  H
  H4       1.0000 0.14300  0.08360  0.63380  Biso   1.000  H
  H5       1.0000 0.75420  0.84470  0.34810  Biso   1.000  H
  H6       1.0000 0.24580  0.15530  0.65190  Biso   1.000  H
  C3       1.0000 0.77930  0.83250  0.23650  Biso   1.000  C
  C4       1.0000 0.22070  0.16750  0.76350  Biso   1.000  C
  H7       1.0000 0.70970  0.80680  0.20100  Biso   1.000  H
  H8       1.0000 0.29030  0.19320  0.79900  Biso   1.000  H
  H9       1.0000 0.81190  0.87850  0.21890  Biso   1.000  H
  H10      1.0000 0.18810  0.12150  0.78110  Biso   1.000  H
  C5       1.0000 0.81970  0.74960  0.21500  Biso   1.000  C
  C6       1.0000 0.18030  0.25040  0.78500  Biso   1.000  C
  C7       1.0000 0.86910  0.73080  0.28040  Biso   1.000  C
  C8       1.0000 0.13090  0.26920  0.71960  Biso   1.000  C
  H11      1.0000 0.87550  0.77120  0.33800  Biso   1.000  H
  H12      1.0000 0.12450  0.22880  0.66200  Biso   1.000  H
  C9       1.0000 0.90980  0.65610  0.26650  Biso   1.000  C
  C10      1.0000 0.09020  0.34390  0.73350  Biso   1.000  C
  C11      1.0000 0.96080  0.64290  0.34180  Biso   1.000  C
  C12      1.0000 0.03920  0.35710  0.65820  Biso   1.000  C
  C13      1.0000 0.93960  0.67360  0.41760  Biso   1.000  C
  C14      1.0000 0.06040  0.32640  0.58240  Biso   1.000  C
  H13      1.0000 0.89150  0.70420  0.42270  Biso   1.000  H
  H14      1.0000 0.10850  0.29580  0.57730  Biso   1.000  H
  C15      1.0000 0.98860  0.65960  0.48610  Biso   1.000  C
  C16      1.0000 0.01140  0.34040  0.51390  Biso   1.000  C
  H15      1.0000 0.97270  0.67980  0.53720  Biso   1.000  H
  H16      1.0000 0.02730  0.32020  0.46280  Biso   1.000  H
  C17      1.0000 0.06000  0.61650  0.48020  Biso   1.000  C
  C18      1.0000 0.94000  0.38350  0.51980  Biso   1.000  C
  C19      1.0000 0.08060  0.58450  0.40380  Biso   1.000  C
  C20      1.0000 0.91940  0.41550  0.59620  Biso   1.000  C
  H17      1.0000 0.12850  0.55370  0.39880  Biso   1.000  H
  H18      1.0000 0.87150  0.44630  0.60120  Biso   1.000  H
  C21      1.0000 0.03160  0.59750  0.33550  Biso   1.000  C
  C22      1.0000 0.96840  0.40250  0.66450  Biso   1.000  C
  H19      1.0000 0.04620  0.57540  0.28380  Biso   1.000  H
  H20      1.0000 0.95380  0.42460  0.71620  Biso   1.000  H
  C23      1.0000 0.11600  0.60270  0.55370  Biso   1.000  C
  C24      1.0000 0.88400  0.39730  0.44630  Biso   1.000  C
  C25      1.0000 0.12500  0.66320  0.63590  Biso   1.000  C
  C26      1.0000 0.87500  0.33680  0.36410  Biso   1.000  C
  H21      1.0000 0.09430  0.71130  0.64360  Biso   1.000  H
  H22      1.0000 0.90570  0.28870  0.35640  Biso   1.000  H
  C27      1.0000 0.17640  0.65830  0.70890  Biso   1.000  C
  C28      1.0000 0.82360  0.34170  0.29110  Biso   1.000  C
  C29      1.0000 0.16650  0.72170  0.79260  Biso   1.000  C
  C30      1.0000 0.83350  0.27830  0.20740  Biso   1.000  C
  H23      1.0000 0.21950  0.72810  0.84140  Biso   1.000  H
  H24      1.0000 0.78050  0.27190  0.15860  Biso   1.000  H
  H25      1.0000 0.17310  0.78690  0.79680  Biso   1.000  H
  H26      1.0000 0.82690  0.21310  0.20320  Biso   1.000  H
  C31      1.0000 0.07170  0.68190  0.79930  Biso   1.000  C
  C32      1.0000 0.92830  0.31810  0.20070  Biso   1.000  C
  H27      1.0000 0.06880  0.72410  0.85480  Biso   1.000  H
  H28      1.0000 0.93120  0.27590  0.14520  Biso   1.000  H
  H29      1.0000 0.06480  0.61720  0.79480  Biso   1.000  H
  H30      1.0000 0.93520  0.38280  0.20520  Biso   1.000  H
  H31      1.0000 0.01910  0.67810  0.75250  Biso   1.000  H
  H32      1.0000 0.98090  0.32190  0.24750  Biso   1.000  H
  C33      1.0000 0.09300  0.63180  0.63150  Biso   1.000  C
  C34      1.0000 0.90700  0.36820  0.36850  Biso   1.000  C
  H33      1.0000 0.04100  0.65750  0.63330  Biso   1.000  H
  H34      1.0000 0.95900  0.34250  0.36670  Biso   1.000  H
  C35      1.0000 0.14200  0.62500  0.70510  Biso   1.000  C
  C36      1.0000 0.85800  0.37500  0.29490  Biso   1.000  C
  C37      1.0000 0.11620  0.65940  0.78620  Biso   1.000  C
  C38      1.0000 0.88380  0.34060  0.21380  Biso   1.000  C
  H35      1.0000 0.10270  0.60500  0.80070  Biso   1.000  H
  H36      1.0000 0.89730  0.39500  0.19930  Biso   1.000  H
  H37      1.0000 0.17400  0.71090  0.83370  Biso   1.000  H
  H38      1.0000 0.82600  0.28910  0.16630  Biso   1.000  H
  C39      1.0000 0.03220  0.69710  0.78450  Biso   1.000  C
  C40      1.0000 0.96780  0.30290  0.21550  Biso   1.000  C
  H39      1.0000 0.02360  0.71740  0.84060  Biso   1.000  H
  H40      1.0000 0.97640  0.28260  0.15940  Biso   1.000  H
  H41      1.0000 0.97330  0.64620  0.73980  Biso   1.000  H
  H42      1.0000 0.02670  0.35380  0.26020  Biso   1.000  H
  H43      1.0000 0.04480  0.75240  0.77200  Biso   1.000  H
  H44      1.0000 0.95520  0.24760  0.22800  Biso   1.000  H
  C41      1.0000 0.48420  0.43970  0.78200  Biso   1.000  C
  C42      1.0000 0.51580  0.56030  0.21800  Biso   1.000  C
  H45      1.0000 0.51790  0.42630  0.82790  Biso   1.000  H
  H46      1.0000 0.48210  0.57370  0.17210  Biso   1.000  H
  H47      1.0000 0.48090  0.50540  0.80710  Biso   1.000  H
  H48      1.0000 0.51910  0.49460  0.19290  Biso   1.000  H
  H49      1.0000 0.51960  0.43380  0.74160  Biso   1.000  H
  H50      1.0000 0.48040  0.56620  0.25840  Biso   1.000  H
  C43      1.0000 0.38320  0.36860  0.73470  Biso   1.000  C
  C44      1.0000 0.61680  0.63140  0.26530  Biso   1.000  C
  H51      1.0000 0.34760  0.37390  0.77550  Biso   1.000  H
  H52      1.0000 0.65240  0.62610  0.22450  Biso   1.000  H
  H53      1.0000 0.38650  0.30210  0.71010  Biso   1.000  H
  H54      1.0000 0.61350  0.69790  0.28990  Biso   1.000  H
  C45      1.0000 0.32940  0.38790  0.66280  Biso   1.000  C
  C46      1.0000 0.67060  0.61210  0.33720  Biso   1.000  C
  C47      1.0000 0.31190  0.32310  0.57770  Biso   1.000  C
  C48      1.0000 0.68810  0.67690  0.42230  Biso   1.000  C
  H55      1.0000 0.32960  0.26650  0.56760  Biso   1.000  H
  H56      1.0000 0.67040  0.73350  0.43240  Biso   1.000  H
  C49      1.0000 0.26970  0.33650  0.50620  Biso   1.000  C
  C50      1.0000 0.73030  0.66350  0.49380  Biso   1.000  C
  C51      1.0000 0.25370  0.26380  0.41740  Biso   1.000  C
  C52      1.0000 0.74630  0.73620  0.58260  Biso   1.000  C
  C53      1.0000 0.29640  0.19120  0.40100  Biso   1.000  C
  C54      1.0000 0.70360  0.80880  0.59900  Biso   1.000  C
  H57      1.0000 0.33820  0.18730  0.44760  Biso   1.000  H
  H58      1.0000 0.66180  0.81270  0.55240  Biso   1.000  H
  C55      1.0000 0.27770  0.12430  0.31650  Biso   1.000  C
  C56      1.0000 0.72230  0.87570  0.68350  Biso   1.000  C
  H59      1.0000 0.30660  0.07470  0.30630  Biso   1.000  H
  H60      1.0000 0.69340  0.92530  0.69370  Biso   1.000  H
  C57      1.0000 0.21760  0.12870  0.24690  Biso   1.000  C
  C58      1.0000 0.78240  0.87130  0.75310  Biso   1.000  C
  C59      1.0000 0.17560  0.20180  0.26350  Biso   1.000  C
  C60      1.0000 0.82440  0.79820  0.73650  Biso   1.000  C
  H61      1.0000 0.13410  0.20580  0.21690  Biso   1.000  H
  H62      1.0000 0.86590  0.79420  0.78310  Biso   1.000  H
  C61      1.0000 0.19350  0.26820  0.34680  Biso   1.000  C
  C62      1.0000 0.80650  0.73180  0.65320  Biso   1.000  C
  H63      1.0000 0.16460  0.31780  0.35680  Biso   1.000  H
  H64      1.0000 0.83540  0.68220  0.64320  Biso   1.000  H
  C63      1.0000 0.19800  0.05970  0.15460  Biso   1.000  C
  C64      1.0000 0.80200  0.94030  0.84540  Biso   1.000  C
  C65      1.0000 0.23770  0.98480  0.13680  Biso   1.000  C
  C66      1.0000 0.76230  0.01520  0.86320  Biso   1.000  C
  H65      1.0000 0.27400  0.97810  0.18420  Biso   1.000  H
  H66      1.0000 0.72600  0.02190  0.81580  Biso   1.000  H
  C67      1.0000 0.22760  0.91950  0.05480  Biso   1.000  C
  C68      1.0000 0.77240  0.08050  0.94520  Biso   1.000  C
  C69      1.0000 0.27340  0.84030  0.04530  Biso   1.000  C
  C70      1.0000 0.72660  0.15970  0.95470  Biso   1.000  C
  H67      1.0000 0.26120  0.81320  0.08470  Biso   1.000  H
  H68      1.0000 0.73880  0.18680  0.91530  Biso   1.000  H
  H69      1.0000 0.24290  0.78760  0.98560  Biso   1.000  H
  H70      1.0000 0.75710  0.21240  0.01440  Biso   1.000  H
  C71      1.0000 0.37950  0.87750  0.06500  Biso   1.000  C
  C72      1.0000 0.62050  0.12250  0.93500  Biso   1.000  C
  H71      1.0000 0.40690  0.82500  0.05870  Biso   1.000  H
  H72      1.0000 0.59310  0.17500  0.94130  Biso   1.000  H
  H73      1.0000 0.40990  0.92910  0.12430  Biso   1.000  H
  H74      1.0000 0.59010  0.07090  0.87570  Biso   1.000  H
  H75      1.0000 0.39170  0.90300  0.02510  Biso   1.000  H
  H76      1.0000 0.60830  0.09700  0.97490  Biso   1.000  H
  C73      1.0000 0.97920  0.91570  0.63270  Biso   1.000  C
  C74      1.0000 0.02080  0.08430  0.36730  Biso   1.000  C
  H77      1.0000 0.98060  0.87070  0.57750  Biso   1.000  H
  H78      1.0000 0.01940  0.12930  0.42250  Biso   1.000  H
  H79      1.0000 0.00330  0.98200  0.64100  Biso   1.000  H
  H80      1.0000 0.99670  0.01800  0.35900  Biso   1.000  H
  H81      1.0000 0.91250  0.90180  0.63260  Biso   1.000  H
  H82      1.0000 0.08750  0.09820  0.36740  Biso   1.000  H
  C75      1.0000 0.04320  0.90430  0.70580  Biso   1.000  C
  C76      1.0000 0.95680  0.09570  0.29420  Biso   1.000  C
  H83      1.0000 0.01870  0.83650  0.69500  Biso   1.000  H
  H84      1.0000 0.98130  0.16350  0.30500  Biso   1.000  H
  H85      1.0000 0.10930  0.91560  0.70280  Biso   1.000  H
  H86      1.0000 0.89070  0.08440  0.29720  Biso   1.000  H
  C77      1.0000 0.05120  0.96890  0.79710  Biso   1.000  C
  C78      1.0000 0.94880  0.03110  0.20290  Biso   1.000  C
  C79      1.0000 0.01390  0.04470  0.81350  Biso   1.000  C
  C80      1.0000 0.98610  0.95530  0.18650  Biso   1.000  C
  H87      1.0000 0.98230  0.05390  0.76600  Biso   1.000  H
  H88      1.0000 0.01770  0.94610  0.23400  Biso   1.000  H
  C81      1.0000 0.01980  0.10880  0.89610  Biso   1.000  C
  C82      1.0000 0.98020  0.89120  0.10390  Biso   1.000  C
  C83      1.0000 0.98290  0.19230  0.90710  Biso   1.000  C
  C84      1.0000 0.01710  0.80770  0.09290  Biso   1.000  C
  C85      1.0000 0.95420  0.21880  0.84180  Biso   1.000  C
  C86      1.0000 0.04580  0.78120  0.15820  Biso   1.000  C
  H89      1.0000 0.95710  0.18230  0.78670  Biso   1.000  H
  H90      1.0000 0.04290  0.81770  0.21330  Biso   1.000  H
  C87      1.0000 0.92120  0.29780  0.85590  Biso   1.000  C
  C88      1.0000 0.07880  0.70220  0.14410  Biso   1.000  C
  H91      1.0000 0.90180  0.31440  0.81050  Biso   1.000  H
  H92      1.0000 0.09820  0.68560  0.18950  Biso   1.000  H
  C89      1.0000 0.91650  0.35270  0.93650  Biso   1.000  C
  C90      1.0000 0.08350  0.64730  0.06350  Biso   1.000  C
  C91      1.0000 0.94730  0.32730  0.00200  Biso   1.000  C
  C92      1.0000 0.05270  0.67270  0.99800  Biso   1.000  C
  H93      1.0000 0.94610  0.36480  0.05760  Biso   1.000  H
  H94      1.0000 0.05390  0.63520  0.94240  Biso   1.000  H
  C93      1.0000 0.97970  0.24830  0.98800  Biso   1.000  C
  C94      1.0000 0.02030  0.75170  0.01200  Biso   1.000  C
  H95      1.0000 0.99980  0.23230  0.03370  Biso   1.000  H
  H96      1.0000 0.00020  0.76770  0.96630  Biso   1.000  H
  C95      1.0000 0.88010  0.43720  0.95620  Biso   1.000  C
  C96      1.0000 0.11990  0.56280  0.04380  Biso   1.000  C
  C97      1.0000 0.83330  0.45650  0.89010  Biso   1.000  C
  C98      1.0000 0.16670  0.54350  0.10990  Biso   1.000  C
  H97      1.0000 0.82610  0.41500  0.83260  Biso   1.000  H
  H98      1.0000 0.17390  0.58500  0.16740  Biso   1.000  H
  C99      1.0000 0.79660  0.53400  0.90410  Biso   1.000  C
  C100     1.0000 0.20340  0.46600  0.09590  Biso   1.000  C
  C101     1.0000 0.74080  0.53560  0.82220  Biso   1.000  C
  C102     1.0000 0.25920  0.46440  0.17780  Biso   1.000  C
  H99      1.0000 0.71890  0.47090  0.77260  Biso   1.000  H
  H100     1.0000 0.28110  0.52910  0.22740  Biso   1.000  H
  H101     1.0000 0.68340  0.55530  0.82840  Biso   1.000  H
  H102     1.0000 0.31660  0.44470  0.17160  Biso   1.000  H
  C103     1.0000 0.80950  0.60770  0.80890  Biso   1.000  C
  C104     1.0000 0.19050  0.39230  0.19110  Biso   1.000  C
  H103     1.0000 0.77630  0.61170  0.75680  Biso   1.000  H
  H104     1.0000 0.22370  0.38830  0.24320  Biso   1.000  H
  H105     1.0000 0.86570  0.58700  0.80230  Biso   1.000  H
  H106     1.0000 0.13430  0.41300  0.19770  Biso   1.000  H
  H107     1.0000 0.83110  0.67130  0.85870  Biso   1.000  H
  H108     1.0000 0.16890  0.32870  0.14130  Biso   1.000  H
  C105     1.0000 0.76990  0.57020  0.83680  Biso   1.000  C
  C106     1.0000 0.23010  0.42980  0.16320  Biso   1.000  C
  H109     1.0000 0.70160  0.56830  0.82630  Biso   1.000  H
  H110     1.0000 0.29840  0.43170  0.17370  Biso   1.000  H
  H111     1.0000 0.80990  0.63880  0.86270  Biso   1.000  H
  H112     1.0000 0.19010  0.36120  0.13730  Biso   1.000  H
  C107     1.0000 0.78020  0.51900  0.75040  Biso   1.000  C
  C108     1.0000 0.21980  0.48100  0.24960  Biso   1.000  C
  H113     1.0000 0.76190  0.55120  0.71510  Biso   1.000  H
  H114     1.0000 0.23810  0.44880  0.28490  Biso   1.000  H
  H115     1.0000 0.73780  0.45180  0.72140  Biso   1.000  H
  H116     1.0000 0.26220  0.54820  0.27860  Biso   1.000  H
  H117     1.0000 0.84760  0.52090  0.75870  Biso   1.000  H
  H118     1.0000 0.15240  0.47910  0.24130  Biso   1.000  H
  C109     1.0000 0.70430  0.43160  0.11400  Biso   1.000  C
  C110     1.0000 0.29570  0.56840  0.88600  Biso   1.000  C
  H119     1.0000 0.76380  0.44720  0.15740  Biso   1.000  H
  H120     1.0000 0.23620  0.55280  0.84260  Biso   1.000  H
  C111     1.0000 0.62380  0.36200  0.10430  Biso   1.000  C
  C112     1.0000 0.37620  0.63800  0.89570  Biso   1.000  C
  H121     1.0000 0.62900  0.33080  0.14040  Biso   1.000  H
  H122     1.0000 0.37100  0.66920  0.85960  Biso   1.000  H
  C113     1.0000 0.53590  0.33820  0.04160  Biso   1.000  C
  C114     1.0000 0.46410  0.66180  0.95840  Biso   1.000  C
  C115     1.0000 0.53430  0.38550  0.99010  Biso   1.000  C
  C116     1.0000 0.46570  0.61450  0.00990  Biso   1.000  C
  H123     1.0000 0.47610  0.37130  0.94580  Biso   1.000  H
  H124     1.0000 0.52390  0.62870  0.05420  Biso   1.000  H
  C117     1.0000 0.61840  0.45360  0.00400  Biso   1.000  C
  C118     1.0000 0.38160  0.54640  0.99600  Biso   1.000  C
  H125     1.0000 0.61600  0.48450  0.96790  Biso   1.000  H
  H126     1.0000 0.38400  0.51550  0.03210  Biso   1.000  H
  C119     1.0000 0.44680  0.26740  0.03070  Biso   1.000  C
  C120     1.0000 0.55320  0.73260  0.96930  Biso   1.000  C
  C121     1.0000 0.44960  0.19150  0.05120  Biso   1.000  C
  C122     1.0000 0.55040  0.80850  0.94880  Biso   1.000  C
  H127     1.0000 0.50990  0.18410  0.07380  Biso   1.000  H
  H128     1.0000 0.49010  0.81590  0.92620  Biso   1.000  H
  C123     1.0000 0.36350  0.12650  0.03820  Biso   1.000  C
  C124     1.0000 0.63650  0.87350  0.96180  Biso   1.000  C
  H129     1.0000 0.36680  0.07540  0.05290  Biso   1.000  H
  H130     1.0000 0.63320  0.92460  0.94710  Biso   1.000  H
  C125     1.0000 0.27430  0.20880  0.99250  Biso   1.000  C
  C126     1.0000 0.72570  0.79120  0.00750  Biso   1.000  C
  H131     1.0000 0.21340  0.21750  0.97470  Biso   1.000  H
  H132     1.0000 0.78660  0.78250  0.02530  Biso   1.000  H
  C127     1.0000 0.35670  0.27650  0.00300  Biso   1.000  C
  C128     1.0000 0.64330  0.72350  0.99700  Biso   1.000  C
  H133     1.0000 0.35130  0.32920  0.99120  Biso   1.000  H
  H134     1.0000 0.64870  0.67080  0.00880  Biso   1.000  H
  O25      1.0000 0.40400  0.61130  0.63920  Biso   1.000  O
  O26      1.0000 0.59600  0.38870  0.36080  Biso   1.000  O
  C129     1.0000 0.46660  0.66140  0.72730  Biso   1.000  C
  C130     1.0000 0.53340  0.33860  0.27270  Biso   1.000  C
  H135     1.0000 0.45850  0.61930  0.75580  Biso   1.000  H
  H136     1.0000 0.54150  0.38070  0.24420  Biso   1.000  H
  H137     1.0000 0.45080  0.71990  0.75830  Biso   1.000  H
  H138     1.0000 0.54920  0.28010  0.24170  Biso   1.000  H
  C131     1.0000 0.56470  0.68780  0.72890  Biso   1.000  C
  C132     1.0000 0.43530  0.31220  0.27110  Biso   1.000  C
  H139     1.0000 0.61060  0.69050  0.78010  Biso   1.000  H
  H140     1.0000 0.38940  0.30950  0.21990  Biso   1.000  H
  H141     1.0000 0.58390  0.75080  0.72810  Biso   1.000  H
  H142     1.0000 0.41610  0.24920  0.27190  Biso   1.000  H
  C133     1.0000 0.55960  0.60550  0.64590  Biso   1.000  C
  C134     1.0000 0.44040  0.39450  0.35410  Biso   1.000  C
  H143     1.0000 0.60000  0.63070  0.61780  Biso   1.000  H
  H144     1.0000 0.40000  0.36930  0.38220  Biso   1.000  H
  H145     1.0000 0.58370  0.55710  0.65860  Biso   1.000  H
  H146     1.0000 0.41630  0.44290  0.34140  Biso   1.000  H
  C135     1.0000 0.46270  0.56370  0.59200  Biso   1.000  C
  C136     1.0000 0.53730  0.43630  0.40800  Biso   1.000  C
  H147     1.0000 0.44090  0.49370  0.57510  Biso   1.000  H
  H148     1.0000 0.55910  0.50630  0.42490  Biso   1.000  H
  H149     1.0000 0.45520  0.57210  0.53920  Biso   1.000  H
  H150     1.0000 0.54480  0.42790  0.46080  Biso   1.000  H
  O27      1.0000 0.72630  0.05750  0.46560  Biso   1.000  O
  O28      1.0000 0.27370  0.94250  0.53440  Biso   1.000  O
  C137     1.0000 0.78970  0.05380  0.59650  Biso   1.000  C
  C138     1.0000 0.21030  0.94620  0.40350  Biso   1.000  C
  H151     1.0000 0.82860  0.01140  0.60160  Biso   1.000  H
  H152     1.0000 0.17140  0.98860  0.39840  Biso   1.000  H
  H153     1.0000 0.76410  0.07140  0.64460  Biso   1.000  H
  H154     1.0000 0.23590  0.92860  0.35540  Biso   1.000  H
  C139     1.0000 0.71030  0.00510  0.51350  Biso   1.000  C
  C140     1.0000 0.28970  0.99490  0.48650  Biso   1.000  C
  H155     1.0000 0.70880  0.93790  0.48150  Biso   1.000  H
  H156     1.0000 0.29120  0.06210  0.51850  Biso   1.000  H
  H157     1.0000 0.64760  0.00360  0.52260  Biso   1.000  H
  H158     1.0000 0.35240  0.99640  0.47740  Biso   1.000  H
  C141     1.0000 0.84890  0.14070  0.59810  Biso   1.000  C
  C142     1.0000 0.15110  0.85930  0.40190  Biso   1.000  C
  H159     1.0000 0.91870  0.15190  0.62440  Biso   1.000  H
  H160     1.0000 0.08130  0.84810  0.37560  Biso   1.000  H
  H161     1.0000 0.83290  0.19810  0.63160  Biso   1.000  H
  H162     1.0000 0.16710  0.80190  0.36840  Biso   1.000  H
  C143     1.0000 0.82490  0.12180  0.50690  Biso   1.000  C
  C144     1.0000 0.17510  0.87820  0.49310  Biso   1.000  C
  H163     1.0000 0.83010  0.18250  0.50180  Biso   1.000  H
  H164     1.0000 0.16990  0.81750  0.49820  Biso   1.000  H
  H165     1.0000 0.86870  0.09110  0.48110  Biso   1.000  H
  H166     1.0000 0.13130  0.90890  0.51890  Biso   1.000  H
  O29      1.0000 0.71690  0.08170  0.48440  Biso   1.000  O
  O30      1.0000 0.28310  0.91830  0.51560  Biso   1.000  O
  C145     1.0000 0.87140  0.09600  0.56340  Biso   1.000  C
  C146     1.0000 0.12860  0.90400  0.43660  Biso   1.000  C
  H167     1.0000 0.91560  0.06680  0.53660  Biso   1.000  H
  H168     1.0000 0.08440  0.93320  0.46340  Biso   1.000  H
  H169     1.0000 0.91050  0.14830  0.62170  Biso   1.000  H
  H170     1.0000 0.08950  0.85170  0.37830  Biso   1.000  H
  C147     1.0000 0.70570  0.03000  0.53290  Biso   1.000  C
  C148     1.0000 0.29430  0.97000  0.46710  Biso   1.000  C
  H171     1.0000 0.65820  0.96480  0.49560  Biso   1.000  H
  H172     1.0000 0.34180  0.03520  0.50440  Biso   1.000  H
  H173     1.0000 0.68280  0.06460  0.57990  Biso   1.000  H
  H174     1.0000 0.31720  0.93540  0.42010  Biso   1.000  H
  C149     1.0000 0.80260  0.02400  0.56870  Biso   1.000  C
  C150     1.0000 0.19740  0.97600  0.43130  Biso   1.000  C
  H175     1.0000 0.81590  0.03660  0.62940  Biso   1.000  H
  H176     1.0000 0.18410  0.96340  0.37060  Biso   1.000  H
  H177     1.0000 0.80560  0.95940  0.53520  Biso   1.000  H
  H178     1.0000 0.19440  0.04060  0.46480  Biso   1.000  H
  C151     1.0000 0.81720  0.13300  0.51000  Biso   1.000  C
  C152     1.0000 0.18280  0.86700  0.49000  Biso   1.000  C
  H179     1.0000 0.83010  0.20330  0.54430  Biso   1.000  H
  H180     1.0000 0.16990  0.79670  0.45570  Biso   1.000  H
  H181     1.0000 0.83690  0.12290  0.45930  Biso   1.000  H
  H182     1.0000 0.16310  0.87710  0.54070  Biso   1.000  H
  O31      1.0000 0.61780  0.14100  0.17750  Biso   1.000  O
  O32      1.0000 0.38220  0.85900  0.82250  Biso   1.000  O
  C153     1.0000 0.62230  0.14350  0.25840  Biso   1.000  C
  C154     1.0000 0.37770  0.85650  0.74160  Biso   1.000  C
  H183     1.0000 0.55690  0.11550  0.25790  Biso   1.000  H
  H184     1.0000 0.44310  0.88450  0.74210  Biso   1.000  H
  H185     1.0000 0.65090  0.21070  0.30490  Biso   1.000  H
  H186     1.0000 0.34910  0.78930  0.69510  Biso   1.000  H
  C155     1.0000 0.68690  0.08290  0.27170  Biso   1.000  C
  C156     1.0000 0.31310  0.91710  0.72830  Biso   1.000  C
  H187     1.0000 0.75630  0.12200  0.29700  Biso   1.000  H
  H188     1.0000 0.24370  0.87800  0.70300  Biso   1.000  H
  H189     1.0000 0.67100  0.05460  0.30940  Biso   1.000  H
  H190     1.0000 0.32900  0.94540  0.69060  Biso   1.000  H
  C157     1.0000 0.66340  0.00910  0.18540  Biso   1.000  C
  C158     1.0000 0.33660  0.99090  0.81460  Biso   1.000  C
  H191     1.0000 0.60950  0.95170  0.17120  Biso   1.000  H
  H192     1.0000 0.39050  0.04830  0.82880  Biso   1.000  H
  H193     1.0000 0.72030  0.98930  0.17700  Biso   1.000  H
  H194     1.0000 0.27970  0.01070  0.82300  Biso   1.000  H
  C159     1.0000 0.63330  0.06080  0.13080  Biso   1.000  C
  C160     1.0000 0.36670  0.93920  0.86920  Biso   1.000  C
  H195     1.0000 0.68500  0.07700  0.10810  Biso   1.000  H
  H196     1.0000 0.31500  0.92300  0.89190  Biso   1.000  H
  H197     1.0000 0.57350  0.01710  0.08120  Biso   1.000  H
  H198     1.0000 0.42650  0.98290  0.91880  Biso   1.000  H
  O33      1.0000 0.61600  0.08060  0.70450  Biso   1.000  O
  O34      1.0000 0.38400  0.91940  0.29550  Biso   1.000  O
  C161     1.0000 0.51570  0.06930  0.68020  Biso   1.000  C
  C162     1.0000 0.48430  0.93070  0.31980  Biso   1.000  C
  H199     1.0000 0.48160  0.02050  0.69450  Biso   1.000  H
  H200     1.0000 0.51840  0.97950  0.30550  Biso   1.000  H
  H201     1.0000 0.48820  0.04630  0.61720  Biso   1.000  H
  H202     1.0000 0.51180  0.95370  0.38280  Biso   1.000  H
  C163     1.0000 0.50210  0.15960  0.72480  Biso   1.000  C
  C164     1.0000 0.49790  0.84040  0.27520  Biso   1.000  C
  H203     1.0000 0.46840  0.15630  0.76550  Biso   1.000  H
  H204     1.0000 0.53160  0.84370  0.23450  Biso   1.000  H
  H205     1.0000 0.46290  0.17670  0.68350  Biso   1.000  H
  H206     1.0000 0.53710  0.82330  0.31650  Biso   1.000  H
  C165     1.0000 0.60130  0.23300  0.77250  Biso   1.000  C
  C166     1.0000 0.39870  0.76700  0.22750  Biso   1.000  C
  H207     1.0000 0.60420  0.29160  0.76430  Biso   1.000  H
  H208     1.0000 0.39580  0.70840  0.23570  Biso   1.000  H
  H209     1.0000 0.62120  0.25140  0.83490  Biso   1.000  H
  H210     1.0000 0.37880  0.74860  0.16510  Biso   1.000  H
  C167     1.0000 0.66270  0.18130  0.73240  Biso   1.000  C
  C168     1.0000 0.33730  0.81870  0.26760  Biso   1.000  C
  H211     1.0000 0.66780  0.19280  0.68270  Biso   1.000  H
  H212     1.0000 0.33220  0.80720  0.31730  Biso   1.000  H
  H213     1.0000 0.72860  0.20350  0.77460  Biso   1.000  H
  H214     1.0000 0.27140  0.79650  0.22540  Biso   1.000  H
  O35      1.0000 0.50470  0.22670  0.55710  Biso   1.000  O
  O36      1.0000 0.49530  0.77330  0.44290  Biso   1.000  O
  C169     1.0000 0.55200  0.32150  0.56820  Biso   1.000  C
  C170     1.0000 0.44800  0.67850  0.43180  Biso   1.000  C
  C171     1.0000 0.63500  0.31010  0.53640  Biso   1.000  C
  C172     1.0000 0.36500  0.68990  0.46360  Biso   1.000  C
  C173     1.0000 0.58700  0.21330  0.45890  Biso   1.000  C
  C174     1.0000 0.41300  0.78670  0.54110  Biso   1.000  C
  C175     1.0000 0.52660  0.15890  0.49100  Biso   1.000  C
  C176     1.0000 0.47340  0.84110  0.50900  Biso   1.000  C
  O37      1.0000 0.56350  0.31040  0.58680  Biso   1.000  O
  O38      1.0000 0.43650  0.68960  0.41320  Biso   1.000  O
  C177     1.0000 0.65800  0.33690  0.58060  Biso   1.000  C
  C178     1.0000 0.34200  0.66310  0.41940  Biso   1.000  C
  C179     1.0000 0.65010  0.27580  0.49210  Biso   1.000  C
  C180     1.0000 0.34990  0.72420  0.50790  Biso   1.000  C
  C181     1.0000 0.56270  0.19130  0.46090  Biso   1.000  C
  C182     1.0000 0.43730  0.80870  0.53910  Biso   1.000  C
  C183     1.0000 0.51900  0.21090  0.52990  Biso   1.000  C
  C184     1.0000 0.48100  0.78910  0.47010  Biso   1.000  C
