data_image0
_cell_length_a       7.6784
_cell_length_b       10.039
_cell_length_c       20.341
_cell_angle_alpha    80.473
_cell_angle_beta     87.111
_cell_angle_gamma    78.902

_symmetry_space_group_name_H-M    "P 1"
_symmetry_int_tables_number       1

loop_
  _symmetry_equiv_pos_as_xyz
  'x, y, z'

loop_
  _atom_site_label
  _atom_site_occupancy
  _atom_site_fract_x
  _atom_site_fract_y
  _atom_site_fract_z
  _atom_site_thermal_displace_type
  _atom_site_B_iso_or_equiv
  _atom_site_type_symbol
  Gd1      1.0000 0.81010  0.82700  0.71995  Biso   1.000  Gd
  Gd2      1.0000 0.18990  0.17300  0.28005  Biso   1.000  Gd
  Cu1      1.0000 0.63111  0.48241  0.08302  Biso   1.000  Cu
  Cu2      1.0000 0.36889  0.51759  0.91698  Biso   1.000  Cu
  Cu3      1.0000 0.00000  0.50000  0.50000  Biso   1.000  Cu
  O1       1.0000 0.67060  0.65370  0.03080  Biso   1.000  O
  O2       1.0000 0.32940  0.34630  0.96920  Biso   1.000  O
  O3       1.0000 0.82290  0.73710  0.94270  Biso   1.000  O
  O4       1.0000 0.17710  0.26290  0.05730  Biso   1.000  O
  O5       1.0000 0.85930  0.63070  0.80960  Biso   1.000  O
  O6       1.0000 0.14070  0.36930  0.19040  Biso   1.000  O
  O7       1.0000 0.13370  0.57450  0.84930  Biso   1.000  O
  O8       1.0000 0.86630  0.42550  0.15070  Biso   1.000  O
  O9       1.0000 0.44220  0.68280  0.86950  Biso   1.000  O
  O10      1.0000 0.55780  0.31720  0.13050  Biso   1.000  O
  O11      1.0000 0.53310  0.77350  0.76950  Biso   1.000  O
  O12      1.0000 0.46690  0.22650  0.23050  Biso   1.000  O
  O13      1.0000 0.74740  0.65860  0.66720  Biso   1.000  O
  O14      1.0000 0.25260  0.34140  0.33280  Biso   1.000  O
  O15      1.0000 0.51290  0.60550  0.62720  Biso   1.000  O
  O16      1.0000 0.48710  0.39450  0.37280  Biso   1.000  O
  O17      1.0000 0.93540  0.03360  0.70000  Biso   1.000  O
  O18      1.0000 0.06460  0.96640  0.30000  Biso   1.000  O
  O19      1.0000 0.23030  0.97770  0.69240  Biso   1.000  O
  O20      1.0000 0.76970  0.02230  0.30760  Biso   1.000  O
  O21      1.0000 0.03510  0.10050  0.55090  Biso   1.000  O
  O22      1.0000 0.96490  0.89950  0.44910  Biso   1.000  O
  O23      1.0000 0.00300  0.31000  0.49180  Biso   1.000  O
  O24      1.0000 0.99700  0.69000  0.50820  Biso   1.000  O
  O25      1.0000 0.82930  0.91080  0.82420  Biso   1.000  O
  O26      1.0000 0.17070  0.08920  0.17580  Biso   1.000  O
  H1       1.0000 0.90650  0.95880  0.82510  Biso   1.000  H
  H2       1.0000 0.09350  0.04120  0.17490  Biso   1.000  H
  H3       1.0000 0.73180  0.93080  0.84400  Biso   1.000  H
  H4       1.0000 0.26820  0.06920  0.15600  Biso   1.000  H
  O27      1.0000 0.12110  0.74030  0.72740  Biso   1.000  O
  O28      1.0000 0.87890  0.25970  0.27260  Biso   1.000  O
  H5       1.0000 0.17300  0.80770  0.72310  Biso   1.000  H
  H6       1.0000 0.82700  0.19230  0.27690  Biso   1.000  H
  H7       1.0000 0.15000  0.67860  0.76040  Biso   1.000  H
  H8       1.0000 0.85000  0.32140  0.23960  Biso   1.000  H
  O29      1.0000 0.57000  0.00900  0.68240  Biso   1.000  O
  O30      1.0000 0.43000  0.99100  0.31760  Biso   1.000  O
  H9       1.0000 0.46620  0.99330  0.68400  Biso   1.000  H
  H10      1.0000 0.53380  0.00670  0.31600  Biso   1.000  H
  H11      1.0000 0.58900  0.06810  0.65680  Biso   1.000  H
  H12      1.0000 0.41100  0.93190  0.34320  Biso   1.000  H
  O31      1.0000 0.90560  0.86850  0.60632  Biso   1.000  O
  O32      1.0000 0.09440  0.13150  0.39368  Biso   1.000  O
  H13      1.0000 0.89030  0.81840  0.57880  Biso   1.000  H
  H14      1.0000 0.10970  0.18160  0.42120  Biso   1.000  H
  H15      1.0000 0.96000  0.93300  0.59270  Biso   1.000  H
  H16      1.0000 0.04000  0.06700  0.40730  Biso   1.000  H
  O33      1.0000 0.61650  0.12690  0.46450  Biso   1.000  O
  O34      1.0000 0.38350  0.87310  0.53550  Biso   1.000  O
  H17      1.0000 0.57640  0.07180  0.44520  Biso   1.000  H
  H18      1.0000 0.42360  0.92820  0.55480  Biso   1.000  H
  H19      1.0000 0.70490  0.15730  0.44660  Biso   1.000  H
  H20      1.0000 0.29510  0.84270  0.55340  Biso   1.000  H
  O35      1.0000 0.32470  0.48170  0.48280  Biso   1.000  O
  O36      1.0000 0.67530  0.51830  0.51720  Biso   1.000  O
  H21      1.0000 0.27220  0.52600  0.44850  Biso   1.000  H
  H22      1.0000 0.72780  0.47400  0.55150  Biso   1.000  H
  H23      1.0000 0.42020  0.50350  0.49160  Biso   1.000  H
  H24      1.0000 0.57980  0.49650  0.50840  Biso   1.000  H
  O37      1.0000 0.56760  0.22420  0.57400  Biso   1.000  O
  O38      1.0000 0.43240  0.77580  0.42600  Biso   1.000  O
  H25      1.0000 0.57800  0.21060  0.53400  Biso   1.000  H
  H26      1.0000 0.42200  0.78940  0.46600  Biso   1.000  H
  H27      1.0000 0.65080  0.20700  0.59400  Biso   1.000  H
  H28      1.0000 0.34920  0.79300  0.40600  Biso   1.000  H
  O39      1.0000 0.80060  0.00220  0.15010  Biso   1.000  O
  O40      1.0000 0.19940  0.99780  0.84990  Biso   1.000  O
  H29      1.0000 0.68920  0.01500  0.14760  Biso   1.000  H
  H30      1.0000 0.31080  0.98500  0.85240  Biso   1.000  H
  H31      1.0000 0.84550  0.06220  0.16370  Biso   1.000  H
  H32      1.0000 0.15450  0.93780  0.83630  Biso   1.000  H
  O41      1.0000 0.68340  0.96490  0.02320  Biso   1.000  O
  O42      1.0000 0.31660  0.03510  0.97680  Biso   1.000  O
  H33      1.0000 0.65500  0.94250  0.98790  Biso   1.000  H
  H34      1.0000 0.34500  0.05750  0.01210  Biso   1.000  H
  H35      1.0000 0.73300  0.90390  0.05300  Biso   1.000  H
  H36      1.0000 0.26700  0.09610  0.94700  Biso   1.000  H
  N1       1.0000 0.74290  0.40580  0.00510  Biso   1.000  N
  N2       1.0000 0.25710  0.59420  0.99490  Biso   1.000  N
  N3       1.0000 0.50030  0.43540  0.84390  Biso   1.000  N
  N4       1.0000 0.49970  0.56460  0.15610  Biso   1.000  N
  N5       1.0000 0.07220  0.42090  0.59220  Biso   1.000  N
  N6       1.0000 0.92780  0.57910  0.40780  Biso   1.000  N
  C1       1.0000 0.76180  0.64320  0.97730  Biso   1.000  C
  C2       1.0000 0.23820  0.35680  0.02270  Biso   1.000  C
  C3       1.0000 0.80840  0.49710  0.95970  Biso   1.000  C
  C4       1.0000 0.19160  0.50290  0.04030  Biso   1.000  C
  C5       1.0000 0.90600  0.46330  0.90440  Biso   1.000  C
  C6       1.0000 0.09400  0.53670  0.09560  Biso   1.000  C
  C7       1.0000 0.97300  0.56760  0.85060  Biso   1.000  C
  C8       1.0000 0.02700  0.43240  0.14940  Biso   1.000  C
  C9       1.0000 0.94230  0.32420  0.89800  Biso   1.000  C
  C10      1.0000 0.05770  0.67580  0.10200  Biso   1.000  C
  H37      1.0000 0.01010  0.29650  0.86170  Biso   1.000  H
  H38      1.0000 0.98990  0.70350  0.13830  Biso   1.000  H
  C11      1.0000 0.88080  0.22860  0.94360  Biso   1.000  C
  C12      1.0000 0.11920  0.77140  0.05640  Biso   1.000  C
  H39      1.0000 0.90690  0.13610  0.93920  Biso   1.000  H
  H40      1.0000 0.09310  0.86390  0.06080  Biso   1.000  H
  C13      1.0000 0.77590  0.27300  0.99790  Biso   1.000  C
  C14      1.0000 0.22410  0.72700  0.00210  Biso   1.000  C
  H41      1.0000 0.72940  0.20930  0.02890  Biso   1.000  H
  H42      1.0000 0.27060  0.79070  0.97110  Biso   1.000  H
  C15      1.0000 0.50310  0.66990  0.81000  Biso   1.000  C
  C16      1.0000 0.49690  0.33010  0.19000  Biso   1.000  C
  C17      1.0000 0.53650  0.53030  0.79180  Biso   1.000  C
  C18      1.0000 0.46350  0.46970  0.20820  Biso   1.000  C
  C19      1.0000 0.59880  0.49490  0.73260  Biso   1.000  C
  C20      1.0000 0.40120  0.50510  0.26740  Biso   1.000  C
  C21      1.0000 0.62950  0.58990  0.67090  Biso   1.000  C
  C22      1.0000 0.37050  0.41010  0.32910  Biso   1.000  C
  C23      1.0000 0.63100  0.35410  0.72790  Biso   1.000  C
  C24      1.0000 0.36900  0.64590  0.27210  Biso   1.000  C
  H43      1.0000 0.67550  0.32580  0.68810  Biso   1.000  H
  H44      1.0000 0.32450  0.67420  0.31190  Biso   1.000  H
  C25      1.0000 0.59850  0.25830  0.78030  Biso   1.000  C
  C26      1.0000 0.40150  0.74170  0.21970  Biso   1.000  C
  H45      1.0000 0.62020  0.16540  0.77660  Biso   1.000  H
  H46      1.0000 0.37980  0.83460  0.22340  Biso   1.000  H
  C27      1.0000 0.53320  0.30120  0.83860  Biso   1.000  C
  C28      1.0000 0.46680  0.69880  0.16140  Biso   1.000  C
  H47      1.0000 0.51130  0.23680  0.87500  Biso   1.000  H
  H48      1.0000 0.48870  0.76320  0.12500  Biso   1.000  H
  C29      1.0000 0.02960  0.22360  0.54650  Biso   1.000  C
  C30      1.0000 0.97040  0.77640  0.45350  Biso   1.000  C
  C31      1.0000 0.06020  0.28480  0.60670  Biso   1.000  C
  C32      1.0000 0.93980  0.71520  0.39330  Biso   1.000  C
  C33      1.0000 0.09980  0.21140  0.66870  Biso   1.000  C
  C34      1.0000 0.90020  0.78860  0.33130  Biso   1.000  C
  C35      1.0000 0.08710  0.06130  0.68790  Biso   1.000  C
  C36      1.0000 0.91290  0.93870  0.31210  Biso   1.000  C
  C37      1.0000 0.14960  0.27960  0.71560  Biso   1.000  C
  C38      1.0000 0.85040  0.72040  0.28440  Biso   1.000  C
  H49      1.0000 0.17630  0.23190  0.75810  Biso   1.000  H
  H50      1.0000 0.82370  0.76810  0.24190  Biso   1.000  H
  C39      1.0000 0.16120  0.41460  0.70170  Biso   1.000  C
  C40      1.0000 0.83880  0.58540  0.29830  Biso   1.000  C
  H51      1.0000 0.20090  0.45790  0.73360  Biso   1.000  H
  H52      1.0000 0.79910  0.54210  0.26640  Biso   1.000  H
  C41      1.0000 0.11230  0.48700  0.63880  Biso   1.000  C
  C42      1.0000 0.88770  0.51300  0.36120  Biso   1.000  C
  H53      1.0000 0.10790  0.58150  0.62960  Biso   1.000  H
  H54      1.0000 0.89210  0.41850  0.37040  Biso   1.000  H
