data_image0
_cell_length_a       7.717
_cell_length_b       10.129
_cell_length_c       20.476
_cell_angle_alpha    80.309
_cell_angle_beta     88.798
_cell_angle_gamma    79.428

_symmetry_space_group_name_H-M    "P 1"
_symmetry_int_tables_number       1

loop_
  _symmetry_equiv_pos_as_xyz
  'x, y, z'

loop_
  _atom_site_label
  _atom_site_occupancy
  _atom_site_fract_x
  _atom_site_fract_y
  _atom_site_fract_z
  _atom_site_thermal_displace_type
  _atom_site_B_iso_or_equiv
  _atom_site_type_symbol
  Sm1      1.0000 0.78627  0.82436  0.71953  Biso   1.000  Sm
  Sm2      1.0000 0.21373  0.17564  0.28047  Biso   1.000  Sm
  Cu1      1.0000 0.63847  0.48655  0.08494  Biso   1.000  Cu
  Cu2      1.0000 0.36153  0.51345  0.91506  Biso   1.000  Cu
  Cu3      1.0000 0.00000  0.50000  0.50000  Biso   1.000  Cu
  O1       1.0000 0.67460  0.65550  0.03078  Biso   1.000  O
  O2       1.0000 0.32540  0.34450  0.96922  Biso   1.000  O
  O3       1.0000 0.81850  0.73640  0.94222  Biso   1.000  O
  O4       1.0000 0.18150  0.26360  0.05778  Biso   1.000  O
  O5       1.0000 0.84110  0.63060  0.81069  Biso   1.000  O
  O6       1.0000 0.15890  0.36940  0.18931  Biso   1.000  O
  O7       1.0000 0.11580  0.57090  0.84908  Biso   1.000  O
  O8       1.0000 0.88420  0.42910  0.15092  Biso   1.000  O
  O9       1.0000 0.43060  0.67830  0.86551  Biso   1.000  O
  O10      1.0000 0.56940  0.32170  0.13449  Biso   1.000  O
  O11      1.0000 0.50960  0.76550  0.76583  Biso   1.000  O
  O12      1.0000 0.49040  0.23450  0.23417  Biso   1.000  O
  O13      1.0000 0.72600  0.65260  0.66674  Biso   1.000  O
  O14      1.0000 0.27400  0.34740  0.33326  Biso   1.000  O
  O15      1.0000 0.50380  0.58750  0.62320  Biso   1.000  O
  O16      1.0000 0.49620  0.41250  0.37680  Biso   1.000  O
  O17      1.0000 0.91280  0.03140  0.69972  Biso   1.000  O
  O18      1.0000 0.08720  0.96860  0.30028  Biso   1.000  O
  O19      1.0000 0.20270  0.97390  0.68700  Biso   1.000  O
  O20      1.0000 0.79730  0.02610  0.31300  Biso   1.000  O
  O21      1.0000 0.99870  0.10710  0.55005  Biso   1.000  O
  O22      1.0000 0.00130  0.89290  0.44995  Biso   1.000  O
  O23      1.0000 0.99190  0.31300  0.49098  Biso   1.000  O
  O24      1.0000 0.00810  0.68700  0.50902  Biso   1.000  O
  O25      1.0000 0.81450  0.91000  0.82420  Biso   1.000  O
  O26      1.0000 0.18550  0.09000  0.17580  Biso   1.000  O
  H1       1.0000 0.88330  0.96620  0.82020  Biso   1.000  H
  H2       1.0000 0.11670  0.03380  0.17980  Biso   1.000  H
  H3       1.0000 0.71270  0.93510  0.83880  Biso   1.000  H
  H4       1.0000 0.28730  0.06490  0.16120  Biso   1.000  H
  O27      1.0000 0.10100  0.73620  0.72711  Biso   1.000  O
  O28      1.0000 0.89900  0.26380  0.27289  Biso   1.000  O
  H5       1.0000 0.14870  0.80450  0.71550  Biso   1.000  H
  H6       1.0000 0.85130  0.19550  0.28450  Biso   1.000  H
  H7       1.0000 0.12500  0.69200  0.76530  Biso   1.000  H
  H8       1.0000 0.87500  0.30800  0.23470  Biso   1.000  H
  O29      1.0000 0.54370  0.00680  0.67994  Biso   1.000  O
  O30      1.0000 0.45630  0.99320  0.32006  Biso   1.000  O
  H9       1.0000 0.43920  0.99670  0.68780  Biso   1.000  H
  H10      1.0000 0.56080  0.00330  0.31220  Biso   1.000  H
  H11      1.0000 0.55790  0.06840  0.64830  Biso   1.000  H
  H12      1.0000 0.44210  0.93160  0.35170  Biso   1.000  H
  O31      1.0000 0.87620  0.87050  0.60389  Biso   1.000  O
  O32      1.0000 0.12380  0.12950  0.39611  Biso   1.000  O
  H13      1.0000 0.85000  0.82160  0.57760  Biso   1.000  H
  H14      1.0000 0.15000  0.17840  0.42240  Biso   1.000  H
  H15      1.0000 0.88900  0.94980  0.58720  Biso   1.000  H
  H16      1.0000 0.11100  0.05020  0.41280  Biso   1.000  H
  O33      1.0000 0.70450  0.13660  0.44690  Biso   1.000  O
  O34      1.0000 0.29550  0.86340  0.55310  Biso   1.000  O
  H17      1.0000 0.60670  0.14700  0.46570  Biso   1.000  H
  H18      1.0000 0.39330  0.85300  0.53430  Biso   1.000  H
  H19      1.0000 0.73230  0.20310  0.42160  Biso   1.000  H
  H20      1.0000 0.26770  0.79690  0.57840  Biso   1.000  H
  O35      1.0000 0.66620  0.53470  0.50900  Biso   1.000  O
  O36      1.0000 0.33380  0.46530  0.49100  Biso   1.000  O
  H21      1.0000 0.66000  0.61850  0.50860  Biso   1.000  H
  H22      1.0000 0.34000  0.38150  0.49140  Biso   1.000  H
  H23      1.0000 0.57290  0.50900  0.50040  Biso   1.000  H
  H24      1.0000 0.42710  0.49100  0.49960  Biso   1.000  H
  O37      1.0000 0.54080  0.22620  0.57860  Biso   1.000  O
  O38      1.0000 0.45920  0.77380  0.42140  Biso   1.000  O
  H25      1.0000 0.54200  0.18690  0.54550  Biso   1.000  H
  H26      1.0000 0.45800  0.81310  0.45450  Biso   1.000  H
  H27      1.0000 0.63840  0.23730  0.59190  Biso   1.000  H
  H28      1.0000 0.36160  0.76270  0.40810  Biso   1.000  H
  O39      1.0000 0.78330  0.98810  0.14029  Biso   1.000  O
  O40      1.0000 0.21670  0.01190  0.85971  Biso   1.000  O
  H29      1.0000 0.67450  0.00100  0.14490  Biso   1.000  H
  H30      1.0000 0.32550  0.99900  0.85510  Biso   1.000  H
  H31      1.0000 0.85040  0.02240  0.16050  Biso   1.000  H
  H32      1.0000 0.14960  0.97760  0.83950  Biso   1.000  H
  O41      1.0000 0.69290  0.96020  0.03090  Biso   1.000  O
  O42      1.0000 0.30710  0.03980  0.96910  Biso   1.000  O
  H33      1.0000 0.64890  0.97500  0.99250  Biso   1.000  H
  H34      1.0000 0.35110  0.02500  0.00750  Biso   1.000  H
  H35      1.0000 0.79620  0.91590  0.03550  Biso   1.000  H
  H36      1.0000 0.20380  0.08410  0.96450  Biso   1.000  H
  N1       1.0000 0.74150  0.40730  0.00817  Biso   1.000  N
  N2       1.0000 0.25850  0.59270  0.99183  Biso   1.000  N
  N3       1.0000 0.48690  0.42970  0.84330  Biso   1.000  N
  N4       1.0000 0.51310  0.57030  0.15670  Biso   1.000  N
  N5       1.0000 0.05000  0.41990  0.59340  Biso   1.000  N
  N6       1.0000 0.95000  0.58010  0.40660  Biso   1.000  N
  C1       1.0000 0.76310  0.64350  0.97820  Biso   1.000  C
  C2       1.0000 0.23690  0.35650  0.02180  Biso   1.000  C
  C3       1.0000 0.80140  0.50110  0.96140  Biso   1.000  C
  C4       1.0000 0.19860  0.49890  0.03860  Biso   1.000  C
  C5       1.0000 0.89470  0.46350  0.90630  Biso   1.000  C
  C6       1.0000 0.10530  0.53650  0.09370  Biso   1.000  C
  C7       1.0000 0.95500  0.56480  0.85220  Biso   1.000  C
  C8       1.0000 0.04500  0.43520  0.14780  Biso   1.000  C
  C9       1.0000 0.92640  0.32680  0.90160  Biso   1.000  C
  C10      1.0000 0.07360  0.67320  0.09840  Biso   1.000  C
  H37      1.0000 0.99130  0.29820  0.86610  Biso   1.000  H
  H38      1.0000 0.00870  0.70180  0.13390  Biso   1.000  H
  C11      1.0000 0.86450  0.23110  0.94820  Biso   1.000  C
  C12      1.0000 0.13550  0.76890  0.05180  Biso   1.000  C
  H39      1.0000 0.88480  0.13940  0.94420  Biso   1.000  H
  H40      1.0000 0.11520  0.86060  0.05580  Biso   1.000  H
  C13      1.0000 0.77100  0.27730  0.00100  Biso   1.000  C
  C14      1.0000 0.22900  0.72270  0.99900  Biso   1.000  C
  H41      1.0000 0.72740  0.21480  0.03260  Biso   1.000  H
  H42      1.0000 0.27260  0.78520  0.96740  Biso   1.000  H
  C15      1.0000 0.48540  0.66600  0.80780  Biso   1.000  C
  C16      1.0000 0.51460  0.33400  0.19220  Biso   1.000  C
  C17      1.0000 0.52140  0.52330  0.79170  Biso   1.000  C
  C18      1.0000 0.47860  0.47670  0.20830  Biso   1.000  C
  C19      1.0000 0.57850  0.48590  0.73190  Biso   1.000  C
  C20      1.0000 0.42150  0.51410  0.26810  Biso   1.000  C
  C21      1.0000 0.60300  0.58520  0.66960  Biso   1.000  C
  C22      1.0000 0.39700  0.41480  0.33040  Biso   1.000  C
  C23      1.0000 0.60830  0.35000  0.72740  Biso   1.000  C
  C24      1.0000 0.39170  0.65000  0.27260  Biso   1.000  C
  H43      1.0000 0.64670  0.32250  0.68760  Biso   1.000  H
  H44      1.0000 0.35330  0.67750  0.31240  Biso   1.000  H
  C25      1.0000 0.58200  0.25330  0.78120  Biso   1.000  C
  C26      1.0000 0.41800  0.74670  0.21880  Biso   1.000  C
  H45      1.0000 0.60800  0.16080  0.77910  Biso   1.000  H
  H46      1.0000 0.39200  0.83920  0.22090  Biso   1.000  H
  C27      1.0000 0.51670  0.29840  0.83740  Biso   1.000  C
  C28      1.0000 0.48330  0.70160  0.16260  Biso   1.000  C
  H47      1.0000 0.49190  0.23500  0.87310  Biso   1.000  H
  H48      1.0000 0.50810  0.76500  0.12690  Biso   1.000  H
  C29      1.0000 0.00730  0.22810  0.54540  Biso   1.000  C
  C30      1.0000 0.99270  0.77190  0.45460  Biso   1.000  C
  C31      1.0000 0.04330  0.28420  0.60640  Biso   1.000  C
  C32      1.0000 0.95670  0.71580  0.39360  Biso   1.000  C
  C33      1.0000 0.07410  0.20790  0.66930  Biso   1.000  C
  C34      1.0000 0.92590  0.79210  0.33070  Biso   1.000  C
  C35      1.0000 0.06130  0.05880  0.68580  Biso   1.000  C
  C36      1.0000 0.93870  0.94120  0.31420  Biso   1.000  C
  C37      1.0000 0.12300  0.27390  0.71870  Biso   1.000  C
  C38      1.0000 0.87700  0.72610  0.28130  Biso   1.000  C
  H49      1.0000 0.14900  0.22550  0.76110  Biso   1.000  H
  H50      1.0000 0.85100  0.77450  0.23890  Biso   1.000  H
  C39      1.0000 0.13320  0.41010  0.70510  Biso   1.000  C
  C40      1.0000 0.86680  0.58990  0.29490  Biso   1.000  C
  H51      1.0000 0.16420  0.45440  0.73820  Biso   1.000  H
  H52      1.0000 0.83580  0.54560  0.26180  Biso   1.000  H
  C41      1.0000 0.09650  0.47910  0.64170  Biso   1.000  C
  C42      1.0000 0.90350  0.52090  0.35830  Biso   1.000  C
  H53      1.0000 0.10470  0.57080  0.63230  Biso   1.000  H
  H54      1.0000 0.89530  0.42920  0.36770  Biso   1.000  H
