data_image0
_cell_length_a       12.571
_cell_length_b       13.202
_cell_length_c       19.105
_cell_angle_alpha    109.55
_cell_angle_beta     100.89
_cell_angle_gamma    102.37

_symmetry_space_group_name_H-M    "P 1"
_symmetry_int_tables_number       1

loop_
  _symmetry_equiv_pos_as_xyz
  'x, y, z'

loop_
  _atom_site_label
  _atom_site_occupancy
  _atom_site_fract_x
  _atom_site_fract_y
  _atom_site_fract_z
  _atom_site_thermal_displace_type
  _atom_site_B_iso_or_equiv
  _atom_site_type_symbol
  Cu1      1.0000 0.58395  0.78405  0.30740  Biso   1.000  Cu
  Cu2      1.0000 0.41605  0.21595  0.69260  Biso   1.000  Cu
  Cu3      1.0000 0.22022  0.41876  0.45048  Biso   1.000  Cu
  Cu4      1.0000 0.77978  0.58124  0.54952  Biso   1.000  Cu
  Cu5      1.0000 0.56197  0.98247  0.92797  Biso   1.000  Cu
  Cu6      1.0000 0.43803  0.01753  0.07203  Biso   1.000  Cu
  O1       1.0000 0.61900  0.92730  0.39310  Biso   1.000  O
  O2       1.0000 0.38100  0.07270  0.60690  Biso   1.000  O
  O3       1.0000 0.71630  0.75230  0.35300  Biso   1.000  O
  O4       1.0000 0.28370  0.24770  0.64700  Biso   1.000  O
  O5       1.0000 0.11400  0.50510  0.45030  Biso   1.000  O
  O6       1.0000 0.88600  0.49490  0.54970  Biso   1.000  O
  O7       1.0000 0.30590  0.51180  0.55810  Biso   1.000  O
  O8       1.0000 0.69410  0.48820  0.44190  Biso   1.000  O
  O9       1.0000 0.31810  0.32270  0.45270  Biso   1.000  O
  O10      1.0000 0.68190  0.67730  0.54730  Biso   1.000  O
  O11      1.0000 0.12160  0.31540  0.34980  Biso   1.000  O
  O12      1.0000 0.87840  0.68460  0.65020  Biso   1.000  O
  O13      1.0000 0.69820  0.03740  0.01150  Biso   1.000  O
  O14      1.0000 0.30180  0.96260  0.98850  Biso   1.000  O
  O15      1.0000 0.59860  0.85390  0.86950  Biso   1.000  O
  O16      1.0000 0.40140  0.14610  0.13050  Biso   1.000  O
  O17      1.0000 0.43800  0.94270  0.83590  Biso   1.000  O
  O18      1.0000 0.56200  0.05730  0.16410  Biso   1.000  O
  O19      1.0000 0.52530  0.11580  0.98400  Biso   1.000  O
  O20      1.0000 0.47470  0.88420  0.01600  Biso   1.000  O
  O21      1.0000 0.56830  0.65650  0.21500  Biso   1.000  O
  O22      1.0000 0.43170  0.34350  0.78500  Biso   1.000  O
  O23      1.0000 0.46150  0.82400  0.25680  Biso   1.000  O
  O24      1.0000 0.53850  0.17600  0.74320  Biso   1.000  O
  C1       1.0000 0.80910  0.13650  0.58460  Biso   1.000  C
  C2       1.0000 0.19090  0.86350  0.41540  Biso   1.000  C
  H1       1.0000 0.80490  0.21040  0.61620  Biso   1.000  H
  H2       1.0000 0.19510  0.78960  0.38380  Biso   1.000  H
  H3       1.0000 0.88180  0.14530  0.57220  Biso   1.000  H
  H4       1.0000 0.11820  0.85470  0.42780  Biso   1.000  H
  H5       1.0000 0.80300  0.08760  0.61360  Biso   1.000  H
  H6       1.0000 0.19700  0.91240  0.38640  Biso   1.000  H
  C3       1.0000 0.71170  0.08340  0.50970  Biso   1.000  C
  C4       1.0000 0.28830  0.91660  0.49030  Biso   1.000  C
  H7       1.0000 0.63940  0.07830  0.52370  Biso   1.000  H
  H8       1.0000 0.36060  0.92170  0.47630  Biso   1.000  H
  H9       1.0000 0.71800  0.13540  0.48240  Biso   1.000  H
  H10      1.0000 0.28200  0.86460  0.51760  Biso   1.000  H
  C5       1.0000 0.70410  0.96870  0.45360  Biso   1.000  C
  C6       1.0000 0.29590  0.03130  0.54640  Biso   1.000  C
  C7       1.0000 0.78540  0.91620  0.46840  Biso   1.000  C
  C8       1.0000 0.21460  0.08380  0.53160  Biso   1.000  C
  H11      1.0000 0.84480  0.95500  0.51550  Biso   1.000  H
  H12      1.0000 0.15520  0.04500  0.48450  Biso   1.000  H
  C9       1.0000 0.78690  0.81200  0.42020  Biso   1.000  C
  C10      1.0000 0.21310  0.18800  0.57980  Biso   1.000  C
  C11      1.0000 0.87620  0.75960  0.44420  Biso   1.000  C
  C12      1.0000 0.12380  0.24040  0.55580  Biso   1.000  C
  C13      1.0000 0.95070  0.80520  0.51840  Biso   1.000  C
  C14      1.0000 0.04930  0.19480  0.48160  Biso   1.000  C
  H13      1.0000 0.94780  0.87270  0.55580  Biso   1.000  H
  H14      1.0000 0.05220  0.12730  0.44420  Biso   1.000  H
  C15      1.0000 0.02920  0.75280  0.53840  Biso   1.000  C
  C16      1.0000 0.97080  0.24720  0.46160  Biso   1.000  C
  H15      1.0000 0.07800  0.78360  0.58970  Biso   1.000  H
  H16      1.0000 0.92200  0.21640  0.41030  Biso   1.000  H
  C17      1.0000 0.03720  0.65640  0.48450  Biso   1.000  C
  C18      1.0000 0.96280  0.34360  0.51550  Biso   1.000  C
  C19      1.0000 0.96320  0.61240  0.41160  Biso   1.000  C
  C20      1.0000 0.03680  0.38760  0.58840  Biso   1.000  C
  H17      1.0000 0.96740  0.54600  0.37380  Biso   1.000  H
  H18      1.0000 0.03260  0.45400  0.62620  Biso   1.000  H
  C21      1.0000 0.88290  0.66230  0.39190  Biso   1.000  C
  C22      1.0000 0.11710  0.33770  0.60810  Biso   1.000  C
  H19      1.0000 0.83150  0.62870  0.34130  Biso   1.000  H
  H20      1.0000 0.16850  0.37130  0.65870  Biso   1.000  H
  C23      1.0000 0.12390  0.59860  0.50270  Biso   1.000  C
  C24      1.0000 0.87610  0.40140  0.49730  Biso   1.000  C
  C25      1.0000 0.20870  0.64990  0.57270  Biso   1.000  C
  C26      1.0000 0.79130  0.35010  0.42730  Biso   1.000  C
  H21      1.0000 0.20990  0.72190  0.60670  Biso   1.000  H
  H22      1.0000 0.79010  0.27810  0.39330  Biso   1.000  H
  C27      1.0000 0.29370  0.60420  0.59780  Biso   1.000  C
  C28      1.0000 0.70630  0.39580  0.40220  Biso   1.000  C
  C29      1.0000 0.37400  0.66710  0.67640  Biso   1.000  C
  C30      1.0000 0.62600  0.33290  0.32360  Biso   1.000  C
  H23      1.0000 0.44220  0.64090  0.67980  Biso   1.000  H
  H24      1.0000 0.55780  0.35910  0.32020  Biso   1.000  H
  H25      1.0000 0.39830  0.74860  0.68710  Biso   1.000  H
  H26      1.0000 0.60170  0.25140  0.31290  Biso   1.000  H
  C31      1.0000 0.31880  0.64850  0.73140  Biso   1.000  C
  C32      1.0000 0.68120  0.35150  0.26860  Biso   1.000  C
  H27      1.0000 0.37140  0.68950  0.78360  Biso   1.000  H
  H28      1.0000 0.62860  0.31050  0.21640  Biso   1.000  H
  H29      1.0000 0.29520  0.56770  0.72050  Biso   1.000  H
  H30      1.0000 0.70480  0.43230  0.27950  Biso   1.000  H
  H31      1.0000 0.25200  0.67550  0.72810  Biso   1.000  H
  H32      1.0000 0.74800  0.32450  0.27190  Biso   1.000  H
  C33      1.0000 0.41410  0.08730  0.35940  Biso   1.000  C
  C34      1.0000 0.58590  0.91270  0.64060  Biso   1.000  C
  H33      1.0000 0.47940  0.06600  0.38020  Biso   1.000  H
  H34      1.0000 0.52060  0.93400  0.61980  Biso   1.000  H
  H35      1.0000 0.42640  0.10930  0.31680  Biso   1.000  H
  H36      1.0000 0.57360  0.89070  0.68320  Biso   1.000  H
  H37      1.0000 0.34520  0.02300  0.34040  Biso   1.000  H
  H38      1.0000 0.65480  0.97700  0.65960  Biso   1.000  H
  C35      1.0000 0.40170  0.17690  0.41730  Biso   1.000  C
  C36      1.0000 0.59830  0.82310  0.58270  Biso   1.000  C
  H39      1.0000 0.47460  0.23800  0.43760  Biso   1.000  H
  H40      1.0000 0.52540  0.76200  0.56240  Biso   1.000  H
  H41      1.0000 0.39190  0.15240  0.45990  Biso   1.000  H
  H42      1.0000 0.60810  0.84760  0.54010  Biso   1.000  H
  C37      1.0000 0.30700  0.22940  0.40080  Biso   1.000  C
  C38      1.0000 0.69300  0.77060  0.59920  Biso   1.000  C
  C39      1.0000 0.22070  0.17740  0.33080  Biso   1.000  C
  C40      1.0000 0.77930  0.82260  0.66920  Biso   1.000  C
  H43      1.0000 0.22070  0.10710  0.29520  Biso   1.000  H
  H44      1.0000 0.77930  0.89290  0.70480  Biso   1.000  H
  C41      1.0000 0.13380  0.22230  0.30980  Biso   1.000  C
  C42      1.0000 0.86620  0.77770  0.69020  Biso   1.000  C
  C43      1.0000 0.04390  0.15850  0.23230  Biso   1.000  C
  C44      1.0000 0.95610  0.84150  0.76770  Biso   1.000  C
  C45      1.0000 0.05800  0.07530  0.17220  Biso   1.000  C
  C46      1.0000 0.94200  0.92470  0.82780  Biso   1.000  C
  H45      1.0000 0.12670  0.05580  0.17790  Biso   1.000  H
  H46      1.0000 0.87330  0.94420  0.82210  Biso   1.000  H
  C47      1.0000 0.97330  0.02020  0.10390  Biso   1.000  C
  C48      1.0000 0.02670  0.97980  0.89610  Biso   1.000  C
  H47      1.0000 0.98450  0.96180  0.06330  Biso   1.000  H
  H48      1.0000 0.01550  0.03820  0.93670  Biso   1.000  H
  C49      1.0000 0.86990  0.04640  0.09110  Biso   1.000  C
  C50      1.0000 0.13010  0.95360  0.90890  Biso   1.000  C
  C51      1.0000 0.85930  0.13420  0.15280  Biso   1.000  C
  C52      1.0000 0.14070  0.86580  0.84720  Biso   1.000  C
  H49      1.0000 0.79200  0.15610  0.14710  Biso   1.000  H
  H50      1.0000 0.20800  0.84390  0.85290  Biso   1.000  H
  C53      1.0000 0.94450  0.18940  0.22140  Biso   1.000  C
  C54      1.0000 0.05550  0.81060  0.77860  Biso   1.000  C
  H51      1.0000 0.93550  0.24950  0.26200  Biso   1.000  H
  H52      1.0000 0.06450  0.75050  0.73800  Biso   1.000  H
  C55      1.0000 0.77420  0.98790  0.01780  Biso   1.000  C
  C56      1.0000 0.22580  0.01210  0.98220  Biso   1.000  C
  C57      1.0000 0.77190  0.88480  0.96150  Biso   1.000  C
  C58      1.0000 0.22810  0.11520  0.03850  Biso   1.000  C
  H53      1.0000 0.83150  0.85270  0.97010  Biso   1.000  H
  H54      1.0000 0.16850  0.14730  0.02990  Biso   1.000  H
  C59      1.0000 0.67750  0.82670  0.88900  Biso   1.000  C
  C60      1.0000 0.32250  0.17330  0.11100  Biso   1.000  C
  C61      1.0000 0.77370  0.67610  0.84000  Biso   1.000  C
  C62      1.0000 0.22630  0.32390  0.16000  Biso   1.000  C
  H55      1.0000 0.74760  0.59380  0.82200  Biso   1.000  H
  H56      1.0000 0.25240  0.40620  0.17800  Biso   1.000  H
  H57      1.0000 0.82030  0.70860  0.89410  Biso   1.000  H
  H58      1.0000 0.17970  0.29140  0.10590  Biso   1.000  H
  H59      1.0000 0.81910  0.69730  0.80790  Biso   1.000  H
  H60      1.0000 0.18090  0.30270  0.19210  Biso   1.000  H
  C63      1.0000 0.68300  0.71550  0.83460  Biso   1.000  C
  C64      1.0000 0.31700  0.28450  0.16540  Biso   1.000  C
  H61      1.0000 0.61950  0.65680  0.83500  Biso   1.000  H
  H62      1.0000 0.38050  0.34320  0.16500  Biso   1.000  H
  H63      1.0000 0.66410  0.71640  0.78220  Biso   1.000  H
  H64      1.0000 0.33590  0.28360  0.21780  Biso   1.000  H
  C65      1.0000 0.66200  0.72000  0.81930  Biso   1.000  C
  C66      1.0000 0.33800  0.28000  0.18070  Biso   1.000  C
  H65      1.0000 0.68160  0.73880  0.77640  Biso   1.000  H
  H66      1.0000 0.31840  0.26120  0.22360  Biso   1.000  H
  H67      1.0000 0.58290  0.67040  0.80080  Biso   1.000  H
  H68      1.0000 0.41710  0.32960  0.19920  Biso   1.000  H
  C67      1.0000 0.74700  0.66050  0.84950  Biso   1.000  C
  C68      1.0000 0.25300  0.33950  0.15050  Biso   1.000  C
  H69      1.0000 0.73990  0.58990  0.80760  Biso   1.000  H
  H70      1.0000 0.26010  0.41010  0.19240  Biso   1.000  H
  H71      1.0000 0.72740  0.64440  0.89290  Biso   1.000  H
  H72      1.0000 0.27260  0.35560  0.10710  Biso   1.000  H
  H73      1.0000 0.82470  0.71040  0.86690  Biso   1.000  H
  H74      1.0000 0.17530  0.28960  0.13310  Biso   1.000  H
  C69      1.0000 0.73300  0.71900  0.85850  Biso   1.000  C
  C70      1.0000 0.26700  0.28100  0.14150  Biso   1.000  C
  H75      1.0000 0.81080  0.74450  0.85510  Biso   1.000  H
  H76      1.0000 0.18920  0.25550  0.14490  Biso   1.000  H
  H77      1.0000 0.73160  0.67480  0.89170  Biso   1.000  H
  H78      1.0000 0.26840  0.32520  0.10830  Biso   1.000  H
  C71      1.0000 0.64400  0.65000  0.77550  Biso   1.000  C
  C72      1.0000 0.35600  0.35000  0.22450  Biso   1.000  C
  H79      1.0000 0.66580  0.58460  0.74740  Biso   1.000  H
  H80      1.0000 0.33420  0.41540  0.25260  Biso   1.000  H
  H81      1.0000 0.64210  0.69860  0.74650  Biso   1.000  H
  H82      1.0000 0.35790  0.30140  0.25350  Biso   1.000  H
  H83      1.0000 0.56800  0.62430  0.78150  Biso   1.000  H
  H84      1.0000 0.43200  0.37570  0.21850  Biso   1.000  H
  C73      1.0000 0.22010  0.02040  0.72520  Biso   1.000  C
  C74      1.0000 0.77990  0.97960  0.27480  Biso   1.000  C
  H85      1.0000 0.17720  0.98440  0.67020  Biso   1.000  H
  H86      1.0000 0.82280  0.01560  0.32980  Biso   1.000  H
  H87      1.0000 0.25640  0.10050  0.73850  Biso   1.000  H
  H88      1.0000 0.74360  0.89950  0.26150  Biso   1.000  H
  H89      1.0000 0.16830  0.01260  0.75670  Biso   1.000  H
  H90      1.0000 0.83170  0.98740  0.24330  Biso   1.000  H
  C75      1.0000 0.31010  0.96430  0.74060  Biso   1.000  C
  C76      1.0000 0.68990  0.03570  0.25940  Biso   1.000  C
  H91      1.0000 0.27160  0.88320  0.72530  Biso   1.000  H
  H92      1.0000 0.72840  0.11680  0.27470  Biso   1.000  H
  H93      1.0000 0.35900  0.96990  0.70620  Biso   1.000  H
  H94      1.0000 0.64100  0.03010  0.29380  Biso   1.000  H
  C77      1.0000 0.38610  0.00940  0.82240  Biso   1.000  C
  C78      1.0000 0.61390  0.99060  0.17760  Biso   1.000  C
  C79      1.0000 0.39530  0.11770  0.87460  Biso   1.000  C
  C80      1.0000 0.60470  0.88230  0.12540  Biso   1.000  C
  H95      1.0000 0.35490  0.16160  0.85680  Biso   1.000  H
  H96      1.0000 0.64510  0.83840  0.14320  Biso   1.000  H
  C81      1.0000 0.46250  0.16360  0.95260  Biso   1.000  C
  C82      1.0000 0.53750  0.83640  0.04740  Biso   1.000  C
  C83      1.0000 0.46680  0.27830  0.00260  Biso   1.000  C
  C84      1.0000 0.53320  0.72170  0.99740  Biso   1.000  C
  C85      1.0000 0.38250  0.32710  0.98420  Biso   1.000  C
  C86      1.0000 0.61750  0.67290  0.01580  Biso   1.000  C
  H97      1.0000 0.32150  0.28640  0.93820  Biso   1.000  H
  H98      1.0000 0.67850  0.71360  0.06180  Biso   1.000  H
  C87      1.0000 0.38720  0.43390  0.03240  Biso   1.000  C
  C88      1.0000 0.61280  0.56610  0.96760  Biso   1.000  C
  H99      1.0000 0.32900  0.46540  0.01920  Biso   1.000  H
  H100     1.0000 0.67100  0.53460  0.98080  Biso   1.000  H
  C89      1.0000 0.47630  0.49640  0.10020  Biso   1.000  C
  C90      1.0000 0.52370  0.50360  0.89980  Biso   1.000  C
  C91      1.0000 0.55940  0.44740  0.11710  Biso   1.000  C
  C92      1.0000 0.44060  0.55260  0.88290  Biso   1.000  C
  H101     1.0000 0.62100  0.48850  0.16270  Biso   1.000  H
  H102     1.0000 0.37900  0.51150  0.83730  Biso   1.000  H
  C93      1.0000 0.55570  0.34160  0.07020  Biso   1.000  C
  C94      1.0000 0.44430  0.65840  0.92980  Biso   1.000  C
  H103     1.0000 0.61450  0.31090  0.08380  Biso   1.000  H
  H104     1.0000 0.38550  0.68910  0.91620  Biso   1.000  H
  C95      1.0000 0.48130  0.60860  0.15590  Biso   1.000  C
  C96      1.0000 0.51870  0.39140  0.84410  Biso   1.000  C
  C97      1.0000 0.39420  0.65770  0.14280  Biso   1.000  C
  C98      1.0000 0.60580  0.34230  0.85720  Biso   1.000  C
  H105     1.0000 0.33210  0.61520  0.09760  Biso   1.000  H
  H106     1.0000 0.66790  0.38480  0.90240  Biso   1.000  H
  C99      1.0000 0.39060  0.76130  0.18930  Biso   1.000  C
  C100     1.0000 0.60940  0.23870  0.81070  Biso   1.000  C
  C101     1.0000 0.30480  0.82000  0.16060  Biso   1.000  C
  C102     1.0000 0.69520  0.18000  0.83940  Biso   1.000  C
  H107     1.0000 0.25480  0.82520  0.19520  Biso   1.000  H
  H108     1.0000 0.74520  0.17480  0.80480  Biso   1.000  H
  H109     1.0000 0.35150  0.89830  0.17460  Biso   1.000  H
  H110     1.0000 0.64850  0.10170  0.82540  Biso   1.000  H
  C103     1.0000 0.23500  0.79000  0.08950  Biso   1.000  C
  C104     1.0000 0.76500  0.21000  0.91050  Biso   1.000  C
  H111     1.0000 0.31080  0.81620  0.10890  Biso   1.000  H
  H112     1.0000 0.68920  0.18380  0.89110  Biso   1.000  H
  H113     1.0000 0.22750  0.77240  0.15270  Biso   1.000  H
  H114     1.0000 0.77250  0.22760  0.84730  Biso   1.000  H
  C105     1.0000 0.31000  0.92500  0.20140  Biso   1.000  C
  C106     1.0000 0.69000  0.07500  0.79860  Biso   1.000  C
  N1       1.0000 0.47060  0.66990  0.35110  Biso   1.000  N
  N2       1.0000 0.52940  0.33010  0.64890  Biso   1.000  N
  N3       1.0000 0.33350  0.52840  0.40110  Biso   1.000  N
  N4       1.0000 0.66650  0.47160  0.59890  Biso   1.000  N
  C107     1.0000 0.51030  0.60250  0.38180  Biso   1.000  C
  C108     1.0000 0.48970  0.39750  0.61820  Biso   1.000  C
  H115     1.0000 0.58650  0.60180  0.38570  Biso   1.000  H
  H116     1.0000 0.41350  0.39820  0.61430  Biso   1.000  H
  C109     1.0000 0.44360  0.53510  0.40770  Biso   1.000  C
  C110     1.0000 0.55640  0.46490  0.59230  Biso   1.000  C
  H117     1.0000 0.47610  0.49150  0.43120  Biso   1.000  H
  H118     1.0000 0.52390  0.50850  0.56880  Biso   1.000  H
  C111     1.0000 0.29550  0.59500  0.37280  Biso   1.000  C
  C112     1.0000 0.70450  0.40500  0.62720  Biso   1.000  C
  H119     1.0000 0.21930  0.59530  0.36950  Biso   1.000  H
  H120     1.0000 0.78070  0.40470  0.63050  Biso   1.000  H
  C113     1.0000 0.36140  0.66540  0.34740  Biso   1.000  C
  C114     1.0000 0.63860  0.33460  0.65260  Biso   1.000  C
  H121     1.0000 0.32890  0.71170  0.32670  Biso   1.000  H
  H122     1.0000 0.67110  0.28830  0.67330  Biso   1.000  H
  O25      1.0000 0.86720  0.66610  0.11860  Biso   1.000  O
  O26      1.0000 0.13280  0.33390  0.88140  Biso   1.000  O
  C115     1.0000 0.84820  0.68130  0.19070  Biso   1.000  C
  C116     1.0000 0.15180  0.31870  0.80930  Biso   1.000  C
  H123     1.0000 0.83590  0.60950  0.19820  Biso   1.000  H
  H124     1.0000 0.16410  0.39050  0.80180  Biso   1.000  H
  H125     1.0000 0.77980  0.70650  0.19370  Biso   1.000  H
  H126     1.0000 0.22020  0.29350  0.80630  Biso   1.000  H
  C117     1.0000 0.94790  0.76660  0.25050  Biso   1.000  C
  C118     1.0000 0.05210  0.23340  0.74950  Biso   1.000  C
  H127     1.0000 0.92440  0.81960  0.29060  Biso   1.000  H
  H128     1.0000 0.07560  0.18040  0.70940  Biso   1.000  H
  H129     1.0000 0.99530  0.73040  0.27560  Biso   1.000  H
  H130     1.0000 0.00470  0.26960  0.72440  Biso   1.000  H
  C119     1.0000 0.01110  0.82590  0.21270  Biso   1.000  C
  C120     1.0000 0.98890  0.17410  0.78730  Biso   1.000  C
  H131     1.0000 0.08940  0.82030  0.22060  Biso   1.000  H
  H132     1.0000 0.91060  0.17970  0.77940  Biso   1.000  H
  H133     1.0000 0.01440  0.90640  0.23220  Biso   1.000  H
  H134     1.0000 0.98560  0.09360  0.76780  Biso   1.000  H
  C121     1.0000 0.94510  0.76670  0.13010  Biso   1.000  C
  C122     1.0000 0.05490  0.23330  0.86990  Biso   1.000  C
  H135     1.0000 0.90450  0.81530  0.11410  Biso   1.000  H
  H136     1.0000 0.09550  0.18470  0.88590  Biso   1.000  H
  H137     1.0000 0.99730  0.75080  0.09790  Biso   1.000  H
  H138     1.0000 0.00270  0.24920  0.90210  Biso   1.000  H
  C123     1.0000 0.99100  0.45600  0.18760  Biso   1.000  C
  C124     1.0000 0.00900  0.54400  0.81240  Biso   1.000  C
  H139     1.0000 0.96280  0.50980  0.22410  Biso   1.000  H
  H140     1.0000 0.03720  0.49020  0.77590  Biso   1.000  H
  H141     1.0000 0.01700  0.40750  0.21240  Biso   1.000  H
  H142     1.0000 0.98300  0.59250  0.78760  Biso   1.000  H
  C125     1.0000 0.08000  0.51500  0.16680  Biso   1.000  C
  C126     1.0000 0.92000  0.48500  0.83320  Biso   1.000  C
  H143     1.0000 0.08480  0.59570  0.18470  Biso   1.000  H
  H144     1.0000 0.91520  0.40430  0.81530  Biso   1.000  H
  H145     1.0000 0.15370  0.50920  0.19270  Biso   1.000  H
  H146     1.0000 0.84630  0.49080  0.80730  Biso   1.000  H
  C127     1.0000 0.96900  0.37800  0.06290  Biso   1.000  C
  C128     1.0000 0.03100  0.62200  0.93710  Biso   1.000  C
  H147     1.0000 0.99490  0.31060  0.05690  Biso   1.000  H
  H148     1.0000 0.00510  0.68940  0.94310  Biso   1.000  H
  H149     1.0000 0.92340  0.36730  0.01130  Biso   1.000  H
  H150     1.0000 0.07660  0.63270  0.98870  Biso   1.000  H
  C129     1.0000 0.89900  0.38700  0.11390  Biso   1.000  C
  C130     1.0000 0.10100  0.61300  0.88610  Biso   1.000  C
  H151     1.0000 0.85980  0.31210  0.11260  Biso   1.000  H
  H152     1.0000 0.14020  0.68790  0.88740  Biso   1.000  H
  H153     1.0000 0.84290  0.42580  0.10340  Biso   1.000  H
  H154     1.0000 0.15710  0.57420  0.89660  Biso   1.000  H
  O27      1.0000 0.06300  0.47100  0.08820  Biso   1.000  O
  O28      1.0000 0.93700  0.52900  0.91180  Biso   1.000  O
