data_image0
_cell_length_a       14.0012
_cell_length_b       14.1336
_cell_length_c       18.328
_cell_angle_alpha    72.259
_cell_angle_beta     88.496
_cell_angle_gamma    83.084

_symmetry_space_group_name_H-M    "P 1"
_symmetry_int_tables_number       1

loop_
  _symmetry_equiv_pos_as_xyz
  'x, y, z'

loop_
  _atom_site_label
  _atom_site_occupancy
  _atom_site_fract_x
  _atom_site_fract_y
  _atom_site_fract_z
  _atom_site_thermal_displace_type
  _atom_site_B_iso_or_equiv
  _atom_site_type_symbol
  Cu1      1.0000 0.47381  0.11473  0.71807  Biso   1.000  Cu
  Cu2      1.0000 0.52619  0.88527  0.28193  Biso   1.000  Cu
  Cu3      1.0000 0.91612  0.69801  0.51653  Biso   1.000  Cu
  Cu4      1.0000 0.08388  0.30199  0.48347  Biso   1.000  Cu
  Cu5      1.0000 0.96885  0.29608  0.10544  Biso   1.000  Cu
  Cu6      1.0000 0.03115  0.70392  0.89456  Biso   1.000  Cu
  O1       1.0000 0.56805  0.12575  0.63722  Biso   1.000  O
  O2       1.0000 0.43195  0.87425  0.36278  Biso   1.000  O
  O3       1.0000 0.40008  0.24023  0.66172  Biso   1.000  O
  O4       1.0000 0.59992  0.75977  0.33828  Biso   1.000  O
  O5       1.0000 0.02038  0.59310  0.52372  Biso   1.000  O
  O6       1.0000 0.97962  0.40690  0.47628  Biso   1.000  O
  O7       1.0000 0.93451  0.75973  0.40807  Biso   1.000  O
  O8       1.0000 0.06549  0.24027  0.59193  Biso   1.000  O
  O9       1.0000 0.80142  0.79172  0.50521  Biso   1.000  O
  O10      1.0000 0.19858  0.20828  0.49479  Biso   1.000  O
  O11      1.0000 0.88908  0.63265  0.62353  Biso   1.000  O
  O12      1.0000 0.11092  0.36735  0.37647  Biso   1.000  O
  O13      1.0000 0.94469  0.39447  0.00697  Biso   1.000  O
  O14      1.0000 0.05531  0.60553  0.99303  Biso   1.000  O
  O15      1.0000 0.87670  0.36540  0.15662  Biso   1.000  O
  O16      1.0000 0.12330  0.63460  0.84338  Biso   1.000  O
  O17      1.0000 0.00342  0.20230  0.20427  Biso   1.000  O
  O18      1.0000 0.99658  0.79770  0.79573  Biso   1.000  O
  O19      1.0000 0.06886  0.23590  0.05451  Biso   1.000  O
  O20      1.0000 0.93114  0.76410  0.94549  Biso   1.000  O
  O21      1.0000 0.40810  0.13001  0.80925  Biso   1.000  O
  O22      1.0000 0.59190  0.86999  0.19075  Biso   1.000  O
  O23      1.0000 0.55452  0.99448  0.77594  Biso   1.000  O
  O24      1.0000 0.44548  0.00552  0.22406  Biso   1.000  O
  C1       1.0000 0.71390  0.25770  0.52640  Biso   1.000  C
  C2       1.0000 0.28610  0.74230  0.47360  Biso   1.000  C
  H1       1.0000 0.76850  0.25560  0.49210  Biso   1.000  H
  H2       1.0000 0.23150  0.74440  0.50790  Biso   1.000  H
  H3       1.0000 0.73740  0.23740  0.57950  Biso   1.000  H
  H4       1.0000 0.26260  0.76260  0.42050  Biso   1.000  H
  H5       1.0000 0.68070  0.32590  0.51310  Biso   1.000  H
  H6       1.0000 0.31930  0.67410  0.48690  Biso   1.000  H
  C3       1.0000 0.64480  0.18680  0.51810  Biso   1.000  C
  C4       1.0000 0.35520  0.81320  0.48190  Biso   1.000  C
  H7       1.0000 0.62160  0.20680  0.46440  Biso   1.000  H
  H8       1.0000 0.37840  0.79320  0.53560  Biso   1.000  H
  H9       1.0000 0.67860  0.11800  0.53070  Biso   1.000  H
  H10      1.0000 0.32140  0.88200  0.46930  Biso   1.000  H
  C5       1.0000 0.56010  0.18850  0.57080  Biso   1.000  C
  C6       1.0000 0.43990  0.81150  0.42920  Biso   1.000  C
  C7       1.0000 0.48140  0.26240  0.54430  Biso   1.000  C
  C8       1.0000 0.51860  0.73760  0.45570  Biso   1.000  C
  H11      1.0000 0.47940  0.30010  0.49150  Biso   1.000  H
  H12      1.0000 0.52060  0.69990  0.50850  Biso   1.000  H
  C9       1.0000 0.40610  0.28400  0.59020  Biso   1.000  C
  C10      1.0000 0.59390  0.71600  0.40980  Biso   1.000  C
  C11      1.0000 0.32500  0.36480  0.55650  Biso   1.000  C
  C12      1.0000 0.67500  0.63520  0.44350  Biso   1.000  C
  C13      1.0000 0.32080  0.42480  0.48020  Biso   1.000  C
  C14      1.0000 0.67920  0.57520  0.51980  Biso   1.000  C
  H13      1.0000 0.37240  0.41660  0.44700  Biso   1.000  H
  H14      1.0000 0.62760  0.58340  0.55300  Biso   1.000  H
  C15      1.0000 0.24300  0.49590  0.45190  Biso   1.000  C
  C16      1.0000 0.75700  0.50410  0.54810  Biso   1.000  C
  H15      1.0000 0.24140  0.53460  0.39940  Biso   1.000  H
  H16      1.0000 0.75860  0.46540  0.60060  Biso   1.000  H
  C17      1.0000 0.16720  0.51150  0.49910  Biso   1.000  C
  C18      1.0000 0.83280  0.48850  0.50090  Biso   1.000  C
  C19      1.0000 0.17110  0.45180  0.57500  Biso   1.000  C
  C20      1.0000 0.82890  0.54820  0.42500  Biso   1.000  C
  H17      1.0000 0.11980  0.46040  0.60820  Biso   1.000  H
  H18      1.0000 0.88020  0.53960  0.39180  Biso   1.000  H
  C21      1.0000 0.24860  0.37950  0.60320  Biso   1.000  C
  C22      1.0000 0.75140  0.62050  0.39680  Biso   1.000  C
  H19      1.0000 0.24940  0.33940  0.65530  Biso   1.000  H
  H20      1.0000 0.75060  0.66060  0.34470  Biso   1.000  H
  C23      1.0000 0.08330  0.59010  0.47300  Biso   1.000  C
  C24      1.0000 0.91670  0.40990  0.52700  Biso   1.000  C
  C25      1.0000 0.07730  0.65580  0.39780  Biso   1.000  C
  C26      1.0000 0.92270  0.34420  0.60220  Biso   1.000  C
  H21      1.0000 0.12670  0.64590  0.36340  Biso   1.000  H
  H22      1.0000 0.87330  0.35410  0.63660  Biso   1.000  H
  C27      1.0000 0.00470  0.73400  0.36970  Biso   1.000  C
  C28      1.0000 0.99530  0.26600  0.63030  Biso   1.000  C
  C29      1.0000 0.00410  0.79500  0.28620  Biso   1.000  C
  C30      1.0000 0.99590  0.20500  0.71380  Biso   1.000  C
  H23      1.0000 0.07090  0.79450  0.26690  Biso   1.000  H
  H24      1.0000 0.92910  0.20550  0.73310  Biso   1.000  H
  H25      1.0000 0.97830  0.86520  0.28080  Biso   1.000  H
  H26      1.0000 0.02170  0.13480  0.71920  Biso   1.000  H
  C31      1.0000 0.94280  0.75300  0.23850  Biso   1.000  C
  C32      1.0000 0.05720  0.24700  0.76150  Biso   1.000  C
  H27      1.0000 0.94310  0.79400  0.18470  Biso   1.000  H
  H28      1.0000 0.05690  0.20600  0.81530  Biso   1.000  H
  H29      1.0000 0.87660  0.75390  0.25730  Biso   1.000  H
  H30      1.0000 0.12340  0.24610  0.74270  Biso   1.000  H
  H31      1.0000 0.96930  0.68400  0.24290  Biso   1.000  H
  H32      1.0000 0.03070  0.31600  0.75710  Biso   1.000  H
  C33      1.0000 0.58850  0.90190  0.58850  Biso   1.000  C
  C34      1.0000 0.41150  0.09810  0.41150  Biso   1.000  C
  H33      1.0000 0.54100  0.95900  0.56400  Biso   1.000  H
  H34      1.0000 0.45900  0.04100  0.43600  Biso   1.000  H
  H35      1.0000 0.61730  0.91310  0.63290  Biso   1.000  H
  H36      1.0000 0.38270  0.08690  0.36710  Biso   1.000  H
  H37      1.0000 0.55670  0.84090  0.60540  Biso   1.000  H
  H38      1.0000 0.44330  0.15910  0.39460  Biso   1.000  H
  C35      1.0000 0.66640  0.89070  0.53170  Biso   1.000  C
  C36      1.0000 0.33360  0.10930  0.46830  Biso   1.000  C
  H39      1.0000 0.69520  0.95440  0.51380  Biso   1.000  H
  H40      1.0000 0.30480  0.04560  0.48620  Biso   1.000  H
  H41      1.0000 0.63520  0.88200  0.48670  Biso   1.000  H
  H42      1.0000 0.36480  0.11800  0.51330  Biso   1.000  H
  C37      1.0000 0.74800  0.80610  0.55860  Biso   1.000  C
  C38      1.0000 0.25200  0.19390  0.44140  Biso   1.000  C
  C39      1.0000 0.76050  0.75170  0.63570  Biso   1.000  C
  C40      1.0000 0.23950  0.24830  0.36430  Biso   1.000  C
  H43      1.0000 0.71840  0.77110  0.67150  Biso   1.000  H
  H44      1.0000 0.28160  0.22890  0.32850  Biso   1.000  H
  C41      1.0000 0.83130  0.67000  0.66400  Biso   1.000  C
  C42      1.0000 0.16870  0.33000  0.33600  Biso   1.000  C
  C43      1.0000 0.84240  0.62160  0.74895  Biso   1.000  C
  C44      1.0000 0.15760  0.37840  0.25105  Biso   1.000  C
  C45      1.0000 0.79710  0.66260  0.80230  Biso   1.000  C
  C46      1.0000 0.20290  0.33740  0.19770  Biso   1.000  C
  H45      1.0000 0.75710  0.72450  0.78500  Biso   1.000  H
  H46      1.0000 0.24290  0.27550  0.21500  Biso   1.000  H
  C47      1.0000 0.80870  0.61570  0.88020  Biso   1.000  C
  C48      1.0000 0.19130  0.38430  0.11980  Biso   1.000  C
  H47      1.0000 0.77670  0.64570  0.91540  Biso   1.000  H
  H48      1.0000 0.22330  0.35430  0.08460  Biso   1.000  H
  C49      1.0000 0.86700  0.52430  0.90760  Biso   1.000  C
  C50      1.0000 0.13300  0.47570  0.09240  Biso   1.000  C
  C51      1.0000 0.91540  0.48480  0.85430  Biso   1.000  C
  C52      1.0000 0.08460  0.51520  0.14570  Biso   1.000  C
  H49      1.0000 0.95770  0.42450  0.87160  Biso   1.000  H
  H50      1.0000 0.04230  0.57550  0.12840  Biso   1.000  H
  C53      1.0000 0.90280  0.53190  0.77690  Biso   1.000  C
  C54      1.0000 0.09720  0.46810  0.22310  Biso   1.000  C
  H51      1.0000 0.93600  0.50280  0.74170  Biso   1.000  H
  H52      1.0000 0.06400  0.49720  0.25830  Biso   1.000  H
  C55      1.0000 0.87850  0.46830  0.99070  Biso   1.000  C
  C56      1.0000 0.12150  0.53170  0.00930  Biso   1.000  C
  C57      1.0000 0.81840  0.49530  0.04510  Biso   1.000  C
  C58      1.0000 0.18160  0.50470  0.95490  Biso   1.000  C
  H53      1.0000 0.77250  0.55270  0.02740  Biso   1.000  H
  H54      1.0000 0.22750  0.44730  0.97260  Biso   1.000  H
  C59      1.0000 0.82060  0.44450  0.12310  Biso   1.000  C
  C60      1.0000 0.17940  0.55550  0.87690  Biso   1.000  C
  C61      1.0000 0.75440  0.48590  0.17560  Biso   1.000  C
  C62      1.0000 0.24560  0.51410  0.82440  Biso   1.000  C
  H55      1.0000 0.70340  0.53550  0.14480  Biso   1.000  H
  H56      1.0000 0.29660  0.46450  0.85520  Biso   1.000  H
  H57      1.0000 0.72320  0.43100  0.21140  Biso   1.000  H
  H58      1.0000 0.27680  0.56900  0.78860  Biso   1.000  H
  C63      1.0000 0.81000  0.53500  0.22050  Biso   1.000  C
  C64      1.0000 0.19000  0.46500  0.77950  Biso   1.000  C
  H59      1.0000 0.76620  0.56080  0.25450  Biso   1.000  H
  H60      1.0000 0.23380  0.43920  0.74550  Biso   1.000  H
  H61      1.0000 0.83970  0.59030  0.18510  Biso   1.000  H
  H62      1.0000 0.16030  0.40970  0.81490  Biso   1.000  H
  H63      1.0000 0.86030  0.48580  0.25130  Biso   1.000  H
  H64      1.0000 0.13970  0.51420  0.74870  Biso   1.000  H
  C65      1.0000 0.16920  0.98990  0.32460  Biso   1.000  C
  C66      1.0000 0.83080  0.01010  0.67540  Biso   1.000  C
  H65      1.0000 0.16940  0.95740  0.38010  Biso   1.000  H
  H66      1.0000 0.83060  0.04260  0.61990  Biso   1.000  H
  H67      1.0000 0.22980  0.01860  0.30980  Biso   1.000  H
  H68      1.0000 0.77020  0.98140  0.69020  Biso   1.000  H
  H69      1.0000 0.16250  0.94040  0.29810  Biso   1.000  H
  H70      1.0000 0.83750  0.05960  0.70190  Biso   1.000  H
  C67      1.0000 0.08570  0.07230  0.30270  Biso   1.000  C
  C68      1.0000 0.91430  0.92770  0.69730  Biso   1.000  C
  H71      1.0000 0.02580  0.04200  0.32040  Biso   1.000  H
  H72      1.0000 0.97420  0.95800  0.67960  Biso   1.000  H
  H73      1.0000 0.09300  0.12000  0.33140  Biso   1.000  H
  H74      1.0000 0.90700  0.88000  0.66860  Biso   1.000  H
  C69      1.0000 0.07240  0.13130  0.21880  Biso   1.000  C
  C70      1.0000 0.92760  0.86870  0.78120  Biso   1.000  C
  C71      1.0000 0.13390  0.10670  0.16390  Biso   1.000  C
  C72      1.0000 0.86610  0.89330  0.83610  Biso   1.000  C
  H75      1.0000 0.18160  0.05080  0.18080  Biso   1.000  H
  H76      1.0000 0.81840  0.94920  0.81920  Biso   1.000  H
  C73      1.0000 0.12880  0.15960  0.08570  Biso   1.000  C
  C74      1.0000 0.87120  0.84040  0.91430  Biso   1.000  C
  C75      1.0000 0.19990  0.13060  0.03190  Biso   1.000  C
  C76      1.0000 0.80010  0.86940  0.96810  Biso   1.000  C
  C77      1.0000 0.25310  0.03600  0.04980  Biso   1.000  C
  C78      1.0000 0.74690  0.96400  0.95020  Biso   1.000  C
  H77      1.0000 0.24290  0.98690  0.09700  Biso   1.000  H
  H78      1.0000 0.75710  0.01310  0.90300  Biso   1.000  H
  C79      1.0000 0.32050  0.01340  0.99920  Biso   1.000  C
  C80      1.0000 0.67950  0.98660  0.00080  Biso   1.000  C
  H79      1.0000 0.35670  0.94910  0.01250  Biso   1.000  H
  H80      1.0000 0.64330  0.05090  0.98750  Biso   1.000  H
  C81      1.0000 0.33620  0.08320  0.92930  Biso   1.000  C
  C82      1.0000 0.66380  0.91680  0.07070  Biso   1.000  C
  C83      1.0000 0.28180  0.17680  0.91120  Biso   1.000  C
  C84      1.0000 0.71820  0.82320  0.08880  Biso   1.000  C
  H81      1.0000 0.29110  0.22530  0.86350  Biso   1.000  H
  H82      1.0000 0.70890  0.77470  0.13650  Biso   1.000  H
  C85      1.0000 0.21480  0.20020  0.96130  Biso   1.000  C
  C86      1.0000 0.78520  0.79980  0.03870  Biso   1.000  C
  H83      1.0000 0.17840  0.26440  0.94760  Biso   1.000  H
  H84      1.0000 0.82160  0.73560  0.05240  Biso   1.000  H
  C87      1.0000 0.40740  0.06110  0.87268  Biso   1.000  C
  C88      1.0000 0.59260  0.93890  0.12732  Biso   1.000  C
  C89      1.0000 0.46710  0.97050  0.89130  Biso   1.000  C
  C90      1.0000 0.53290  0.02950  0.10870  Biso   1.000  C
  H85      1.0000 0.45960  0.92400  0.94030  Biso   1.000  H
  H86      1.0000 0.54040  0.07600  0.05970  Biso   1.000  H
  C91      1.0000 0.53700  0.94270  0.84360  Biso   1.000  C
  C92      1.0000 0.46300  0.05730  0.15640  Biso   1.000  C
  C93      1.0000 0.59580  0.84190  0.87330  Biso   1.000  C
  C94      1.0000 0.40420  0.15810  0.12670  Biso   1.000  C
  H87      1.0000 0.59730  0.82100  0.93000  Biso   1.000  H
  H88      1.0000 0.40270  0.17900  0.07000  Biso   1.000  H
  H89      1.0000 0.66280  0.84720  0.85520  Biso   1.000  H
  H90      1.0000 0.33720  0.15280  0.14480  Biso   1.000  H
  C95      1.0000 0.55510  0.76350  0.84690  Biso   1.000  C
  C96      1.0000 0.44490  0.23650  0.15310  Biso   1.000  C
  H91      1.0000 0.59500  0.69910  0.86720  Biso   1.000  H
  H92      1.0000 0.40500  0.30090  0.13280  Biso   1.000  H
  H93      1.0000 0.55470  0.78340  0.79080  Biso   1.000  H
  H94      1.0000 0.44530  0.21660  0.20920  Biso   1.000  H
  H95      1.0000 0.48920  0.75720  0.86550  Biso   1.000  H
  H96      1.0000 0.51080  0.24280  0.13450  Biso   1.000  H
  N1       1.0000 0.36230  0.02660  0.69089  Biso   1.000  N
  N2       1.0000 0.63770  0.97340  0.30911  Biso   1.000  N
  N3       1.0000 0.02540  0.78160  0.55793  Biso   1.000  N
  N4       1.0000 0.97460  0.21840  0.44207  Biso   1.000  N
  C97      1.0000 0.38210  0.92990  0.69470  Biso   1.000  C
  C98      1.0000 0.61790  0.07010  0.30530  Biso   1.000  C
  H97      1.0000 0.44360  0.89650  0.71350  Biso   1.000  H
  H98      1.0000 0.55640  0.10350  0.28650  Biso   1.000  H
  C99      1.0000 0.31830  0.87640  0.67300  Biso   1.000  C
  C100     1.0000 0.68170  0.12360  0.32700  Biso   1.000  C
  H99      1.0000 0.33520  0.80770  0.67760  Biso   1.000  H
  H100     1.0000 0.66480  0.19230  0.32240  Biso   1.000  H
  C101     1.0000 0.22860  0.92480  0.64411  Biso   1.000  C
  C102     1.0000 0.77140  0.07520  0.35589  Biso   1.000  C
  C103     1.0000 0.20670  0.02420  0.64152  Biso   1.000  C
  C104     1.0000 0.79330  0.97580  0.35848  Biso   1.000  C
  H101     1.0000 0.14560  0.05940  0.62320  Biso   1.000  H
  H102     1.0000 0.85440  0.94060  0.37680  Biso   1.000  H
  C105     1.0000 0.27440  0.07120  0.66580  Biso   1.000  C
  C106     1.0000 0.72560  0.92880  0.33420  Biso   1.000  C
  H103     1.0000 0.25790  0.13880  0.66470  Biso   1.000  H
  H104     1.0000 0.74210  0.86120  0.33530  Biso   1.000  H
  C107     1.0000 0.15970  0.87350  0.61460  Biso   1.000  C
  C108     1.0000 0.84030  0.12650  0.38540  Biso   1.000  C
  C109     1.0000 0.13670  0.77870  0.65620  Biso   1.000  C
  C110     1.0000 0.86330  0.22130  0.34380  Biso   1.000  C
  H105     1.0000 0.16700  0.74370  0.70420  Biso   1.000  H
  H106     1.0000 0.83300  0.25630  0.29580  Biso   1.000  H
  C111     1.0000 0.06910  0.73660  0.62620  Biso   1.000  C
  C112     1.0000 0.93090  0.26340  0.37380  Biso   1.000  C
  H107     1.0000 0.05270  0.67280  0.65530  Biso   1.000  H
  H108     1.0000 0.94730  0.32720  0.34470  Biso   1.000  H
  C113     1.0000 0.04960  0.87140  0.51790  Biso   1.000  C
  C114     1.0000 0.95040  0.12860  0.48210  Biso   1.000  C
  H109     1.0000 0.02060  0.90330  0.46890  Biso   1.000  H
  H110     1.0000 0.97940  0.09670  0.53110  Biso   1.000  H
  C115     1.0000 0.11400  0.91990  0.54371  Biso   1.000  C
  C116     1.0000 0.88600  0.08010  0.45629  Biso   1.000  C
  H111     1.0000 0.12760  0.98450  0.51370  Biso   1.000  H
  H112     1.0000 0.87240  0.01550  0.48630  Biso   1.000  H
  N5       1.0000 0.42340  0.63750  0.66450  Biso   1.000  N
  N6       1.0000 0.57660  0.36250  0.33550  Biso   1.000  N
  N7       1.0000 0.76180  0.20170  0.80350  Biso   1.000  N
  N8       1.0000 0.23820  0.79830  0.19650  Biso   1.000  N
  C117     1.0000 0.50340  0.63670  0.70030  Biso   1.000  C
  C118     1.0000 0.49660  0.36330  0.29970  Biso   1.000  C
  H113     1.0000 0.51390  0.69690  0.71020  Biso   1.000  H
  H114     1.0000 0.48610  0.30310  0.28980  Biso   1.000  H
  C119     1.0000 0.57370  0.55670  0.72500  Biso   1.000  C
  C120     1.0000 0.42630  0.44330  0.27500  Biso   1.000  C
  H115     1.0000 0.63110  0.56400  0.74820  Biso   1.000  H
  H116     1.0000 0.36890  0.43600  0.25180  Biso   1.000  H
  C121     1.0000 0.56070  0.46770  0.71600  Biso   1.000  C
  C122     1.0000 0.43930  0.53230  0.28400  Biso   1.000  C
  C123     1.0000 0.47620  0.46500  0.68130  Biso   1.000  C
  C124     1.0000 0.52380  0.53500  0.31870  Biso   1.000  C
  H117     1.0000 0.46180  0.40410  0.67480  Biso   1.000  H
  H118     1.0000 0.53820  0.59590  0.32520  Biso   1.000  H
  C125     1.0000 0.41140  0.55100  0.65560  Biso   1.000  C
  C126     1.0000 0.58860  0.44900  0.34440  Biso   1.000  C
  H119     1.0000 0.35470  0.54690  0.62980  Biso   1.000  H
  H120     1.0000 0.64530  0.45310  0.37020  Biso   1.000  H
  C127     1.0000 0.63230  0.37640  0.74390  Biso   1.000  C
  C128     1.0000 0.36770  0.62360  0.25610  Biso   1.000  C
  C129     1.0000 0.71470  0.37440  0.78460  Biso   1.000  C
  C130     1.0000 0.28530  0.62560  0.21540  Biso   1.000  C
  H121     1.0000 0.72970  0.43420  0.79270  Biso   1.000  H
  H122     1.0000 0.27030  0.56580  0.20730  Biso   1.000  H
  C131     1.0000 0.77450  0.28830  0.81320  Biso   1.000  C
  C132     1.0000 0.22550  0.71170  0.18680  Biso   1.000  C
  H123     1.0000 0.82910  0.29050  0.84200  Biso   1.000  H
  H124     1.0000 0.17090  0.70950  0.15800  Biso   1.000  H
  C133     1.0000 0.68540  0.20340  0.76300  Biso   1.000  C
  C134     1.0000 0.31460  0.79660  0.23700  Biso   1.000  C
  H125     1.0000 0.67300  0.14240  0.75530  Biso   1.000  H
  H126     1.0000 0.32700  0.85760  0.24470  Biso   1.000  H
  C135     1.0000 0.62180  0.28760  0.73060  Biso   1.000  C
  C136     1.0000 0.37820  0.71240  0.26940  Biso   1.000  C
  H127     1.0000 0.57040  0.28420  0.69900  Biso   1.000  H
  H128     1.0000 0.42960  0.71580  0.30100  Biso   1.000  H
  O25      1.0000 0.85030  0.20370  0.07387  Biso   1.000  O
  O26      1.0000 0.14970  0.79630  0.92613  Biso   1.000  O
  C137     1.0000 0.87750  0.14330  0.02520  Biso   1.000  C
  C138     1.0000 0.12250  0.85670  0.97480  Biso   1.000  C
  H129     1.0000 0.93160  0.16860  0.99210  Biso   1.000  H
  H130     1.0000 0.06840  0.83140  0.00790  Biso   1.000  H
  H131     1.0000 0.82270  0.14280  0.99230  Biso   1.000  H
  H132     1.0000 0.17730  0.85720  0.00770  Biso   1.000  H
  C139     1.0000 0.90760  0.03880  0.07940  Biso   1.000  C
  C140     1.0000 0.09240  0.96120  0.92060  Biso   1.000  C
  H133     1.0000 0.88890  0.98700  0.05820  Biso   1.000  H
  H134     1.0000 0.11110  0.01300  0.94180  Biso   1.000  H
  H135     1.0000 0.97800  0.02760  0.08850  Biso   1.000  H
  H136     1.0000 0.02200  0.97240  0.91150  Biso   1.000  H
  C141     1.0000 0.85410  0.03700  0.15230  Biso   1.000  C
  C142     1.0000 0.14590  0.96300  0.84770  Biso   1.000  C
  H137     1.0000 0.89940  0.02240  0.19600  Biso   1.000  H
  H138     1.0000 0.10060  0.97760  0.80400  Biso   1.000  H
  H139     1.0000 0.80870  0.98590  0.16430  Biso   1.000  H
  H140     1.0000 0.19130  0.01410  0.83570  Biso   1.000  H
  C143     1.0000 0.80050  0.14090  0.13590  Biso   1.000  C
  C144     1.0000 0.19950  0.85910  0.86410  Biso   1.000  C
  H141     1.0000 0.73290  0.14140  0.12110  Biso   1.000  H
  H142     1.0000 0.26710  0.85860  0.87890  Biso   1.000  H
  H143     1.0000 0.80100  0.16420  0.18160  Biso   1.000  H
  H144     1.0000 0.19900  0.83580  0.81840  Biso   1.000  H
  O27      1.0000 0.59550  0.26730  0.97390  Biso   1.000  O
  O28      1.0000 0.40450  0.73270  0.02610  Biso   1.000  O
  C145     1.0000 0.50690  0.31310  0.92660  Biso   1.000  C
  C146     1.0000 0.49310  0.68690  0.07340  Biso   1.000  C
  H145     1.0000 0.51530  0.30980  0.87360  Biso   1.000  H
  H146     1.0000 0.48470  0.69020  0.12640  Biso   1.000  H
  H147     1.0000 0.45050  0.27900  0.94930  Biso   1.000  H
  H148     1.0000 0.54950  0.72100  0.05070  Biso   1.000  H
  C147     1.0000 0.49550  0.41740  0.92800  Biso   1.000  C
  C148     1.0000 0.50450  0.58260  0.07200  Biso   1.000  C
  H149     1.0000 0.46320  0.46190  0.88040  Biso   1.000  H
  H150     1.0000 0.53680  0.53810  0.11960  Biso   1.000  H
  H151     1.0000 0.45570  0.42360  0.97220  Biso   1.000  H
  H152     1.0000 0.54430  0.57640  0.02780  Biso   1.000  H
  C149     1.0000 0.58840  0.44510  0.93450  Biso   1.000  C
  C150     1.0000 0.41160  0.55490  0.06550  Biso   1.000  C
  H153     1.0000 0.58540  0.49980  0.95800  Biso   1.000  H
  H154     1.0000 0.41460  0.50020  0.04200  Biso   1.000  H
  H155     1.0000 0.61960  0.46600  0.88390  Biso   1.000  H
  H156     1.0000 0.38040  0.53400  0.11610  Biso   1.000  H
  C151     1.0000 0.63920  0.35120  0.98500  Biso   1.000  C
  C152     1.0000 0.36080  0.64880  0.01500  Biso   1.000  C
  H157     1.0000 0.70830  0.34590  0.97210  Biso   1.000  H
  H158     1.0000 0.29170  0.65410  0.02790  Biso   1.000  H
  H159     1.0000 0.63330  0.35030  0.03920  Biso   1.000  H
  H160     1.0000 0.36670  0.64970  0.96080  Biso   1.000  H
