data_image0
_cell_length_a       16.213
_cell_length_b       19.359
_cell_length_c       12.323
_cell_angle_alpha    90
_cell_angle_beta     90.991
_cell_angle_gamma    90

_symmetry_space_group_name_H-M    "P 1"
_symmetry_int_tables_number       1

loop_
  _symmetry_equiv_pos_as_xyz
  'x, y, z'

loop_
  _atom_site_label
  _atom_site_occupancy
  _atom_site_fract_x
  _atom_site_fract_y
  _atom_site_fract_z
  _atom_site_thermal_displace_type
  _atom_site_B_iso_or_equiv
  _atom_site_type_symbol
  Cu1      1.0000 0.49550  0.94447  0.93682  Biso   1.000  Cu
  Cu2      1.0000 0.50450  0.44447  0.56318  Biso   1.000  Cu
  Cu3      1.0000 0.50450  0.05553  0.06318  Biso   1.000  Cu
  Cu4      1.0000 0.49550  0.55553  0.43682  Biso   1.000  Cu
  S1       1.0000 0.32620  0.06863  0.66340  Biso   1.000  S
  S2       1.0000 0.67380  0.56863  0.83660  Biso   1.000  S
  S3       1.0000 0.67380  0.93137  0.33660  Biso   1.000  S
  S4       1.0000 0.32620  0.43137  0.16340  Biso   1.000  S
  S5       1.0000 0.75610  0.37725  0.38980  Biso   1.000  S
  S6       1.0000 0.24390  0.87725  0.11020  Biso   1.000  S
  S7       1.0000 0.24390  0.62275  0.61020  Biso   1.000  S
  S8       1.0000 0.75610  0.12275  0.88980  Biso   1.000  S
  S9       1.0000 0.18760  0.96840  0.83670  Biso   1.000  S
  S10      1.0000 0.81240  0.46840  0.66330  Biso   1.000  S
  S11      1.0000 0.81240  0.03160  0.16330  Biso   1.000  S
  S12      1.0000 0.18760  0.53160  0.33670  Biso   1.000  S
  O1       1.0000 0.42800  0.00100  0.83770  Biso   1.000  O
  O2       1.0000 0.57200  0.50100  0.66230  Biso   1.000  O
  O3       1.0000 0.57200  0.99900  0.16230  Biso   1.000  O
  O4       1.0000 0.42800  0.49900  0.33770  Biso   1.000  O
  O5       1.0000 0.43300  0.09320  0.94870  Biso   1.000  O
  O6       1.0000 0.56700  0.59320  0.55130  Biso   1.000  O
  O7       1.0000 0.56700  0.90680  0.05130  Biso   1.000  O
  O8       1.0000 0.43300  0.40680  0.44870  Biso   1.000  O
  O9       1.0000 0.59480  0.52440  0.36240  Biso   1.000  O
  O10      1.0000 0.40520  0.02440  0.13760  Biso   1.000  O
  O11      1.0000 0.40520  0.47560  0.63760  Biso   1.000  O
  O12      1.0000 0.59480  0.97560  0.86240  Biso   1.000  O
  O13      1.0000 0.60100  0.43160  0.47260  Biso   1.000  O
  O14      1.0000 0.39900  0.93160  0.02740  Biso   1.000  O
  O15      1.0000 0.39900  0.56840  0.52740  Biso   1.000  O
  O16      1.0000 0.60100  0.06840  0.97260  Biso   1.000  O
  O17      1.0000 0.17460  0.89100  0.54370  Biso   1.000  O
  O18      1.0000 0.82540  0.39100  0.95630  Biso   1.000  O
  O19      1.0000 0.82540  0.10900  0.45630  Biso   1.000  O
  O20      1.0000 0.17460  0.60900  0.04370  Biso   1.000  O
  O21      1.0000 0.26230  0.87600  0.68050  Biso   1.000  O
  O22      1.0000 0.73770  0.37600  0.81950  Biso   1.000  O
  O23      1.0000 0.73770  0.12400  0.31950  Biso   1.000  O
  O24      1.0000 0.26230  0.62400  0.18050  Biso   1.000  O
  O25      1.0000 0.47520  0.84930  0.85220  Biso   1.000  O
  O26      1.0000 0.52480  0.34930  0.64780  Biso   1.000  O
  O27      1.0000 0.52480  0.15070  0.14780  Biso   1.000  O
  O28      1.0000 0.47520  0.65070  0.35220  Biso   1.000  O
  N1       1.0000 0.07570  0.17700  0.24710  Biso   1.000  N
  N2       1.0000 0.92430  0.67700  0.25290  Biso   1.000  N
  N3       1.0000 0.92430  0.82300  0.75290  Biso   1.000  N
  N4       1.0000 0.07570  0.32300  0.74710  Biso   1.000  N
  N5       1.0000 0.37640  0.76330  0.83050  Biso   1.000  N
  N6       1.0000 0.62360  0.26330  0.66950  Biso   1.000  N
  N7       1.0000 0.62360  0.23670  0.16950  Biso   1.000  N
  N8       1.0000 0.37640  0.73670  0.33050  Biso   1.000  N
  C1       1.0000 0.12480  0.16630  0.34320  Biso   1.000  C
  C2       1.0000 0.87520  0.66630  0.15680  Biso   1.000  C
  C3       1.0000 0.87520  0.83370  0.65680  Biso   1.000  C
  C4       1.0000 0.12480  0.33370  0.84320  Biso   1.000  C
  C5       1.0000 0.15290  0.22230  0.40870  Biso   1.000  C
  C6       1.0000 0.84710  0.72230  0.09130  Biso   1.000  C
  C7       1.0000 0.84710  0.77770  0.59130  Biso   1.000  C
  C8       1.0000 0.15290  0.27770  0.90870  Biso   1.000  C
  H1       1.0000 0.14070  0.26720  0.38730  Biso   1.000  H
  H2       1.0000 0.85930  0.76720  0.11270  Biso   1.000  H
  H3       1.0000 0.85930  0.73280  0.61270  Biso   1.000  H
  H4       1.0000 0.14070  0.23280  0.88730  Biso   1.000  H
  C9       1.0000 0.19650  0.21190  0.50040  Biso   1.000  C
  C10      1.0000 0.80350  0.71190  0.99960  Biso   1.000  C
  C11      1.0000 0.80350  0.78810  0.49960  Biso   1.000  C
  C12      1.0000 0.19650  0.28810  0.00040  Biso   1.000  C
  H5       1.0000 0.21310  0.24960  0.54200  Biso   1.000  H
  H6       1.0000 0.78690  0.74960  0.95800  Biso   1.000  H
  H7       1.0000 0.78690  0.75040  0.45800  Biso   1.000  H
  H8       1.0000 0.21310  0.25040  0.04200  Biso   1.000  H
  C13      1.0000 0.21710  0.14700  0.53380  Biso   1.000  C
  C14      1.0000 0.78290  0.64700  0.96620  Biso   1.000  C
  C15      1.0000 0.78290  0.85300  0.46620  Biso   1.000  C
  C16      1.0000 0.21710  0.35300  0.03380  Biso   1.000  C
  C17      1.0000 0.19300  0.09040  0.46950  Biso   1.000  C
  C18      1.0000 0.80700  0.59040  0.03050  Biso   1.000  C
  C19      1.0000 0.80700  0.90960  0.53050  Biso   1.000  C
  C20      1.0000 0.19300  0.40960  0.96950  Biso   1.000  C
  H9       1.0000 0.20820  0.04590  0.49020  Biso   1.000  H
  H10      1.0000 0.79180  0.54590  0.00980  Biso   1.000  H
  H11      1.0000 0.79180  0.95410  0.50980  Biso   1.000  H
  H12      1.0000 0.20820  0.45410  0.99020  Biso   1.000  H
  C21      1.0000 0.14810  0.10030  0.37820  Biso   1.000  C
  C22      1.0000 0.85190  0.60030  0.12180  Biso   1.000  C
  C23      1.0000 0.85190  0.89970  0.62180  Biso   1.000  C
  C24      1.0000 0.14810  0.39970  0.87820  Biso   1.000  C
  H13      1.0000 0.13200  0.06210  0.33710  Biso   1.000  H
  H14      1.0000 0.86800  0.56210  0.16290  Biso   1.000  H
  H15      1.0000 0.86800  0.93790  0.66290  Biso   1.000  H
  H16      1.0000 0.13200  0.43790  0.83710  Biso   1.000  H
  C25      1.0000 0.26360  0.14050  0.63520  Biso   1.000  C
  C26      1.0000 0.73640  0.64050  0.86480  Biso   1.000  C
  C27      1.0000 0.73640  0.85950  0.36480  Biso   1.000  C
  C28      1.0000 0.26360  0.35950  0.13520  Biso   1.000  C
  C29      1.0000 0.26770  0.18110  0.72590  Biso   1.000  C
  C30      1.0000 0.73230  0.68110  0.77410  Biso   1.000  C
  C31      1.0000 0.73230  0.81890  0.27410  Biso   1.000  C
  C32      1.0000 0.26770  0.31890  0.22590  Biso   1.000  C
  H17      1.0000 0.23710  0.22170  0.72970  Biso   1.000  H
  H18      1.0000 0.76290  0.72170  0.77030  Biso   1.000  H
  H19      1.0000 0.76290  0.77830  0.27030  Biso   1.000  H
  H20      1.0000 0.23710  0.27830  0.22970  Biso   1.000  H
  C33      1.0000 0.31560  0.16190  0.80750  Biso   1.000  C
  C34      1.0000 0.68440  0.66190  0.69250  Biso   1.000  C
  C35      1.0000 0.68440  0.83810  0.19250  Biso   1.000  C
  C36      1.0000 0.31560  0.33810  0.30750  Biso   1.000  C
  H21      1.0000 0.32290  0.18760  0.87070  Biso   1.000  H
  H22      1.0000 0.67710  0.68760  0.62930  Biso   1.000  H
  H23      1.0000 0.67710  0.81240  0.12930  Biso   1.000  H
  H24      1.0000 0.32290  0.31240  0.37070  Biso   1.000  H
  C37      1.0000 0.35360  0.09960  0.78920  Biso   1.000  C
  C38      1.0000 0.64640  0.59960  0.71080  Biso   1.000  C
  C39      1.0000 0.64640  0.90040  0.21080  Biso   1.000  C
  C40      1.0000 0.35360  0.40040  0.28920  Biso   1.000  C
  C41      1.0000 0.40800  0.06450  0.86380  Biso   1.000  C
  C42      1.0000 0.59200  0.56450  0.63620  Biso   1.000  C
  C43      1.0000 0.59200  0.93550  0.13620  Biso   1.000  C
  C44      1.0000 0.40800  0.43550  0.36380  Biso   1.000  C
  C45      1.0000 0.01070  0.22780  0.25460  Biso   1.000  C
  C46      1.0000 0.98930  0.72780  0.24540  Biso   1.000  C
  C47      1.0000 0.98930  0.77220  0.74540  Biso   1.000  C
  C48      1.0000 0.01070  0.27220  0.75460  Biso   1.000  C
  C49      1.0000 0.99860  0.27780  0.17350  Biso   1.000  C
  C50      1.0000 0.00140  0.77780  0.32650  Biso   1.000  C
  C51      1.0000 0.00140  0.72220  0.82650  Biso   1.000  C
  C52      1.0000 0.99860  0.22220  0.67350  Biso   1.000  C
  H25      1.0000 0.03360  0.27980  0.11460  Biso   1.000  H
  H26      1.0000 0.96640  0.77980  0.38540  Biso   1.000  H
  H27      1.0000 0.96640  0.72020  0.88540  Biso   1.000  H
  H28      1.0000 0.03360  0.22020  0.61460  Biso   1.000  H
  C53      1.0000 0.93540  0.32340  0.18220  Biso   1.000  C
  C54      1.0000 0.06460  0.82340  0.31780  Biso   1.000  C
  C55      1.0000 0.06460  0.67660  0.81780  Biso   1.000  C
  C56      1.0000 0.93540  0.17660  0.68220  Biso   1.000  C
  H29      1.0000 0.92480  0.35420  0.12570  Biso   1.000  H
  H30      1.0000 0.07520  0.85420  0.37430  Biso   1.000  H
  H31      1.0000 0.07520  0.64580  0.87430  Biso   1.000  H
  H32      1.0000 0.92480  0.14580  0.62570  Biso   1.000  H
  C57      1.0000 0.88620  0.32510  0.27310  Biso   1.000  C
  C58      1.0000 0.11380  0.82510  0.22690  Biso   1.000  C
  C59      1.0000 0.11380  0.67490  0.72690  Biso   1.000  C
  C60      1.0000 0.88620  0.17490  0.77310  Biso   1.000  C
  C61      1.0000 0.89950  0.27570  0.35460  Biso   1.000  C
  C62      1.0000 0.10050  0.77570  0.14540  Biso   1.000  C
  C63      1.0000 0.10050  0.72430  0.64540  Biso   1.000  C
  C64      1.0000 0.89950  0.22430  0.85460  Biso   1.000  C
  H33      1.0000 0.86690  0.27600  0.41600  Biso   1.000  H
  H34      1.0000 0.13310  0.77600  0.08400  Biso   1.000  H
  H35      1.0000 0.13310  0.72400  0.58400  Biso   1.000  H
  H36      1.0000 0.86690  0.22400  0.91600  Biso   1.000  H
  C65      1.0000 0.96010  0.22690  0.34470  Biso   1.000  C
  C66      1.0000 0.03990  0.72690  0.15530  Biso   1.000  C
  C67      1.0000 0.03990  0.77310  0.65530  Biso   1.000  C
  C68      1.0000 0.96010  0.27310  0.84470  Biso   1.000  C
  H37      1.0000 0.96740  0.19340  0.39800  Biso   1.000  H
  H38      1.0000 0.03260  0.69340  0.10200  Biso   1.000  H
  H39      1.0000 0.03260  0.80660  0.60200  Biso   1.000  H
  H40      1.0000 0.96740  0.30660  0.89800  Biso   1.000  H
  C69      1.0000 0.81760  0.37830  0.27780  Biso   1.000  C
  C70      1.0000 0.18240  0.87830  0.22220  Biso   1.000  C
  C71      1.0000 0.18240  0.62170  0.72220  Biso   1.000  C
  C72      1.0000 0.81760  0.12170  0.77780  Biso   1.000  C
  C73      1.0000 0.79620  0.42690  0.21010  Biso   1.000  C
  C74      1.0000 0.20380  0.92690  0.28990  Biso   1.000  C
  C75      1.0000 0.20380  0.57310  0.78990  Biso   1.000  C
  C76      1.0000 0.79620  0.07310  0.71010  Biso   1.000  C
  H41      1.0000 0.82400  0.43600  0.14620  Biso   1.000  H
  H42      1.0000 0.17600  0.93600  0.35380  Biso   1.000  H
  H43      1.0000 0.17600  0.56400  0.85380  Biso   1.000  H
  H44      1.0000 0.82400  0.06400  0.64620  Biso   1.000  H
  C77      1.0000 0.72970  0.46280  0.24180  Biso   1.000  C
  C78      1.0000 0.27030  0.96280  0.25820  Biso   1.000  C
  C79      1.0000 0.27030  0.53720  0.75820  Biso   1.000  C
  C80      1.0000 0.72970  0.03720  0.74180  Biso   1.000  C
  H45      1.0000 0.70650  0.49790  0.19980  Biso   1.000  H
  H46      1.0000 0.29350  0.99790  0.30020  Biso   1.000  H
  H47      1.0000 0.29350  0.50210  0.80020  Biso   1.000  H
  H48      1.0000 0.70650  0.00210  0.69980  Biso   1.000  H
  C81      1.0000 0.69950  0.44460  0.33730  Biso   1.000  C
  C82      1.0000 0.30050  0.94460  0.16270  Biso   1.000  C
  C83      1.0000 0.30050  0.55540  0.66270  Biso   1.000  C
  C84      1.0000 0.69950  0.05540  0.83730  Biso   1.000  C
  C85      1.0000 0.62470  0.46970  0.39540  Biso   1.000  C
  C86      1.0000 0.37530  0.96970  0.10460  Biso   1.000  C
  C87      1.0000 0.37530  0.53030  0.60460  Biso   1.000  C
  C88      1.0000 0.62470  0.03030  0.89540  Biso   1.000  C
  C89      1.0000 0.08510  0.13820  0.15200  Biso   1.000  C
  C90      1.0000 0.91490  0.63820  0.34800  Biso   1.000  C
  C91      1.0000 0.91490  0.86180  0.84800  Biso   1.000  C
  C92      1.0000 0.08510  0.36180  0.65200  Biso   1.000  C
  C93      1.0000 0.16210  0.11290  0.11720  Biso   1.000  C
  C94      1.0000 0.83790  0.61290  0.38280  Biso   1.000  C
  C95      1.0000 0.83790  0.88710  0.88280  Biso   1.000  C
  C96      1.0000 0.16210  0.38710  0.61720  Biso   1.000  C
  H49      1.0000 0.20900  0.12160  0.15940  Biso   1.000  H
  H50      1.0000 0.79100  0.62160  0.34060  Biso   1.000  H
  H51      1.0000 0.79100  0.87840  0.84060  Biso   1.000  H
  H52      1.0000 0.20900  0.37840  0.65940  Biso   1.000  H
  C97      1.0000 0.16960  0.07710  0.02640  Biso   1.000  C
  C98      1.0000 0.83040  0.57710  0.47360  Biso   1.000  C
  C99      1.0000 0.83040  0.92290  0.97360  Biso   1.000  C
  C100     1.0000 0.16960  0.42290  0.52640  Biso   1.000  C
  H53      1.0000 0.22150  0.06090  0.00780  Biso   1.000  H
  H54      1.0000 0.77850  0.56090  0.49220  Biso   1.000  H
  H55      1.0000 0.77850  0.93910  0.99220  Biso   1.000  H
  H56      1.0000 0.22150  0.43910  0.50780  Biso   1.000  H
  C101     1.0000 0.10280  0.06260  0.95780  Biso   1.000  C
  C102     1.0000 0.89720  0.56260  0.54220  Biso   1.000  C
  C103     1.0000 0.89720  0.93740  0.04220  Biso   1.000  C
  C104     1.0000 0.10280  0.43740  0.45780  Biso   1.000  C
  C105     1.0000 0.02630  0.08620  0.98870  Biso   1.000  C
  C106     1.0000 0.97370  0.58620  0.51130  Biso   1.000  C
  C107     1.0000 0.97370  0.91380  0.01130  Biso   1.000  C
  C108     1.0000 0.02630  0.41380  0.48870  Biso   1.000  C
  H57      1.0000 0.98040  0.07760  0.94440  Biso   1.000  H
  H58      1.0000 0.01960  0.57760  0.55560  Biso   1.000  H
  H59      1.0000 0.01960  0.92240  0.05560  Biso   1.000  H
  H60      1.0000 0.98040  0.42240  0.44440  Biso   1.000  H
  C109     1.0000 0.01710  0.12230  0.08400  Biso   1.000  C
  C110     1.0000 0.98290  0.62230  0.41600  Biso   1.000  C
  C111     1.0000 0.98290  0.87770  0.91600  Biso   1.000  C
  C112     1.0000 0.01710  0.37770  0.58400  Biso   1.000  C
  H61      1.0000 0.96460  0.13640  0.10400  Biso   1.000  H
  H62      1.0000 0.03540  0.63640  0.39600  Biso   1.000  H
  H63      1.0000 0.03540  0.86360  0.89600  Biso   1.000  H
  H64      1.0000 0.96460  0.36360  0.60400  Biso   1.000  H
  C113     1.0000 0.10790  0.02380  0.85760  Biso   1.000  C
  C114     1.0000 0.89210  0.52380  0.64240  Biso   1.000  C
  C115     1.0000 0.89210  0.97620  0.14240  Biso   1.000  C
  C116     1.0000 0.10790  0.47620  0.35760  Biso   1.000  C
  C117     1.0000 0.05550  0.02590  0.76580  Biso   1.000  C
  C118     1.0000 0.94450  0.52590  0.73420  Biso   1.000  C
  C119     1.0000 0.94450  0.97410  0.23420  Biso   1.000  C
  C120     1.0000 0.05550  0.47410  0.26580  Biso   1.000  C
  H65      1.0000 0.01000  0.05500  0.75980  Biso   1.000  H
  H66      1.0000 0.99000  0.55500  0.74020  Biso   1.000  H
  H67      1.0000 0.99000  0.94500  0.24020  Biso   1.000  H
  H68      1.0000 0.01000  0.44500  0.25980  Biso   1.000  H
  C121     1.0000 0.07820  0.98030  0.68530  Biso   1.000  C
  C122     1.0000 0.92180  0.48030  0.81470  Biso   1.000  C
  C123     1.0000 0.92180  0.01970  0.31470  Biso   1.000  C
  C124     1.0000 0.07820  0.51970  0.18530  Biso   1.000  C
  H69      1.0000 0.04740  0.97240  0.62220  Biso   1.000  H
  H70      1.0000 0.95260  0.47240  0.87780  Biso   1.000  H
  H71      1.0000 0.95260  0.02760  0.37780  Biso   1.000  H
  H72      1.0000 0.04740  0.52760  0.12220  Biso   1.000  H
  C125     1.0000 0.15150  0.94810  0.70960  Biso   1.000  C
  C126     1.0000 0.84850  0.44810  0.79040  Biso   1.000  C
  C127     1.0000 0.84850  0.05190  0.29040  Biso   1.000  C
  C128     1.0000 0.15150  0.55190  0.20960  Biso   1.000  C
  C129     1.0000 0.19980  0.90090  0.62960  Biso   1.000  C
  C130     1.0000 0.80020  0.40090  0.87040  Biso   1.000  C
  C131     1.0000 0.80020  0.09910  0.37040  Biso   1.000  C
  C132     1.0000 0.19980  0.59910  0.12960  Biso   1.000  C
  C133     1.0000 0.40300  0.82470  0.86640  Biso   1.000  C
  C134     1.0000 0.59700  0.32470  0.63360  Biso   1.000  C
  C135     1.0000 0.59700  0.17530  0.13360  Biso   1.000  C
  C136     1.0000 0.40300  0.67530  0.36640  Biso   1.000  C
  H73      1.0000 0.36610  0.85170  0.90480  Biso   1.000  H
  H74      1.0000 0.63390  0.35170  0.59520  Biso   1.000  H
  H75      1.0000 0.63390  0.14830  0.09520  Biso   1.000  H
  H76      1.0000 0.36610  0.64830  0.40480  Biso   1.000  H
  C137     1.0000 0.43000  0.71360  0.77300  Biso   1.000  C
  C138     1.0000 0.57000  0.21360  0.72700  Biso   1.000  C
  C139     1.0000 0.57000  0.28640  0.22700  Biso   1.000  C
  C140     1.0000 0.43000  0.78640  0.27300  Biso   1.000  C
  H77      1.0000 0.47390  0.73800  0.73940  Biso   1.000  H
  H78      1.0000 0.52610  0.23800  0.76060  Biso   1.000  H
  H79      1.0000 0.52610  0.26200  0.26060  Biso   1.000  H
  H80      1.0000 0.47390  0.76200  0.23940  Biso   1.000  H
  H81      1.0000 0.45190  0.68080  0.82420  Biso   1.000  H
  H82      1.0000 0.54810  0.18080  0.67580  Biso   1.000  H
  H83      1.0000 0.54810  0.31920  0.17580  Biso   1.000  H
  H84      1.0000 0.45190  0.81920  0.32420  Biso   1.000  H
  H85      1.0000 0.39760  0.68970  0.71870  Biso   1.000  H
  H86      1.0000 0.60240  0.18970  0.78130  Biso   1.000  H
  H87      1.0000 0.60240  0.31030  0.28130  Biso   1.000  H
  H88      1.0000 0.39760  0.81030  0.21870  Biso   1.000  H
  C141     1.0000 0.28510  0.75370  0.84000  Biso   1.000  C
  C142     1.0000 0.71490  0.25370  0.66000  Biso   1.000  C
  C143     1.0000 0.71490  0.24630  0.16000  Biso   1.000  C
  C144     1.0000 0.28510  0.74630  0.34000  Biso   1.000  C
  H89      1.0000 0.26990  0.70880  0.81300  Biso   1.000  H
  H90      1.0000 0.73010  0.20880  0.68700  Biso   1.000  H
  H91      1.0000 0.73010  0.29120  0.18700  Biso   1.000  H
  H92      1.0000 0.26990  0.79120  0.31300  Biso   1.000  H
  H93      1.0000 0.27000  0.75750  0.91470  Biso   1.000  H
  H94      1.0000 0.73000  0.25750  0.58530  Biso   1.000  H
  H95      1.0000 0.73000  0.24250  0.08530  Biso   1.000  H
  H96      1.0000 0.27000  0.74250  0.41470  Biso   1.000  H
  H97      1.0000 0.25680  0.78850  0.79820  Biso   1.000  H
  H98      1.0000 0.74320  0.28850  0.70180  Biso   1.000  H
  H99      1.0000 0.74320  0.21150  0.20180  Biso   1.000  H
  H100     1.0000 0.25680  0.71150  0.29820  Biso   1.000  H
  C145     1.0000 0.31100  0.72000  0.87900  Biso   1.000  C
  C146     1.0000 0.68900  0.22000  0.62100  Biso   1.000  C
  C147     1.0000 0.68900  0.28000  0.12100  Biso   1.000  C
  C148     1.0000 0.31100  0.78000  0.37900  Biso   1.000  C
  H101     1.0000 0.30400  0.67810  0.83690  Biso   1.000  H
  H102     1.0000 0.69600  0.17810  0.66310  Biso   1.000  H
  H103     1.0000 0.69600  0.32190  0.16310  Biso   1.000  H
  H104     1.0000 0.30400  0.82190  0.33690  Biso   1.000  H
  H105     1.0000 0.32630  0.70770  0.95220  Biso   1.000  H
  H106     1.0000 0.67370  0.20770  0.54780  Biso   1.000  H
  H107     1.0000 0.67370  0.29230  0.04780  Biso   1.000  H
  H108     1.0000 0.32630  0.79230  0.45220  Biso   1.000  H
  H109     1.0000 0.25970  0.74460  0.87910  Biso   1.000  H
  H110     1.0000 0.74030  0.24460  0.62090  Biso   1.000  H
  H111     1.0000 0.74030  0.25540  0.12090  Biso   1.000  H
  H112     1.0000 0.25970  0.75540  0.37910  Biso   1.000  H
  O29      1.0000 0.47900  0.55000  0.05500  Biso   1.000  O
  O30      1.0000 0.52100  0.05000  0.44500  Biso   1.000  O
  O31      1.0000 0.52100  0.45000  0.94500  Biso   1.000  O
  O32      1.0000 0.47900  0.95000  0.55500  Biso   1.000  O
  C149     1.0000 0.44700  0.60600  0.05800  Biso   1.000  C
  C150     1.0000 0.55300  0.10600  0.44200  Biso   1.000  C
  C151     1.0000 0.55300  0.39400  0.94200  Biso   1.000  C
  C152     1.0000 0.44700  0.89400  0.55800  Biso   1.000  C
  H113     1.0000 0.39160  0.61730  0.04500  Biso   1.000  H
  H114     1.0000 0.60840  0.11730  0.45500  Biso   1.000  H
  H115     1.0000 0.60840  0.38270  0.95500  Biso   1.000  H
  H116     1.0000 0.39160  0.88270  0.54500  Biso   1.000  H
  C153     1.0000 0.58110  0.63600  0.17820  Biso   1.000  C
  C154     1.0000 0.41890  0.13600  0.32180  Biso   1.000  C
  C155     1.0000 0.41890  0.36400  0.82180  Biso   1.000  C
  C156     1.0000 0.58110  0.86400  0.67820  Biso   1.000  C
  H117     1.0000 0.62150  0.67150  0.18690  Biso   1.000  H
  H118     1.0000 0.37850  0.17150  0.31310  Biso   1.000  H
  H119     1.0000 0.37850  0.32850  0.81310  Biso   1.000  H
  H120     1.0000 0.62150  0.82850  0.68690  Biso   1.000  H
  H121     1.0000 0.55260  0.62930  0.24520  Biso   1.000  H
  H122     1.0000 0.44740  0.12930  0.25480  Biso   1.000  H
  H123     1.0000 0.44740  0.37070  0.75480  Biso   1.000  H
  H124     1.0000 0.55260  0.87070  0.74520  Biso   1.000  H
  H125     1.0000 0.60800  0.59330  0.15890  Biso   1.000  H
  H126     1.0000 0.39200  0.09330  0.34110  Biso   1.000  H
  H127     1.0000 0.39200  0.40670  0.84110  Biso   1.000  H
  H128     1.0000 0.60800  0.90670  0.65890  Biso   1.000  H
  O33      1.0000 0.38180  0.67390  0.06890  Biso   1.000  O
  O34      1.0000 0.61820  0.17390  0.43110  Biso   1.000  O
  O35      1.0000 0.61820  0.32610  0.93110  Biso   1.000  O
  O36      1.0000 0.38180  0.82610  0.56890  Biso   1.000  O
  C157     1.0000 0.42980  0.63060  0.10000  Biso   1.000  C
  C158     1.0000 0.57020  0.13060  0.40000  Biso   1.000  C
  C159     1.0000 0.57020  0.36940  0.90000  Biso   1.000  C
  C160     1.0000 0.42980  0.86940  0.60000  Biso   1.000  C
  H129     1.0000 0.41510  0.58790  0.12860  Biso   1.000  H
  H130     1.0000 0.58490  0.08790  0.37140  Biso   1.000  H
  H131     1.0000 0.58490  0.41210  0.87140  Biso   1.000  H
  H132     1.0000 0.41510  0.91210  0.62860  Biso   1.000  H
  C161     1.0000 0.59120  0.61800  0.14400  Biso   1.000  C
  C162     1.0000 0.40880  0.11800  0.35600  Biso   1.000  C
  C163     1.0000 0.40880  0.38200  0.85600  Biso   1.000  C
  C164     1.0000 0.59120  0.88200  0.64400  Biso   1.000  C
  H133     1.0000 0.64200  0.64040  0.12750  Biso   1.000  H
  H134     1.0000 0.35800  0.14040  0.37250  Biso   1.000  H
  H135     1.0000 0.35800  0.35960  0.87250  Biso   1.000  H
  H136     1.0000 0.64200  0.85960  0.62750  Biso   1.000  H
  H137     1.0000 0.58360  0.61810  0.22130  Biso   1.000  H
  H138     1.0000 0.41640  0.11810  0.27870  Biso   1.000  H
  H139     1.0000 0.41640  0.38190  0.77870  Biso   1.000  H
  H140     1.0000 0.58360  0.88190  0.72130  Biso   1.000  H
  H141     1.0000 0.59300  0.57080  0.11900  Biso   1.000  H
  H142     1.0000 0.40700  0.07080  0.38100  Biso   1.000  H
  H143     1.0000 0.40700  0.42920  0.88100  Biso   1.000  H
  H144     1.0000 0.59300  0.92920  0.61900  Biso   1.000  H
  N9       1.0000 0.51850  0.65600  0.08750  Biso   1.000  N
  N10      1.0000 0.48150  0.15600  0.41250  Biso   1.000  N
  N11      1.0000 0.48150  0.34400  0.91250  Biso   1.000  N
  N12      1.0000 0.51850  0.84400  0.58750  Biso   1.000  N
  C165     1.0000 0.53740  0.71830  0.01400  Biso   1.000  C
  C166     1.0000 0.46260  0.21830  0.48600  Biso   1.000  C
  C167     1.0000 0.46260  0.28170  0.98600  Biso   1.000  C
  C168     1.0000 0.53740  0.78170  0.51400  Biso   1.000  C
  H145     1.0000 0.58340  0.74350  0.04390  Biso   1.000  H
  H146     1.0000 0.41660  0.24350  0.45610  Biso   1.000  H
  H147     1.0000 0.41660  0.25650  0.95610  Biso   1.000  H
  H148     1.0000 0.58340  0.75650  0.54390  Biso   1.000  H
  H149     1.0000 0.55060  0.70210  0.94270  Biso   1.000  H
  H150     1.0000 0.44940  0.20210  0.55730  Biso   1.000  H
  H151     1.0000 0.44940  0.29790  0.05730  Biso   1.000  H
  H152     1.0000 0.55060  0.79790  0.44270  Biso   1.000  H
  H153     1.0000 0.49000  0.74790  0.00940  Biso   1.000  H
  H154     1.0000 0.51000  0.24790  0.49060  Biso   1.000  H
  H155     1.0000 0.51000  0.25210  0.99060  Biso   1.000  H
  H156     1.0000 0.49000  0.75210  0.50940  Biso   1.000  H
