data_image0
_cell_length_a       8.1285
_cell_length_b       11.1068
_cell_length_c       10.566
_cell_angle_alpha    90
_cell_angle_beta     100.282
_cell_angle_gamma    90

_symmetry_space_group_name_H-M    "P 1"
_symmetry_int_tables_number       1

loop_
  _symmetry_equiv_pos_as_xyz
  'x, y, z'

loop_
  _atom_site_label
  _atom_site_occupancy
  _atom_site_fract_x
  _atom_site_fract_y
  _atom_site_fract_z
  _atom_site_thermal_displace_type
  _atom_site_B_iso_or_equiv
  _atom_site_type_symbol
  Cu1      1.0000 0.65787  0.10335  0.38266  Biso   1.000  Cu
  Cu2      1.0000 0.84213  0.60335  0.61734  Biso   1.000  Cu
  Cu3      1.0000 0.34213  0.89665  0.61734  Biso   1.000  Cu
  Cu4      1.0000 0.15787  0.39665  0.38266  Biso   1.000  Cu
  O1       1.0000 0.51420  0.14650  0.21780  Biso   1.000  O
  O2       1.0000 0.98580  0.64650  0.78220  Biso   1.000  O
  O3       1.0000 0.48580  0.85350  0.78220  Biso   1.000  O
  O4       1.0000 0.01420  0.35350  0.21780  Biso   1.000  O
  N1       1.0000 0.37040  0.25930  0.35040  Biso   1.000  N
  N2       1.0000 0.12960  0.75930  0.64960  Biso   1.000  N
  N3       1.0000 0.62960  0.74070  0.64960  Biso   1.000  N
  N4       1.0000 0.87040  0.24070  0.35040  Biso   1.000  N
  N5       1.0000 0.48850  0.20480  0.44110  Biso   1.000  N
  N6       1.0000 0.01150  0.70480  0.55890  Biso   1.000  N
  N7       1.0000 0.51150  0.79520  0.55890  Biso   1.000  N
  N8       1.0000 0.98850  0.29520  0.44110  Biso   1.000  N
  N9       1.0000 0.71580  0.07020  0.57280  Biso   1.000  N
  N10      1.0000 0.78420  0.57020  0.42720  Biso   1.000  N
  N11      1.0000 0.28420  0.92980  0.42720  Biso   1.000  N
  N12      1.0000 0.21580  0.42980  0.57280  Biso   1.000  N
  N13      1.0000 0.29870  0.26270  0.12760  Biso   1.000  N
  N14      1.0000 0.20130  0.76270  0.87240  Biso   1.000  N
  N15      1.0000 0.70130  0.73730  0.87240  Biso   1.000  N
  N16      1.0000 0.79870  0.23730  0.12760  Biso   1.000  N
  H1       1.0000 0.21500  0.29600  0.13700  Biso   1.000  H
  H2       1.0000 0.28500  0.79600  0.86300  Biso   1.000  H
  H3       1.0000 0.78500  0.70400  0.86300  Biso   1.000  H
  H4       1.0000 0.71500  0.20400  0.13700  Biso   1.000  H
  H5       1.0000 0.30300  0.22800  0.06300  Biso   1.000  H
  H6       1.0000 0.19700  0.72800  0.93700  Biso   1.000  H
  H7       1.0000 0.69700  0.77200  0.93700  Biso   1.000  H
  H8       1.0000 0.80300  0.27200  0.06300  Biso   1.000  H
  N17      1.0000 0.76780  0.95650  0.32660  Biso   1.000  N
  N18      1.0000 0.73220  0.45650  0.67340  Biso   1.000  N
  N19      1.0000 0.23220  0.04350  0.67340  Biso   1.000  N
  N20      1.0000 0.26780  0.54350  0.32660  Biso   1.000  N
  N21      1.0000 0.75600  0.93400  0.21590  Biso   1.000  N
  N22      1.0000 0.74400  0.43400  0.78410  Biso   1.000  N
  N23      1.0000 0.24400  0.06600  0.78410  Biso   1.000  N
  N24      1.0000 0.25600  0.56600  0.21590  Biso   1.000  N
  N25      1.0000 0.74900  0.89900  0.11140  Biso   1.000  N
  N26      1.0000 0.75100  0.39900  0.88860  Biso   1.000  N
  N27      1.0000 0.25100  0.10100  0.88860  Biso   1.000  N
  N28      1.0000 0.24900  0.60100  0.11140  Biso   1.000  N
  C1       1.0000 0.62240  0.13840  0.64090  Biso   1.000  C
  C2       1.0000 0.87760  0.63840  0.35910  Biso   1.000  C
  C3       1.0000 0.37760  0.86160  0.35910  Biso   1.000  C
  C4       1.0000 0.12240  0.36160  0.64090  Biso   1.000  C
  C5       1.0000 0.87030  0.99390  0.76880  Biso   1.000  C
  C6       1.0000 0.62970  0.49390  0.23120  Biso   1.000  C
  C7       1.0000 0.12970  0.00610  0.23120  Biso   1.000  C
  C8       1.0000 0.37030  0.50610  0.76880  Biso   1.000  C
  H9       1.0000 0.95710  0.94330  0.81120  Biso   1.000  H
  H10      1.0000 0.54290  0.44330  0.18880  Biso   1.000  H
  H11      1.0000 0.04290  0.05670  0.18880  Biso   1.000  H
  H12      1.0000 0.45710  0.55670  0.81120  Biso   1.000  H
  C9       1.0000 0.39820  0.22040  0.23360  Biso   1.000  C
  C10      1.0000 0.10180  0.72040  0.76640  Biso   1.000  C
  C11      1.0000 0.60180  0.77960  0.76640  Biso   1.000  C
  C12      1.0000 0.89820  0.27960  0.23360  Biso   1.000  C
  C13      1.0000 0.65000  0.13560  0.77390  Biso   1.000  C
  C14      1.0000 0.85000  0.63560  0.22610  Biso   1.000  C
  C15      1.0000 0.35000  0.86440  0.22610  Biso   1.000  C
  C16      1.0000 0.15000  0.36440  0.77390  Biso   1.000  C
  H13      1.0000 0.58330  0.18290  0.82000  Biso   1.000  H
  H14      1.0000 0.91670  0.68290  0.18000  Biso   1.000  H
  H15      1.0000 0.41670  0.81710  0.18000  Biso   1.000  H
  H16      1.0000 0.08330  0.31710  0.82000  Biso   1.000  H
  C17      1.0000 0.83630  0.99970  0.63580  Biso   1.000  C
  C18      1.0000 0.66370  0.49970  0.36420  Biso   1.000  C
  C19      1.0000 0.16370  0.00030  0.36420  Biso   1.000  C
  C20      1.0000 0.33630  0.50030  0.63580  Biso   1.000  C
  H17      1.0000 0.90050  0.95210  0.58790  Biso   1.000  H
  H18      1.0000 0.59950  0.45210  0.41210  Biso   1.000  H
  H19      1.0000 0.09950  0.04790  0.41210  Biso   1.000  H
  H20      1.0000 0.40050  0.54790  0.58790  Biso   1.000  H
  C21      1.0000 0.49200  0.21020  0.56350  Biso   1.000  C
  C22      1.0000 0.00800  0.71020  0.43650  Biso   1.000  C
  C23      1.0000 0.50800  0.78980  0.43650  Biso   1.000  C
  C24      1.0000 0.99200  0.28980  0.56350  Biso   1.000  C
  H21      1.0000 0.41540  0.25750  0.60030  Biso   1.000  H
  H22      1.0000 0.08460  0.75750  0.39970  Biso   1.000  H
  H23      1.0000 0.58460  0.74250  0.39970  Biso   1.000  H
  H24      1.0000 0.91540  0.24250  0.60030  Biso   1.000  H
  C25      1.0000 0.77670  0.06260  0.83940  Biso   1.000  C
  C26      1.0000 0.72330  0.56260  0.16060  Biso   1.000  C
  C27      1.0000 0.22330  0.93740  0.16060  Biso   1.000  C
  C28      1.0000 0.27670  0.43740  0.83940  Biso   1.000  C
  H25      1.0000 0.79850  0.06000  0.93070  Biso   1.000  H
  H26      1.0000 0.70150  0.56000  0.06930  Biso   1.000  H
  H27      1.0000 0.20150  0.94000  0.06930  Biso   1.000  H
  H28      1.0000 0.29850  0.44000  0.93070  Biso   1.000  H
  N29      1.0000 0.73300  0.92700  0.21800  Biso   1.000  N
  N30      1.0000 0.76700  0.42700  0.78200  Biso   1.000  N
  N31      1.0000 0.26700  0.07300  0.78200  Biso   1.000  N
  N32      1.0000 0.23300  0.57300  0.21800  Biso   1.000  N
  N33      1.0000 0.71000  0.90100  0.10900  Biso   1.000  N
  N34      1.0000 0.79000  0.40100  0.89100  Biso   1.000  N
  N35      1.0000 0.29000  0.09900  0.89100  Biso   1.000  N
  N36      1.0000 0.21000  0.59900  0.10900  Biso   1.000  N
