data_image0
_cell_length_a       10.53
_cell_length_b       11.1368
_cell_length_c       8.09356
_cell_angle_alpha    90
_cell_angle_beta     99.9107
_cell_angle_gamma    90

_symmetry_space_group_name_H-M    "P 1"
_symmetry_int_tables_number       1

loop_
  _symmetry_equiv_pos_as_xyz
  'x, y, z'

loop_
  _atom_site_label
  _atom_site_occupancy
  _atom_site_fract_x
  _atom_site_fract_y
  _atom_site_fract_z
  _atom_site_thermal_displace_type
  _atom_site_B_iso_or_equiv
  _atom_site_type_symbol
  Cu1      1.0000 0.38253  0.60300  0.15835  Biso   1.000  Cu
  Cu2      1.0000 0.61747  0.10300  0.34165  Biso   1.000  Cu
  Cu3      1.0000 0.61747  0.39700  0.84165  Biso   1.000  Cu
  Cu4      1.0000 0.38253  0.89700  0.65835  Biso   1.000  Cu
  O1       1.0000 0.21771  0.64566  0.01533  Biso   1.000  O
  O2       1.0000 0.78229  0.14566  0.48467  Biso   1.000  O
  O3       1.0000 0.78229  0.35434  0.98467  Biso   1.000  O
  O4       1.0000 0.21771  0.85434  0.51533  Biso   1.000  O
  N1       1.0000 0.32791  0.45960  0.26750  Biso   1.000  N
  N2       1.0000 0.67209  0.95960  0.23250  Biso   1.000  N
  N3       1.0000 0.67209  0.54040  0.73250  Biso   1.000  N
  N4       1.0000 0.32791  0.04040  0.76750  Biso   1.000  N
  N5       1.0000 0.21692  0.43067  0.25020  Biso   1.000  N
  N6       1.0000 0.78308  0.93067  0.24980  Biso   1.000  N
  N7       1.0000 0.78308  0.56933  0.74980  Biso   1.000  N
  N8       1.0000 0.21692  0.06933  0.75020  Biso   1.000  N
  N9       1.0000 0.11158  0.39805  0.23940  Biso   1.000  N
  N10      1.0000 0.88842  0.89805  0.26060  Biso   1.000  N
  N11      1.0000 0.88842  0.60195  0.76060  Biso   1.000  N
  N12      1.0000 0.11158  0.10195  0.73940  Biso   1.000  N
  N13      1.0000 0.12732  0.76343  0.80040  Biso   1.000  N
  N14      1.0000 0.87268  0.26343  0.69960  Biso   1.000  N
  N15      1.0000 0.87268  0.23657  0.19960  Biso   1.000  N
  N16      1.0000 0.12732  0.73657  0.30040  Biso   1.000  N
  H1       1.0000 0.14040  0.79520  0.70510  Biso   1.000  H
  H2       1.0000 0.85960  0.29520  0.79490  Biso   1.000  H
  H3       1.0000 0.85960  0.20480  0.29490  Biso   1.000  H
  H4       1.0000 0.14040  0.70480  0.20510  Biso   1.000  H
  H5       1.0000 0.06100  0.72460  0.80570  Biso   1.000  H
  H6       1.0000 0.93900  0.22460  0.69430  Biso   1.000  H
  H7       1.0000 0.93900  0.27540  0.19430  Biso   1.000  H
  H8       1.0000 0.06100  0.77540  0.30570  Biso   1.000  H
  N17      1.0000 0.35021  0.75888  0.87160  Biso   1.000  N
  N18      1.0000 0.64979  0.25888  0.62840  Biso   1.000  N
  N19      1.0000 0.64979  0.24112  0.12840  Biso   1.000  N
  N20      1.0000 0.35021  0.74112  0.37160  Biso   1.000  N
  N21      1.0000 0.44121  0.70475  0.98910  Biso   1.000  N
  N22      1.0000 0.55879  0.20475  0.51090  Biso   1.000  N
  N23      1.0000 0.55879  0.29525  0.01090  Biso   1.000  N
  N24      1.0000 0.44121  0.79525  0.48910  Biso   1.000  N
  N25      1.0000 0.57317  0.57019  0.21510  Biso   1.000  N
  N26      1.0000 0.42683  0.07019  0.28490  Biso   1.000  N
  N27      1.0000 0.42683  0.42981  0.78490  Biso   1.000  N
  N28      1.0000 0.57317  0.92981  0.71510  Biso   1.000  N
  C1       1.0000 0.23327  0.72000  0.89930  Biso   1.000  C
  C2       1.0000 0.76673  0.22000  0.60070  Biso   1.000  C
  C3       1.0000 0.76673  0.28000  0.10070  Biso   1.000  C
  C4       1.0000 0.23327  0.78000  0.39930  Biso   1.000  C
  C5       1.0000 0.56353  0.71030  0.99090  Biso   1.000  C
  C6       1.0000 0.43647  0.21030  0.50910  Biso   1.000  C
  C7       1.0000 0.43647  0.28970  0.00910  Biso   1.000  C
  C8       1.0000 0.56353  0.78970  0.49090  Biso   1.000  C
  H9       1.0000 0.59960  0.75670  0.91530  Biso   1.000  H
  H10      1.0000 0.40040  0.25670  0.58470  Biso   1.000  H
  H11      1.0000 0.40040  0.24330  0.08470  Biso   1.000  H
  H12      1.0000 0.59960  0.74330  0.41530  Biso   1.000  H
  C9       1.0000 0.64147  0.63757  0.12150  Biso   1.000  C
  C10      1.0000 0.35853  0.13757  0.37850  Biso   1.000  C
  C11      1.0000 0.35853  0.36243  0.87850  Biso   1.000  C
  C12      1.0000 0.64147  0.86243  0.62150  Biso   1.000  C
  C13      1.0000 0.77530  0.63488  0.14740  Biso   1.000  C
  C14      1.0000 0.22470  0.13488  0.35260  Biso   1.000  C
  C15      1.0000 0.22470  0.36512  0.85260  Biso   1.000  C
  C16      1.0000 0.77530  0.86512  0.64740  Biso   1.000  C
  H13      1.0000 0.82080  0.68100  0.08170  Biso   1.000  H
  H14      1.0000 0.17920  0.18100  0.41830  Biso   1.000  H
  H15      1.0000 0.17920  0.31900  0.91830  Biso   1.000  H
  H16      1.0000 0.82080  0.81900  0.58170  Biso   1.000  H
  C17      1.0000 0.83970  0.56180  0.27370  Biso   1.000  C
  C18      1.0000 0.16030  0.06180  0.22630  Biso   1.000  C
  C19      1.0000 0.16030  0.43820  0.72630  Biso   1.000  C
  C20      1.0000 0.83970  0.93820  0.77370  Biso   1.000  C
  H17      1.0000 0.92930  0.55900  0.29420  Biso   1.000  H
  H18      1.0000 0.07070  0.05900  0.20580  Biso   1.000  H
  H19      1.0000 0.07070  0.44100  0.70580  Biso   1.000  H
  H20      1.0000 0.92930  0.94100  0.79420  Biso   1.000  H
  C21      1.0000 0.76970  0.49322  0.36900  Biso   1.000  C
  C22      1.0000 0.23030  0.99322  0.13100  Biso   1.000  C
  C23      1.0000 0.23030  0.50678  0.63100  Biso   1.000  C
  C24      1.0000 0.76970  0.00678  0.86900  Biso   1.000  C
  H21      1.0000 0.81150  0.44390  0.45400  Biso   1.000  H
  H22      1.0000 0.18850  0.94390  0.04600  Biso   1.000  H
  H23      1.0000 0.18850  0.55610  0.54600  Biso   1.000  H
  H24      1.0000 0.81150  0.05610  0.95400  Biso   1.000  H
  C25      1.0000 0.63610  0.49930  0.33540  Biso   1.000  C
  C26      1.0000 0.36390  0.99930  0.16460  Biso   1.000  C
  C27      1.0000 0.36390  0.50070  0.66460  Biso   1.000  C
  C28      1.0000 0.63610  0.00070  0.83540  Biso   1.000  C
  H25      1.0000 0.58890  0.45260  0.39840  Biso   1.000  H
  H26      1.0000 0.41110  0.95260  0.10160  Biso   1.000  H
  H27      1.0000 0.41110  0.54740  0.60160  Biso   1.000  H
  H28      1.0000 0.58890  0.04740  0.89840  Biso   1.000  H
