data_image0
_cell_length_a       8.537
_cell_length_b       11.292
_cell_length_c       21.66
_cell_angle_alpha    90
_cell_angle_beta     101.569
_cell_angle_gamma    90

_symmetry_space_group_name_H-M    "P 1"
_symmetry_int_tables_number       1

loop_
  _symmetry_equiv_pos_as_xyz
  'x, y, z'

loop_
  _atom_site_label
  _atom_site_occupancy
  _atom_site_fract_x
  _atom_site_fract_y
  _atom_site_fract_z
  _atom_site_thermal_displace_type
  _atom_site_B_iso_or_equiv
  _atom_site_type_symbol
  Cu1      1.0000 0.91015  0.42981  0.02453  Biso   1.000  Cu
  Cu2      1.0000 0.08985  0.92981  0.47547  Biso   1.000  Cu
  Cu3      1.0000 0.08985  0.57019  0.97547  Biso   1.000  Cu
  Cu4      1.0000 0.91015  0.07019  0.52453  Biso   1.000  Cu
  O1       1.0000 0.88240  0.33830  0.94617  Biso   1.000  O
  O2       1.0000 0.11760  0.83830  0.55383  Biso   1.000  O
  O3       1.0000 0.11760  0.66170  0.05383  Biso   1.000  O
  O4       1.0000 0.88240  0.16170  0.44617  Biso   1.000  O
  O5       1.0000 0.81710  0.29430  0.08249  Biso   1.000  O
  O6       1.0000 0.18290  0.79430  0.41751  Biso   1.000  O
  O7       1.0000 0.18290  0.70570  0.91751  Biso   1.000  O
  O8       1.0000 0.81710  0.20570  0.58249  Biso   1.000  O
  H1       1.0000 0.87300  0.26000  0.10600  Biso   1.000  H
  H2       1.0000 0.12700  0.76000  0.39400  Biso   1.000  H
  H3       1.0000 0.12700  0.74000  0.89400  Biso   1.000  H
  H4       1.0000 0.87300  0.24000  0.60600  Biso   1.000  H
  O9       1.0000 0.27350  0.47220  0.01344  Biso   1.000  O
  O10      1.0000 0.72650  0.97220  0.48656  Biso   1.000  O
  O11      1.0000 0.72650  0.52780  0.98656  Biso   1.000  O
  O12      1.0000 0.27350  0.02780  0.51344  Biso   1.000  O
  O13      1.0000 0.11460  0.35050  0.05494  Biso   1.000  O
  O14      1.0000 0.88540  0.85050  0.44506  Biso   1.000  O
  O15      1.0000 0.88540  0.64950  0.94506  Biso   1.000  O
  O16      1.0000 0.11460  0.14950  0.55494  Biso   1.000  O
  O17      1.0000 0.04280  0.45910  0.90457  Biso   1.000  O
  O18      1.0000 0.95720  0.95910  0.59543  Biso   1.000  O
  O19      1.0000 0.95720  0.54090  0.09543  Biso   1.000  O
  O20      1.0000 0.04280  0.04090  0.40457  Biso   1.000  O
  O21      1.0000 0.01860  0.30280  0.68622  Biso   1.000  O
  O22      1.0000 0.98140  0.80280  0.81378  Biso   1.000  O
  O23      1.0000 0.98140  0.69720  0.31378  Biso   1.000  O
  O24      1.0000 0.01860  0.19720  0.18622  Biso   1.000  O
  H5       1.0000 0.07330  0.36480  0.69440  Biso   1.000  H
  H6       1.0000 0.92670  0.86480  0.80560  Biso   1.000  H
  H7       1.0000 0.92670  0.63520  0.30560  Biso   1.000  H
  H8       1.0000 0.07330  0.13520  0.19440  Biso   1.000  H
  O25      1.0000 0.78890  0.99840  0.78895  Biso   1.000  O
  O26      1.0000 0.21110  0.49840  0.71105  Biso   1.000  O
  O27      1.0000 0.21110  0.00160  0.21105  Biso   1.000  O
  O28      1.0000 0.78890  0.50160  0.28895  Biso   1.000  O
  H9       1.0000 0.71850  0.99450  0.81100  Biso   1.000  H
  H10      1.0000 0.28150  0.49450  0.68900  Biso   1.000  H
  H11      1.0000 0.28150  0.00550  0.18900  Biso   1.000  H
  H12      1.0000 0.71850  0.50550  0.31100  Biso   1.000  H
  O29      1.0000 0.45810  0.02390  0.15459  Biso   1.000  O
  O30      1.0000 0.54190  0.52390  0.34541  Biso   1.000  O
  O31      1.0000 0.54190  0.97610  0.84541  Biso   1.000  O
  O32      1.0000 0.45810  0.47610  0.65459  Biso   1.000  O
  H13      1.0000 0.54480  0.99390  0.17320  Biso   1.000  H
  H14      1.0000 0.45520  0.49390  0.32680  Biso   1.000  H
  H15      1.0000 0.45520  0.00610  0.82680  Biso   1.000  H
  H16      1.0000 0.54480  0.50610  0.67320  Biso   1.000  H
  C1       1.0000 0.95370  0.36940  0.90342  Biso   1.000  C
  C2       1.0000 0.04630  0.86940  0.59658  Biso   1.000  C
  C3       1.0000 0.04630  0.63060  0.09658  Biso   1.000  C
  C4       1.0000 0.95370  0.13060  0.40342  Biso   1.000  C
  C5       1.0000 0.93160  0.29350  0.84543  Biso   1.000  C
  C6       1.0000 0.06840  0.79350  0.65457  Biso   1.000  C
  C7       1.0000 0.06840  0.70650  0.15457  Biso   1.000  C
  C8       1.0000 0.93160  0.20650  0.34543  Biso   1.000  C
  C9       1.0000 0.98750  0.33480  0.79295  Biso   1.000  C
  C10      1.0000 0.01250  0.83480  0.70705  Biso   1.000  C
  C11      1.0000 0.01250  0.66520  0.20705  Biso   1.000  C
  C12      1.0000 0.98750  0.16520  0.29295  Biso   1.000  C
  H17      1.0000 0.03810  0.40990  0.79410  Biso   1.000  H
  H18      1.0000 0.96190  0.90990  0.70590  Biso   1.000  H
  H19      1.0000 0.96190  0.59010  0.20590  Biso   1.000  H
  H20      1.0000 0.03810  0.09010  0.29410  Biso   1.000  H
  C13      1.0000 0.96840  0.26520  0.73939  Biso   1.000  C
  C14      1.0000 0.03160  0.76520  0.76061  Biso   1.000  C
  C15      1.0000 0.03160  0.73480  0.26061  Biso   1.000  C
  C16      1.0000 0.96840  0.23480  0.23939  Biso   1.000  C
  C17      1.0000 0.89850  0.15320  0.73771  Biso   1.000  C
  C18      1.0000 0.10150  0.65320  0.76229  Biso   1.000  C
  C19      1.0000 0.10150  0.84680  0.26229  Biso   1.000  C
  C20      1.0000 0.89850  0.34680  0.23771  Biso   1.000  C
  H21      1.0000 0.88530  0.10600  0.70070  Biso   1.000  H
  H22      1.0000 0.11470  0.60600  0.79930  Biso   1.000  H
  H23      1.0000 0.11470  0.89400  0.29930  Biso   1.000  H
  H24      1.0000 0.88530  0.39400  0.20070  Biso   1.000  H
  C21      1.0000 0.84840  0.11170  0.79099  Biso   1.000  C
  C22      1.0000 0.15160  0.61170  0.70901  Biso   1.000  C
  C23      1.0000 0.15160  0.88830  0.20901  Biso   1.000  C
  C24      1.0000 0.84840  0.38830  0.29099  Biso   1.000  C
  C25      1.0000 0.86250  0.18160  0.84473  Biso   1.000  C
  C26      1.0000 0.13750  0.68160  0.65527  Biso   1.000  C
  C27      1.0000 0.13750  0.81840  0.15527  Biso   1.000  C
  C28      1.0000 0.86250  0.31840  0.34473  Biso   1.000  C
  H25      1.0000 0.82540  0.15340  0.88050  Biso   1.000  H
  H26      1.0000 0.17460  0.65340  0.61950  Biso   1.000  H
  H27      1.0000 0.17460  0.84660  0.11950  Biso   1.000  H
  H28      1.0000 0.82540  0.34660  0.38050  Biso   1.000  H
  C29      1.0000 0.54130  0.33730  0.06628  Biso   1.000  C
  C30      1.0000 0.45870  0.83730  0.43372  Biso   1.000  C
  C31      1.0000 0.45870  0.66270  0.93372  Biso   1.000  C
  C32      1.0000 0.54130  0.16270  0.56628  Biso   1.000  C
  H29      1.0000 0.55970  0.40900  0.04600  Biso   1.000  H
  H30      1.0000 0.44030  0.90900  0.45400  Biso   1.000  H
  H31      1.0000 0.44030  0.59100  0.95400  Biso   1.000  H
  H32      1.0000 0.55970  0.09100  0.54600  Biso   1.000  H
  C33      1.0000 0.66710  0.26250  0.09042  Biso   1.000  C
  C34      1.0000 0.33290  0.76250  0.40958  Biso   1.000  C
  C35      1.0000 0.33290  0.73750  0.90958  Biso   1.000  C
  C36      1.0000 0.66710  0.23750  0.59042  Biso   1.000  C
  C37      1.0000 0.64350  0.15730  0.12016  Biso   1.000  C
  C38      1.0000 0.35650  0.65730  0.37984  Biso   1.000  C
  C39      1.0000 0.35650  0.84270  0.87984  Biso   1.000  C
  C40      1.0000 0.64350  0.34270  0.62016  Biso   1.000  C
  H33      1.0000 0.73100  0.10660  0.13620  Biso   1.000  H
  H34      1.0000 0.26900  0.60660  0.36380  Biso   1.000  H
  H35      1.0000 0.26900  0.89340  0.86380  Biso   1.000  H
  H36      1.0000 0.73100  0.39340  0.63620  Biso   1.000  H
  C41      1.0000 0.48840  0.12740  0.12611  Biso   1.000  C
  C42      1.0000 0.51160  0.62740  0.37389  Biso   1.000  C
  C43      1.0000 0.51160  0.87260  0.87389  Biso   1.000  C
  C44      1.0000 0.48840  0.37260  0.62611  Biso   1.000  C
  C45      1.0000 0.24870  0.38200  0.04493  Biso   1.000  C
  C46      1.0000 0.75130  0.88200  0.45507  Biso   1.000  C
  C47      1.0000 0.75130  0.61800  0.95507  Biso   1.000  C
  C48      1.0000 0.24870  0.11800  0.54493  Biso   1.000  C
  C49      1.0000 0.38820  0.30590  0.07218  Biso   1.000  C
  C50      1.0000 0.61180  0.80590  0.42782  Biso   1.000  C
  C51      1.0000 0.61180  0.69410  0.92782  Biso   1.000  C
  C52      1.0000 0.38820  0.19410  0.57218  Biso   1.000  C
  C53      1.0000 0.36050  0.20120  0.10173  Biso   1.000  C
  C54      1.0000 0.63950  0.70120  0.39827  Biso   1.000  C
  C55      1.0000 0.63950  0.79880  0.89827  Biso   1.000  C
  C56      1.0000 0.36050  0.29880  0.60173  Biso   1.000  C
  H37      1.0000 0.25490  0.18010  0.10530  Biso   1.000  H
  H38      1.0000 0.74510  0.68010  0.39470  Biso   1.000  H
  H39      1.0000 0.74510  0.81990  0.89470  Biso   1.000  H
  H40      1.0000 0.25490  0.31990  0.60530  Biso   1.000  H
  C57      1.0000 0.30260  0.08430  0.71590  Biso   1.000  C
  C58      1.0000 0.69740  0.58430  0.78410  Biso   1.000  C
  C59      1.0000 0.69740  0.91570  0.28410  Biso   1.000  C
  C60      1.0000 0.30260  0.41570  0.21590  Biso   1.000  C
  H41      1.0000 0.38830  0.14230  0.71650  Biso   1.000  H
  H42      1.0000 0.61170  0.64230  0.78350  Biso   1.000  H
  H43      1.0000 0.61170  0.85770  0.28350  Biso   1.000  H
  H44      1.0000 0.38830  0.35770  0.21650  Biso   1.000  H
  H45      1.0000 0.20350  0.11400  0.68960  Biso   1.000  H
  H46      1.0000 0.79650  0.61400  0.81040  Biso   1.000  H
  H47      1.0000 0.79650  0.88600  0.31040  Biso   1.000  H
  H48      1.0000 0.20350  0.38600  0.18960  Biso   1.000  H
  H49      1.0000 0.33230  0.00920  0.69870  Biso   1.000  H
  H50      1.0000 0.66770  0.50920  0.80130  Biso   1.000  H
  H51      1.0000 0.66770  0.99080  0.30130  Biso   1.000  H
  H52      1.0000 0.33230  0.49080  0.19870  Biso   1.000  H
  O33      1.0000 0.27890  0.06590  0.77841  Biso   1.000  O
  O34      1.0000 0.72110  0.56590  0.72159  Biso   1.000  O
  O35      1.0000 0.72110  0.93410  0.22159  Biso   1.000  O
  O36      1.0000 0.27890  0.43410  0.27841  Biso   1.000  O
  H53      1.0000 0.27260  0.13160  0.79590  Biso   1.000  H
  H54      1.0000 0.72740  0.63160  0.70410  Biso   1.000  H
  H55      1.0000 0.72740  0.86840  0.20410  Biso   1.000  H
  H56      1.0000 0.27260  0.36840  0.29590  Biso   1.000  H
  C61      1.0000 0.45920  0.30580  0.90590  Biso   1.000  C
  C62      1.0000 0.54080  0.80580  0.59410  Biso   1.000  C
  C63      1.0000 0.54080  0.69420  0.09410  Biso   1.000  C
  C64      1.0000 0.45920  0.19420  0.40590  Biso   1.000  C
  H57      1.0000 0.43420  0.37750  0.92840  Biso   1.000  H
  H58      1.0000 0.56580  0.87750  0.57160  Biso   1.000  H
  H59      1.0000 0.56580  0.62250  0.07160  Biso   1.000  H
  H60      1.0000 0.43420  0.12250  0.42840  Biso   1.000  H
  H61      1.0000 0.57240  0.28500  0.92270  Biso   1.000  H
  H62      1.0000 0.42760  0.78500  0.57730  Biso   1.000  H
  H63      1.0000 0.42760  0.71500  0.07730  Biso   1.000  H
  H64      1.0000 0.57240  0.21500  0.42270  Biso   1.000  H
  Cl1      1.0000 0.33741  0.18929  0.92163  Biso   1.000  Cl
  Cl2      1.0000 0.66259  0.68929  0.57837  Biso   1.000  Cl
  Cl3      1.0000 0.66259  0.81071  0.07837  Biso   1.000  Cl
  Cl4      1.0000 0.33741  0.31071  0.42163  Biso   1.000  Cl
  Cl5      1.0000 0.43640  0.33818  0.82688  Biso   1.000  Cl
  Cl6      1.0000 0.56360  0.83818  0.67312  Biso   1.000  Cl
  Cl7      1.0000 0.56360  0.66182  0.17312  Biso   1.000  Cl
  Cl8      1.0000 0.43640  0.16182  0.32688  Biso   1.000  Cl
  C65      1.0000 0.01240  0.93340  0.98430  Biso   1.000  C
  C66      1.0000 0.98760  0.43340  0.51570  Biso   1.000  C
  C67      1.0000 0.98760  0.06660  0.01570  Biso   1.000  C
  C68      1.0000 0.01240  0.56660  0.48430  Biso   1.000  C
  H65      1.0000 0.97920  0.93950  0.93790  Biso   1.000  H
  H66      1.0000 0.02080  0.43950  0.56210  Biso   1.000  H
  H67      1.0000 0.02080  0.06050  0.06210  Biso   1.000  H
  H68      1.0000 0.97920  0.56050  0.43790  Biso   1.000  H
  H69      1.0000 0.98870  0.85210  0.99690  Biso   1.000  H
  H70      1.0000 0.01130  0.35210  0.50310  Biso   1.000  H
  H71      1.0000 0.01130  0.14790  0.00310  Biso   1.000  H
  H72      1.0000 0.98870  0.64790  0.49690  Biso   1.000  H
  Cl9      1.0000 0.22220  0.96130  0.00719  Biso   1.000  Cl
  Cl10     1.0000 0.77780  0.46130  0.49281  Biso   1.000  Cl
  Cl11     1.0000 0.77780  0.03870  0.99281  Biso   1.000  Cl
  Cl12     1.0000 0.22220  0.53870  0.50719  Biso   1.000  Cl
  Cl13     1.0000 0.90700  0.03380  0.01950  Biso   1.000  Cl
  Cl14     1.0000 0.09300  0.53380  0.48050  Biso   1.000  Cl
  Cl15     1.0000 0.09300  0.96620  0.98050  Biso   1.000  Cl
  Cl16     1.0000 0.90700  0.46620  0.51950  Biso   1.000  Cl
