data_image0
_cell_length_a       10.5
_cell_length_b       11.485
_cell_length_c       12.514
_cell_angle_alpha    105.676
_cell_angle_beta     113.006
_cell_angle_gamma    97.514

_symmetry_space_group_name_H-M    "P 1"
_symmetry_int_tables_number       1

loop_
  _symmetry_equiv_pos_as_xyz
  'x, y, z'

loop_
  _atom_site_label
  _atom_site_occupancy
  _atom_site_fract_x
  _atom_site_fract_y
  _atom_site_fract_z
  _atom_site_thermal_displace_type
  _atom_site_B_iso_or_equiv
  _atom_site_type_symbol
  Cu1      1.0000 0.00782  0.06730  0.11205  Biso   1.000  Cu
  Cu2      1.0000 0.99218  0.93270  0.88795  Biso   1.000  Cu
  Cu3      1.0000 0.41851  0.49795  0.55950  Biso   1.000  Cu
  Cu4      1.0000 0.58149  0.50205  0.44050  Biso   1.000  Cu
  Cl1      1.0000 0.76596  0.21339  0.68141  Biso   1.000  Cl
  Cl2      1.0000 0.23404  0.78661  0.31859  Biso   1.000  Cl
  Cl3      1.0000 0.47366  0.15294  0.00492  Biso   1.000  Cl
  Cl4      1.0000 0.52634  0.84706  0.99508  Biso   1.000  Cl
  Cl5      1.0000 0.16270  0.42522  0.04045  Biso   1.000  Cl
  Cl6      1.0000 0.83730  0.57478  0.95955  Biso   1.000  Cl
  Cl7      1.0000 0.53443  0.05044  0.33288  Biso   1.000  Cl
  Cl8      1.0000 0.46557  0.94956  0.66712  Biso   1.000  Cl
  N1       1.0000 0.98170  0.18100  0.27010  Biso   1.000  N
  N2       1.0000 0.01830  0.81900  0.72990  Biso   1.000  N
  N3       1.0000 0.20700  0.30700  0.70280  Biso   1.000  N
  N4       1.0000 0.79300  0.69300  0.29720  Biso   1.000  N
  O1       1.0000 0.91080  0.16180  0.00526  Biso   1.000  O
  O2       1.0000 0.08920  0.83820  0.99474  Biso   1.000  O
  O3       1.0000 0.89610  0.05057  0.81679  Biso   1.000  O
  O4       1.0000 0.10390  0.94943  0.18321  Biso   1.000  O
  O5       1.0000 0.19880  0.16260  0.14598  Biso   1.000  O
  O6       1.0000 0.80120  0.83740  0.85402  Biso   1.000  O
  O7       1.0000 0.17960  0.05378  0.95509  Biso   1.000  O
  O8       1.0000 0.82040  0.94622  0.04491  Biso   1.000  O
  O9       1.0000 0.25870  0.46803  0.39380  Biso   1.000  O
  O10      1.0000 0.74130  0.53197  0.60620  Biso   1.000  O
  O11      1.0000 0.39540  0.46546  0.29052  Biso   1.000  O
  O12      1.0000 0.60460  0.53454  0.70948  Biso   1.000  O
  O13      1.0000 0.41600  0.31863  0.50953  Biso   1.000  O
  O14      1.0000 0.58400  0.68137  0.49047  Biso   1.000  O
  O15      1.0000 0.55330  0.32091  0.40732  Biso   1.000  O
  O16      1.0000 0.44670  0.67909  0.59268  Biso   1.000  O
  O17      1.0000 0.28200  0.46412  0.64611  Biso   1.000  O
  O18      1.0000 0.71800  0.53588  0.35389  Biso   1.000  O
  C1       1.0000 0.87430  0.13710  0.88880  Biso   1.000  C
  C2       1.0000 0.12570  0.86290  0.11120  Biso   1.000  C
  C3       1.0000 0.79020  0.22340  0.83590  Biso   1.000  C
  C4       1.0000 0.20980  0.77660  0.16410  Biso   1.000  C
  H1       1.0000 0.84040  0.31110  0.89290  Biso   1.000  H
  H2       1.0000 0.15960  0.68890  0.10710  Biso   1.000  H
  H3       1.0000 0.69440  0.20350  0.83370  Biso   1.000  H
  H4       1.0000 0.30560  0.79650  0.16630  Biso   1.000  H
  C5       1.0000 0.24520  0.13590  0.06410  Biso   1.000  C
  C6       1.0000 0.75480  0.86410  0.93590  Biso   1.000  C
  C7       1.0000 0.39440  0.21410  0.10490  Biso   1.000  C
  C8       1.0000 0.60560  0.78590  0.89510  Biso   1.000  C
  H5       1.0000 0.45680  0.21900  0.19000  Biso   1.000  H
  H6       1.0000 0.54320  0.78100  0.81000  Biso   1.000  H
  H7       1.0000 0.39020  0.30040  0.10760  Biso   1.000  H
  H8       1.0000 0.60980  0.69960  0.89240  Biso   1.000  H
  C9       1.0000 0.27880  0.45920  0.29730  Biso   1.000  C
  C10      1.0000 0.72120  0.54080  0.70270  Biso   1.000  C
  C11      1.0000 0.14040  0.43800  0.17990  Biso   1.000  C
  C12      1.0000 0.85960  0.56200  0.82010  Biso   1.000  C
  H9       1.0000 0.09740  0.50840  0.19700  Biso   1.000  H
  H10      1.0000 0.90260  0.49160  0.80300  Biso   1.000  H
  H11      1.0000 0.07130  0.36020  0.16330  Biso   1.000  H
  H12      1.0000 0.92870  0.63980  0.83670  Biso   1.000  H
  C13      1.0000 0.47570  0.26680  0.44470  Biso   1.000  C
  C14      1.0000 0.52430  0.73320  0.55530  Biso   1.000  C
  C15      1.0000 0.44080  0.12540  0.41160  Biso   1.000  C
  C16      1.0000 0.55920  0.87460  0.58840  Biso   1.000  C
  H13      1.0000 0.33630  0.08950  0.35840  Biso   1.000  H
  H14      1.0000 0.66370  0.91050  0.64160  Biso   1.000  H
  H15      1.0000 0.46460  0.10640  0.48870  Biso   1.000  H
  H16      1.0000 0.53540  0.89360  0.51130  Biso   1.000  H
  C17      1.0000 0.08420  0.22870  0.38970  Biso   1.000  C
  C18      1.0000 0.91580  0.77130  0.61030  Biso   1.000  C
  H17      1.0000 0.17330  0.20830  0.40770  Biso   1.000  H
  H18      1.0000 0.82670  0.79170  0.59230  Biso   1.000  H
  C19      1.0000 0.06730  0.30690  0.48930  Biso   1.000  C
  C20      1.0000 0.93270  0.69310  0.51070  Biso   1.000  C
  C21      1.0000 0.93620  0.33540  0.46250  Biso   1.000  C
  C22      1.0000 0.06380  0.66460  0.53750  Biso   1.000  C
  H19      1.0000 0.91960  0.38800  0.52590  Biso   1.000  H
  H20      1.0000 0.08040  0.61200  0.47410  Biso   1.000  H
  C23      1.0000 0.82900  0.28470  0.33930  Biso   1.000  C
  C24      1.0000 0.17100  0.71530  0.66070  Biso   1.000  C
  H21      1.0000 0.73840  0.30240  0.31890  Biso   1.000  H
  H22      1.0000 0.26160  0.69760  0.68110  Biso   1.000  H
  C25      1.0000 0.85480  0.20820  0.24630  Biso   1.000  C
  C26      1.0000 0.14520  0.79180  0.75370  Biso   1.000  C
  H23      1.0000 0.78030  0.17430  0.16370  Biso   1.000  H
  H24      1.0000 0.21970  0.82570  0.83630  Biso   1.000  H
  C27      1.0000 0.19330  0.36430  0.61890  Biso   1.000  C
  C28      1.0000 0.80670  0.63570  0.38110  Biso   1.000  C
  C29      1.0000 0.10610  0.18900  0.67620  Biso   1.000  C
  C30      1.0000 0.89390  0.81100  0.32380  Biso   1.000  C
  H25      1.0000 0.01520  0.17590  0.60280  Biso   1.000  H
  H26      1.0000 0.98480  0.82410  0.39720  Biso   1.000  H
  H27      1.0000 0.08430  0.19640  0.74750  Biso   1.000  H
  H28      1.0000 0.91570  0.80360  0.25250  Biso   1.000  H
  C31      1.0000 0.16480  0.07630  0.65200  Biso   1.000  C
  C32      1.0000 0.83520  0.92370  0.34800  Biso   1.000  C
  H29      1.0000 0.09410  0.00060  0.63500  Biso   1.000  H
  H30      1.0000 0.90590  0.99940  0.36500  Biso   1.000  H
  H31      1.0000 0.25380  0.08800  0.72500  Biso   1.000  H
  H32      1.0000 0.74620  0.91200  0.27500  Biso   1.000  H
  H33      1.0000 0.18460  0.06740  0.58030  Biso   1.000  H
  H34      1.0000 0.81540  0.93260  0.41970  Biso   1.000  H
  C33      1.0000 0.33510  0.36090  0.82740  Biso   1.000  C
  C34      1.0000 0.66490  0.63910  0.17260  Biso   1.000  C
  H35      1.0000 0.31650  0.32470  0.88500  Biso   1.000  H
  H36      1.0000 0.68350  0.67530  0.11500  Biso   1.000  H
  H37      1.0000 0.34980  0.45270  0.86090  Biso   1.000  H
  H38      1.0000 0.65020  0.54730  0.13910  Biso   1.000  H
  C35      1.0000 0.47060  0.33450  0.82120  Biso   1.000  C
  C36      1.0000 0.52940  0.66550  0.17880  Biso   1.000  C
  H39      1.0000 0.55160  0.37150  0.90440  Biso   1.000  H
  H40      1.0000 0.44840  0.62850  0.09560  Biso   1.000  H
  H41      1.0000 0.49040  0.37140  0.76540  Biso   1.000  H
  H42      1.0000 0.50960  0.62860  0.23460  Biso   1.000  H
  H43      1.0000 0.45740  0.24360  0.79000  Biso   1.000  H
  H44      1.0000 0.54260  0.75640  0.21000  Biso   1.000  H
