data_image0
_cell_length_a       17.3944
_cell_length_b       8.2657
_cell_length_c       13.8451
_cell_angle_alpha    90
_cell_angle_beta     97.228
_cell_angle_gamma    90

_symmetry_space_group_name_H-M    "P 1"
_symmetry_int_tables_number       1

loop_
  _symmetry_equiv_pos_as_xyz
  'x, y, z'

loop_
  _atom_site_label
  _atom_site_occupancy
  _atom_site_fract_x
  _atom_site_fract_y
  _atom_site_fract_z
  _atom_site_thermal_displace_type
  _atom_site_B_iso_or_equiv
  _atom_site_type_symbol
  Cu1      1.0000 0.40051  0.63383  0.14673  Biso   1.000  Cu
  Cu2      1.0000 0.59949  0.13383  0.35327  Biso   1.000  Cu
  Cu3      1.0000 0.59949  0.36617  0.85327  Biso   1.000  Cu
  Cu4      1.0000 0.40051  0.86617  0.64673  Biso   1.000  Cu
  N1       1.0000 0.09503  0.33460  0.89459  Biso   1.000  N
  N2       1.0000 0.90497  0.83460  0.60541  Biso   1.000  N
  N3       1.0000 0.90497  0.66540  0.10541  Biso   1.000  N
  N4       1.0000 0.09503  0.16540  0.39459  Biso   1.000  N
  O1       1.0000 0.47729  0.41380  0.16102  Biso   1.000  O
  O2       1.0000 0.52271  0.91380  0.33898  Biso   1.000  O
  O3       1.0000 0.52271  0.58620  0.83898  Biso   1.000  O
  O4       1.0000 0.47729  0.08620  0.66102  Biso   1.000  O
  O5       1.0000 0.56135  0.23550  0.23094  Biso   1.000  O
  O6       1.0000 0.43865  0.73550  0.26906  Biso   1.000  O
  O7       1.0000 0.43865  0.76450  0.76906  Biso   1.000  O
  O8       1.0000 0.56135  0.26450  0.73094  Biso   1.000  O
  N5       1.0000 0.34119  0.56030  0.02054  Biso   1.000  N
  N6       1.0000 0.65881  0.06030  0.47946  Biso   1.000  N
  N7       1.0000 0.65881  0.43970  0.97946  Biso   1.000  N
  N8       1.0000 0.34119  0.93970  0.52054  Biso   1.000  N
  C1       1.0000 0.24857  0.50400  0.12727  Biso   1.000  C
  C2       1.0000 0.75143  0.00400  0.37273  Biso   1.000  C
  C3       1.0000 0.75143  0.49600  0.87273  Biso   1.000  C
  C4       1.0000 0.24857  0.99600  0.62727  Biso   1.000  C
  N9       1.0000 0.30258  0.56140  0.19764  Biso   1.000  N
  N10      1.0000 0.69742  0.06140  0.30236  Biso   1.000  N
  N11      1.0000 0.69742  0.43860  0.80236  Biso   1.000  N
  N12      1.0000 0.30258  0.93860  0.69764  Biso   1.000  N
  C5       1.0000 0.26912  0.50530  0.02978  Biso   1.000  C
  C6       1.0000 0.73088  0.00530  0.47022  Biso   1.000  C
  C7       1.0000 0.73088  0.49470  0.97022  Biso   1.000  C
  C8       1.0000 0.26912  0.99470  0.52978  Biso   1.000  C
  N13      1.0000 0.51415  0.25740  0.40565  Biso   1.000  N
  N14      1.0000 0.48585  0.75740  0.09435  Biso   1.000  N
  N15      1.0000 0.48585  0.74260  0.59435  Biso   1.000  N
  N16      1.0000 0.51415  0.24260  0.90565  Biso   1.000  N
  H1       1.0000 0.48550  0.19000  0.43760  Biso   1.000  H
  H2       1.0000 0.51450  0.69000  0.06240  Biso   1.000  H
  H3       1.0000 0.51450  0.81000  0.56240  Biso   1.000  H
  H4       1.0000 0.48550  0.31000  0.93760  Biso   1.000  H
  H5       1.0000 0.53450  0.33390  0.44760  Biso   1.000  H
  H6       1.0000 0.46550  0.83390  0.05240  Biso   1.000  H
  H7       1.0000 0.46550  0.66610  0.55240  Biso   1.000  H
  H8       1.0000 0.53450  0.16610  0.94760  Biso   1.000  H
  C9       1.0000 0.36300  0.56270  0.93200  Biso   1.000  C
  C10      1.0000 0.63700  0.06270  0.56800  Biso   1.000  C
  C11      1.0000 0.63700  0.43730  0.06800  Biso   1.000  C
  C12      1.0000 0.36300  0.93730  0.43200  Biso   1.000  C
  H9       1.0000 0.41220  0.60070  0.92460  Biso   1.000  H
  H10      1.0000 0.58780  0.10070  0.57540  Biso   1.000  H
  H11      1.0000 0.58780  0.39930  0.07540  Biso   1.000  H
  H12      1.0000 0.41220  0.89930  0.42460  Biso   1.000  H
  C13      1.0000 0.31534  0.51070  0.85010  Biso   1.000  C
  C14      1.0000 0.68466  0.01070  0.64990  Biso   1.000  C
  C15      1.0000 0.68466  0.48930  0.14990  Biso   1.000  C
  C16      1.0000 0.31534  0.98930  0.35010  Biso   1.000  C
  H13      1.0000 0.33240  0.51500  0.78920  Biso   1.000  H
  H14      1.0000 0.66760  0.01500  0.71080  Biso   1.000  H
  H15      1.0000 0.66760  0.48500  0.21080  Biso   1.000  H
  H16      1.0000 0.33240  0.98500  0.28920  Biso   1.000  H
  C17      1.0000 0.24292  0.45280  0.85966  Biso   1.000  C
  C18      1.0000 0.75708  0.95280  0.64034  Biso   1.000  C
  C19      1.0000 0.75708  0.54720  0.14034  Biso   1.000  C
  C20      1.0000 0.24292  0.04720  0.35966  Biso   1.000  C
  H17      1.0000 0.21060  0.41590  0.80550  Biso   1.000  H
  H18      1.0000 0.78940  0.91590  0.69450  Biso   1.000  H
  H19      1.0000 0.78940  0.58410  0.19450  Biso   1.000  H
  H20      1.0000 0.21060  0.08410  0.30550  Biso   1.000  H
  C21      1.0000 0.21828  0.45010  0.95150  Biso   1.000  C
  C22      1.0000 0.78172  0.95010  0.54850  Biso   1.000  C
  C23      1.0000 0.78172  0.54990  0.04850  Biso   1.000  C
  C24      1.0000 0.21828  0.04990  0.45150  Biso   1.000  C
  C25      1.0000 0.14250  0.38870  0.96982  Biso   1.000  C
  C26      1.0000 0.85750  0.88870  0.53018  Biso   1.000  C
  C27      1.0000 0.85750  0.61130  0.03018  Biso   1.000  C
  C28      1.0000 0.14250  0.11130  0.46982  Biso   1.000  C
  C29      1.0000 0.12233  0.38570  0.06634  Biso   1.000  C
  C30      1.0000 0.87767  0.88570  0.43366  Biso   1.000  C
  C31      1.0000 0.87767  0.61430  0.93366  Biso   1.000  C
  C32      1.0000 0.12233  0.11430  0.56634  Biso   1.000  C
  N17      1.0000 0.05493  0.32890  0.08622  Biso   1.000  N
  N18      1.0000 0.94507  0.82890  0.41378  Biso   1.000  N
  N19      1.0000 0.94507  0.67110  0.91378  Biso   1.000  N
  N20      1.0000 0.05493  0.17110  0.58622  Biso   1.000  N
  C33      1.0000 0.00612  0.27130  0.01000  Biso   1.000  C
  C34      1.0000 0.99388  0.77130  0.49000  Biso   1.000  C
  C35      1.0000 0.99388  0.72870  0.99000  Biso   1.000  C
  C36      1.0000 0.00612  0.22870  0.51000  Biso   1.000  C
  C37      1.0000 0.02609  0.27520  0.91370  Biso   1.000  C
  C38      1.0000 0.97391  0.77520  0.58630  Biso   1.000  C
  C39      1.0000 0.97391  0.72480  0.08630  Biso   1.000  C
  C40      1.0000 0.02609  0.22480  0.41370  Biso   1.000  C
  C41      1.0000 0.97336  0.21310  0.83660  Biso   1.000  C
  C42      1.0000 0.02664  0.71310  0.66340  Biso   1.000  C
  C43      1.0000 0.02664  0.78690  0.16340  Biso   1.000  C
  C44      1.0000 0.97336  0.28690  0.33660  Biso   1.000  C
  H21      1.0000 0.98580  0.21410  0.77320  Biso   1.000  H
  H22      1.0000 0.01420  0.71410  0.72680  Biso   1.000  H
  H23      1.0000 0.01420  0.78590  0.22680  Biso   1.000  H
  H24      1.0000 0.98580  0.28590  0.27320  Biso   1.000  H
  C45      1.0000 0.90460  0.15200  0.85560  Biso   1.000  C
  C46      1.0000 0.09540  0.65200  0.64440  Biso   1.000  C
  C47      1.0000 0.09540  0.84800  0.14440  Biso   1.000  C
  C48      1.0000 0.90460  0.34800  0.35560  Biso   1.000  C
  H25      1.0000 0.87000  0.11120  0.80470  Biso   1.000  H
  H26      1.0000 0.13000  0.61120  0.69530  Biso   1.000  H
  H27      1.0000 0.13000  0.88880  0.19530  Biso   1.000  H
  H28      1.0000 0.87000  0.38880  0.30470  Biso   1.000  H
  C49      1.0000 0.88460  0.14920  0.95030  Biso   1.000  C
  C50      1.0000 0.11540  0.64920  0.54970  Biso   1.000  C
  C51      1.0000 0.11540  0.85080  0.04970  Biso   1.000  C
  C52      1.0000 0.88460  0.35080  0.45030  Biso   1.000  C
  H29      1.0000 0.83690  0.10700  0.96130  Biso   1.000  H
  H30      1.0000 0.16310  0.60700  0.53870  Biso   1.000  H
  H31      1.0000 0.16310  0.89300  0.03870  Biso   1.000  H
  H32      1.0000 0.83690  0.39300  0.46130  Biso   1.000  H
  C53      1.0000 0.93356  0.20700  0.02610  Biso   1.000  C
  C54      1.0000 0.06644  0.70700  0.47390  Biso   1.000  C
  C55      1.0000 0.06644  0.79300  0.97390  Biso   1.000  C
  C56      1.0000 0.93356  0.29300  0.52610  Biso   1.000  C
  H33      1.0000 0.91950  0.20440  0.08870  Biso   1.000  H
  H34      1.0000 0.08050  0.70440  0.41130  Biso   1.000  H
  H35      1.0000 0.08050  0.79560  0.91130  Biso   1.000  H
  H36      1.0000 0.91950  0.29560  0.58870  Biso   1.000  H
  C57      1.0000 0.17694  0.44720  0.14697  Biso   1.000  C
  C58      1.0000 0.82306  0.94720  0.35303  Biso   1.000  C
  C59      1.0000 0.82306  0.55280  0.85303  Biso   1.000  C
  C60      1.0000 0.17694  0.05280  0.64697  Biso   1.000  C
  C61      1.0000 0.28682  0.56230  0.28898  Biso   1.000  C
  C62      1.0000 0.71318  0.06230  0.21102  Biso   1.000  C
  C63      1.0000 0.71318  0.43770  0.71102  Biso   1.000  C
  C64      1.0000 0.28682  0.93770  0.78898  Biso   1.000  C
  H37      1.0000 0.32390  0.60170  0.33760  Biso   1.000  H
  H38      1.0000 0.67610  0.10170  0.16240  Biso   1.000  H
  H39      1.0000 0.67610  0.39830  0.66240  Biso   1.000  H
  H40      1.0000 0.32390  0.89830  0.83760  Biso   1.000  H
  C65      1.0000 0.21696  0.50670  0.31430  Biso   1.000  C
  C66      1.0000 0.78304  0.00670  0.18570  Biso   1.000  C
  C67      1.0000 0.78304  0.49330  0.68570  Biso   1.000  C
  C68      1.0000 0.21696  0.99330  0.81430  Biso   1.000  C
  H41      1.0000 0.20760  0.50870  0.37900  Biso   1.000  H
  H42      1.0000 0.79240  0.00870  0.12100  Biso   1.000  H
  H43      1.0000 0.79240  0.49130  0.62100  Biso   1.000  H
  H44      1.0000 0.20760  0.99130  0.87900  Biso   1.000  H
  C69      1.0000 0.16187  0.44870  0.24353  Biso   1.000  C
  C70      1.0000 0.83813  0.94870  0.25647  Biso   1.000  C
  C71      1.0000 0.83813  0.55130  0.75647  Biso   1.000  C
  C72      1.0000 0.16187  0.05130  0.74353  Biso   1.000  C
  H45      1.0000 0.11480  0.41070  0.25970  Biso   1.000  H
  H46      1.0000 0.88520  0.91070  0.24030  Biso   1.000  H
  H47      1.0000 0.88520  0.58930  0.74030  Biso   1.000  H
  H48      1.0000 0.11480  0.08930  0.75970  Biso   1.000  H
  C73      1.0000 0.46520  0.33340  0.32330  Biso   1.000  C
  C74      1.0000 0.53480  0.83340  0.17670  Biso   1.000  C
  C75      1.0000 0.53480  0.66660  0.67670  Biso   1.000  C
  C76      1.0000 0.46520  0.16660  0.82330  Biso   1.000  C
  H49      1.0000 0.45490  0.44480  0.33960  Biso   1.000  H
  H50      1.0000 0.54510  0.94480  0.16040  Biso   1.000  H
  H51      1.0000 0.54510  0.55520  0.66040  Biso   1.000  H
  H52      1.0000 0.45490  0.05520  0.83960  Biso   1.000  H
  H53      1.0000 0.41600  0.27700  0.31220  Biso   1.000  H
  H54      1.0000 0.58400  0.77700  0.18780  Biso   1.000  H
  H55      1.0000 0.58400  0.72300  0.68780  Biso   1.000  H
  H56      1.0000 0.41600  0.22300  0.81220  Biso   1.000  H
  C77      1.0000 0.50343  0.32940  0.23170  Biso   1.000  C
  C78      1.0000 0.49657  0.82940  0.26830  Biso   1.000  C
  C79      1.0000 0.49657  0.67060  0.76830  Biso   1.000  C
  C80      1.0000 0.50343  0.17060  0.73170  Biso   1.000  C
  Cl1      1.0000 0.33283  0.06822  0.06742  Biso   1.000  Cl
  Cl2      1.0000 0.66717  0.56822  0.43258  Biso   1.000  Cl
  Cl3      1.0000 0.66717  0.93178  0.93258  Biso   1.000  Cl
  Cl4      1.0000 0.33283  0.43178  0.56742  Biso   1.000  Cl
  O9       1.0000 0.26840  0.13290  0.10500  Biso   1.000  O
  O10      1.0000 0.73160  0.63290  0.39500  Biso   1.000  O
  O11      1.0000 0.73160  0.86710  0.89500  Biso   1.000  O
  O12      1.0000 0.26840  0.36710  0.60500  Biso   1.000  O
  O13      1.0000 0.39730  0.06400  0.13940  Biso   1.000  O
  O14      1.0000 0.60270  0.56400  0.36060  Biso   1.000  O
  O15      1.0000 0.60270  0.93600  0.86060  Biso   1.000  O
  O16      1.0000 0.39730  0.43600  0.63940  Biso   1.000  O
  O17      1.0000 0.34920  0.16980  0.98770  Biso   1.000  O
  O18      1.0000 0.65080  0.66980  0.51230  Biso   1.000  O
  O19      1.0000 0.65080  0.83020  0.01230  Biso   1.000  O
  O20      1.0000 0.34920  0.33020  0.48770  Biso   1.000  O
  O21      1.0000 0.31660  0.90860  0.03280  Biso   1.000  O
  O22      1.0000 0.68340  0.40860  0.46720  Biso   1.000  O
  O23      1.0000 0.68340  0.09140  0.96720  Biso   1.000  O
  O24      1.0000 0.31660  0.59140  0.53280  Biso   1.000  O
  O25      1.0000 0.31020  0.90150  0.09990  Biso   1.000  O
  O26      1.0000 0.68980  0.40150  0.40010  Biso   1.000  O
  O27      1.0000 0.68980  0.09850  0.90010  Biso   1.000  O
  O28      1.0000 0.31020  0.59850  0.59990  Biso   1.000  O
  O29      1.0000 0.35610  0.14900  0.15360  Biso   1.000  O
  O30      1.0000 0.64390  0.64900  0.34640  Biso   1.000  O
  O31      1.0000 0.64390  0.85100  0.84640  Biso   1.000  O
  O32      1.0000 0.35610  0.35100  0.65360  Biso   1.000  O
  O33      1.0000 0.38690  0.05500  0.00990  Biso   1.000  O
  O34      1.0000 0.61310  0.55500  0.49010  Biso   1.000  O
  O35      1.0000 0.61310  0.94500  0.99010  Biso   1.000  O
  O36      1.0000 0.38690  0.44500  0.50990  Biso   1.000  O
  O37      1.0000 0.25800  0.13120  0.02890  Biso   1.000  O
  O38      1.0000 0.74200  0.63120  0.47110  Biso   1.000  O
  O39      1.0000 0.74200  0.86880  0.97110  Biso   1.000  O
  O40      1.0000 0.25800  0.36880  0.52890  Biso   1.000  O
