data_image0
_cell_length_a       3.7882
_cell_length_b       8.5078
_cell_length_c       16.977
_cell_angle_alpha    90
_cell_angle_beta     91.9
_cell_angle_gamma    90

_symmetry_space_group_name_H-M    "P 1"
_symmetry_int_tables_number       1

loop_
  _symmetry_equiv_pos_as_xyz
  'x, y, z'

loop_
  _atom_site_label
  _atom_site_occupancy
  _atom_site_fract_x
  _atom_site_fract_y
  _atom_site_fract_z
  _atom_site_thermal_displace_type
  _atom_site_B_iso_or_equiv
  _atom_site_type_symbol
  Cl1      1.0000 0.39192  0.14441  0.07760  Biso   1.000  Cl
  Cl2      1.0000 0.10808  0.64441  0.42240  Biso   1.000  Cl
  Cl3      1.0000 0.60808  0.85559  0.92240  Biso   1.000  Cl
  Cl4      1.0000 0.89192  0.35559  0.57760  Biso   1.000  Cl
  Cu1      1.0000 0.00000  0.00000  0.00000  Biso   1.000  Cu
  Cu2      1.0000 0.50000  0.50000  0.50000  Biso   1.000  Cu
  N1       1.0000 0.98280  0.17239  0.91908  Biso   1.000  N
  N2       1.0000 0.51720  0.67239  0.58092  Biso   1.000  N
  N3       1.0000 0.01720  0.82761  0.08092  Biso   1.000  N
  N4       1.0000 0.48280  0.32761  0.41908  Biso   1.000  N
  C1       1.0000 0.85530  0.43813  0.88187  Biso   1.000  C
  C2       1.0000 0.64470  0.93813  0.61813  Biso   1.000  C
  C3       1.0000 0.14470  0.56187  0.11813  Biso   1.000  C
  C4       1.0000 0.35530  0.06187  0.38187  Biso   1.000  C
  C5       1.0000 0.88250  0.31898  0.93728  Biso   1.000  C
  C6       1.0000 0.61750  0.81898  0.56272  Biso   1.000  C
  C7       1.0000 0.11750  0.68102  0.06272  Biso   1.000  C
  C8       1.0000 0.38250  0.18102  0.43728  Biso   1.000  C
  C9       1.0000 0.06420  0.14140  0.84414  Biso   1.000  C
  C10      1.0000 0.43580  0.64140  0.65586  Biso   1.000  C
  C11      1.0000 0.93580  0.85860  0.15586  Biso   1.000  C
  C12      1.0000 0.56420  0.35860  0.34414  Biso   1.000  C
  C13      1.0000 0.04720  0.25445  0.78554  Biso   1.000  C
  C14      1.0000 0.45280  0.75445  0.71446  Biso   1.000  C
  C15      1.0000 0.95280  0.74555  0.21446  Biso   1.000  C
  C16      1.0000 0.54720  0.24555  0.28554  Biso   1.000  C
  C17      1.0000 0.93860  0.40498  0.80449  Biso   1.000  C
  C18      1.0000 0.56140  0.90498  0.69551  Biso   1.000  C
  C19      1.0000 0.06140  0.59502  0.19551  Biso   1.000  C
  C20      1.0000 0.43860  0.09502  0.30449  Biso   1.000  C
  H1       1.0000 0.13400  0.03800  0.83290  Biso   1.000  H
  H2       1.0000 0.36600  0.53800  0.66710  Biso   1.000  H
  H3       1.0000 0.86600  0.96200  0.16710  Biso   1.000  H
  H4       1.0000 0.63400  0.46200  0.33290  Biso   1.000  H
  H5       1.0000 0.92100  0.48600  0.76720  Biso   1.000  H
  H6       1.0000 0.57900  0.98600  0.73280  Biso   1.000  H
  H7       1.0000 0.07900  0.51400  0.23280  Biso   1.000  H
  H8       1.0000 0.42100  0.01400  0.26720  Biso   1.000  H
  H9       1.0000 0.10500  0.22800  0.73410  Biso   1.000  H
  H10      1.0000 0.39500  0.72800  0.76590  Biso   1.000  H
  H11      1.0000 0.89500  0.77200  0.26590  Biso   1.000  H
  H12      1.0000 0.60500  0.27200  0.23410  Biso   1.000  H
  H13      1.0000 0.78100  0.54000  0.89700  Biso   1.000  H
  H14      1.0000 0.71900  0.04000  0.60300  Biso   1.000  H
  H15      1.0000 0.21900  0.46000  0.10300  Biso   1.000  H
  H16      1.0000 0.28100  0.96000  0.39700  Biso   1.000  H
  H17      1.0000 0.82500  0.33900  0.98950  Biso   1.000  H
  H18      1.0000 0.67500  0.83900  0.51050  Biso   1.000  H
  H19      1.0000 0.17500  0.66100  0.01050  Biso   1.000  H
  H20      1.0000 0.32500  0.16100  0.48950  Biso   1.000  H
