data_image0
_cell_length_a       7.8108
_cell_length_b       18.1233
_cell_length_c       8.2006
_cell_angle_alpha    90
_cell_angle_beta     94.976
_cell_angle_gamma    90

_symmetry_space_group_name_H-M    "P 1"
_symmetry_int_tables_number       1

loop_
  _symmetry_equiv_pos_as_xyz
  'x, y, z'

loop_
  _atom_site_label
  _atom_site_occupancy
  _atom_site_fract_x
  _atom_site_fract_y
  _atom_site_fract_z
  _atom_site_thermal_displace_type
  _atom_site_B_iso_or_equiv
  _atom_site_type_symbol
  Cu1      1.0000 0.02508  0.45998  0.18378  Biso   1.000  Cu
  Cu2      1.0000 0.97492  0.95998  0.31622  Biso   1.000  Cu
  Cu3      1.0000 0.97492  0.54002  0.81622  Biso   1.000  Cu
  Cu4      1.0000 0.02508  0.04002  0.68378  Biso   1.000  Cu
  S1       1.0000 0.24602  0.46808  0.59735  Biso   1.000  S
  S2       1.0000 0.75398  0.96808  0.90265  Biso   1.000  S
  S3       1.0000 0.75398  0.53192  0.40265  Biso   1.000  S
  S4       1.0000 0.24602  0.03192  0.09735  Biso   1.000  S
  C1       1.0000 0.70030  0.62370  0.97780  Biso   1.000  C
  C2       1.0000 0.29970  0.12370  0.52220  Biso   1.000  C
  C3       1.0000 0.29970  0.37630  0.02220  Biso   1.000  C
  C4       1.0000 0.70030  0.87630  0.47780  Biso   1.000  C
  H1       1.0000 0.65110  0.57840  0.99900  Biso   1.000  H
  H2       1.0000 0.34890  0.07840  0.50100  Biso   1.000  H
  H3       1.0000 0.34890  0.42160  0.00100  Biso   1.000  H
  H4       1.0000 0.65110  0.92160  0.49900  Biso   1.000  H
  C5       1.0000 0.61960  0.68770  0.02320  Biso   1.000  C
  C6       1.0000 0.38040  0.18770  0.47680  Biso   1.000  C
  C7       1.0000 0.38040  0.31230  0.97680  Biso   1.000  C
  C8       1.0000 0.61960  0.81230  0.52320  Biso   1.000  C
  H5       1.0000 0.51790  0.68500  0.07400  Biso   1.000  H
  H6       1.0000 0.48210  0.18500  0.42600  Biso   1.000  H
  H7       1.0000 0.48210  0.31500  0.92600  Biso   1.000  H
  H8       1.0000 0.51790  0.81500  0.57400  Biso   1.000  H
  C9       1.0000 0.69110  0.75490  0.99250  Biso   1.000  C
  C10      1.0000 0.30890  0.25490  0.50750  Biso   1.000  C
  C11      1.0000 0.30890  0.24510  0.00750  Biso   1.000  C
  C12      1.0000 0.69110  0.74510  0.49250  Biso   1.000  C
  H9       1.0000 0.63760  0.79850  0.02010  Biso   1.000  H
  H10      1.0000 0.36240  0.29850  0.47990  Biso   1.000  H
  H11      1.0000 0.36240  0.20150  0.97990  Biso   1.000  H
  H12      1.0000 0.63760  0.70150  0.52010  Biso   1.000  H
  C13      1.0000 0.84490  0.75660  0.91930  Biso   1.000  C
  C14      1.0000 0.15510  0.25660  0.58070  Biso   1.000  C
  C15      1.0000 0.15510  0.24340  0.08070  Biso   1.000  C
  C16      1.0000 0.84490  0.74340  0.41930  Biso   1.000  C
  H13      1.0000 0.89750  0.80130  0.89880  Biso   1.000  H
  H14      1.0000 0.10250  0.30130  0.60120  Biso   1.000  H
  H15      1.0000 0.10250  0.19870  0.10120  Biso   1.000  H
  H16      1.0000 0.89750  0.69870  0.39880  Biso   1.000  H
  C17      1.0000 0.91740  0.69150  0.87830  Biso   1.000  C
  C18      1.0000 0.08260  0.19150  0.62170  Biso   1.000  C
  C19      1.0000 0.08260  0.30850  0.12170  Biso   1.000  C
  C20      1.0000 0.91740  0.80850  0.37830  Biso   1.000  C
  C21      1.0000 0.08030  0.68550  0.80100  Biso   1.000  C
  C22      1.0000 0.91970  0.18550  0.69900  Biso   1.000  C
  C23      1.0000 0.91970  0.31450  0.19900  Biso   1.000  C
  C24      1.0000 0.08030  0.81450  0.30100  Biso   1.000  C
  H17      1.0000 0.14460  0.72720  0.78120  Biso   1.000  H
  H18      1.0000 0.85540  0.22720  0.71880  Biso   1.000  H
  H19      1.0000 0.85540  0.27280  0.21880  Biso   1.000  H
  H20      1.0000 0.14460  0.77280  0.28120  Biso   1.000  H
  C25      1.0000 0.29290  0.61270  0.68700  Biso   1.000  C
  C26      1.0000 0.70710  0.11270  0.81300  Biso   1.000  C
  C27      1.0000 0.70710  0.38730  0.31300  Biso   1.000  C
  C28      1.0000 0.29290  0.88730  0.18700  Biso   1.000  C
  H21      1.0000 0.33400  0.66030  0.65310  Biso   1.000  H
  H22      1.0000 0.66600  0.16030  0.84690  Biso   1.000  H
  H23      1.0000 0.66600  0.33970  0.34690  Biso   1.000  H
  H24      1.0000 0.33400  0.83970  0.15310  Biso   1.000  H
  H25      1.0000 0.37890  0.59190  0.76640  Biso   1.000  H
  H26      1.0000 0.62110  0.09190  0.73360  Biso   1.000  H
  H27      1.0000 0.62110  0.40810  0.23360  Biso   1.000  H
  H28      1.0000 0.37890  0.90810  0.26640  Biso   1.000  H
  C29      1.0000 0.26750  0.56250  0.54110  Biso   1.000  C
  C30      1.0000 0.73250  0.06250  0.95890  Biso   1.000  C
  C31      1.0000 0.73250  0.43750  0.45890  Biso   1.000  C
  C32      1.0000 0.26750  0.93750  0.04110  Biso   1.000  C
  H29      1.0000 0.16530  0.57760  0.47390  Biso   1.000  H
  H30      1.0000 0.83470  0.07760  0.02610  Biso   1.000  H
  H31      1.0000 0.83470  0.42240  0.52610  Biso   1.000  H
  H32      1.0000 0.16530  0.92240  0.97390  Biso   1.000  H
  H33      1.0000 0.36480  0.56740  0.47600  Biso   1.000  H
  H34      1.0000 0.63520  0.06740  0.02400  Biso   1.000  H
  H35      1.0000 0.63520  0.43260  0.52400  Biso   1.000  H
  H36      1.0000 0.36480  0.93260  0.97600  Biso   1.000  H
  O1       1.0000 0.40210  0.44604  0.68760  Biso   1.000  O
  O2       1.0000 0.59790  0.94604  0.81240  Biso   1.000  O
  O3       1.0000 0.59790  0.55396  0.31240  Biso   1.000  O
  O4       1.0000 0.40210  0.05396  0.18760  Biso   1.000  O
  O5       1.0000 0.20650  0.42843  0.44610  Biso   1.000  O
  O6       1.0000 0.79350  0.92843  0.05390  Biso   1.000  O
  O7       1.0000 0.79350  0.57157  0.55390  Biso   1.000  O
  O8       1.0000 0.20650  0.07157  0.94610  Biso   1.000  O
  O9       1.0000 0.09740  0.46427  0.69980  Biso   1.000  O
  O10      1.0000 0.90260  0.96427  0.80020  Biso   1.000  O
  O11      1.0000 0.90260  0.53573  0.30020  Biso   1.000  O
  O12      1.0000 0.09740  0.03573  0.19980  Biso   1.000  O
  N1       1.0000 0.84550  0.62503  0.90500  Biso   1.000  N
  N2       1.0000 0.15450  0.12503  0.59500  Biso   1.000  N
  N3       1.0000 0.15450  0.37497  0.09500  Biso   1.000  N
  N4       1.0000 0.84550  0.87497  0.40500  Biso   1.000  N
  N5       1.0000 0.12980  0.62225  0.76270  Biso   1.000  N
  N6       1.0000 0.87020  0.12225  0.73730  Biso   1.000  N
  N7       1.0000 0.87020  0.37775  0.23730  Biso   1.000  N
  N8       1.0000 0.12980  0.87775  0.26270  Biso   1.000  N
  N9       1.0000 0.17150  0.53379  0.08960  Biso   1.000  N
  N10      1.0000 0.82850  0.03379  0.41040  Biso   1.000  N
  N11      1.0000 0.82850  0.46621  0.91040  Biso   1.000  N
  N12      1.0000 0.17150  0.96621  0.58960  Biso   1.000  N
  N13      1.0000 0.19460  0.59530  0.13880  Biso   1.000  N
  N14      1.0000 0.80540  0.09530  0.36120  Biso   1.000  N
  N15      1.0000 0.80540  0.40470  0.86120  Biso   1.000  N
  N16      1.0000 0.19460  0.90470  0.63880  Biso   1.000  N
  N17      1.0000 0.22010  0.65554  0.17810  Biso   1.000  N
  N18      1.0000 0.77990  0.15554  0.32190  Biso   1.000  N
  N19      1.0000 0.77990  0.34446  0.82190  Biso   1.000  N
  N20      1.0000 0.22010  0.84446  0.67810  Biso   1.000  N
