data_image0
_cell_length_a       9.651
_cell_length_b       10.38
_cell_length_c       9.368
_cell_angle_alpha    90
_cell_angle_beta     112.905
_cell_angle_gamma    90

_symmetry_space_group_name_H-M    "P 1"
_symmetry_int_tables_number       1

loop_
  _symmetry_equiv_pos_as_xyz
  'x, y, z'

loop_
  _atom_site_label
  _atom_site_occupancy
  _atom_site_fract_x
  _atom_site_fract_y
  _atom_site_fract_z
  _atom_site_thermal_displace_type
  _atom_site_B_iso_or_equiv
  _atom_site_type_symbol
  Cu1      1.0000 0.00000  0.50000  0.50000  Biso   1.000  Cu
  Cu2      1.0000 0.00000  0.00000  0.00000  Biso   1.000  Cu
  O1       1.0000 0.00124  0.44011  0.30120  Biso   1.000  O
  O2       1.0000 0.99876  0.94011  0.19880  Biso   1.000  O
  O3       1.0000 0.99876  0.55989  0.69880  Biso   1.000  O
  O4       1.0000 0.00124  0.05989  0.80120  Biso   1.000  O
  O5       1.0000 0.00323  0.62845  0.18448  Biso   1.000  O
  O6       1.0000 0.99677  0.12845  0.31552  Biso   1.000  O
  O7       1.0000 0.99677  0.37155  0.81552  Biso   1.000  O
  O8       1.0000 0.00323  0.87155  0.68448  Biso   1.000  O
  O9       1.0000 0.88286  0.71634  0.40721  Biso   1.000  O
  O10      1.0000 0.11714  0.21634  0.09279  Biso   1.000  O
  O11      1.0000 0.11714  0.28366  0.59279  Biso   1.000  O
  O12      1.0000 0.88286  0.78366  0.90721  Biso   1.000  O
  H1       1.0000 0.92000  0.76400  0.47400  Biso   1.000  H
  H2       1.0000 0.08000  0.26400  0.02600  Biso   1.000  H
  H3       1.0000 0.08000  0.23600  0.52600  Biso   1.000  H
  H4       1.0000 0.92000  0.73600  0.97400  Biso   1.000  H
  H5       1.0000 0.92300  0.72500  0.34600  Biso   1.000  H
  H6       1.0000 0.07700  0.22500  0.15400  Biso   1.000  H
  H7       1.0000 0.07700  0.27500  0.65400  Biso   1.000  H
  H8       1.0000 0.92300  0.77500  0.84600  Biso   1.000  H
  N1       1.0000 0.60385  0.29615  0.34610  Biso   1.000  N
  N2       1.0000 0.39615  0.79615  0.15390  Biso   1.000  N
  N3       1.0000 0.39615  0.70385  0.65390  Biso   1.000  N
  N4       1.0000 0.60385  0.20385  0.84610  Biso   1.000  N
  N5       1.0000 0.56668  0.38361  0.43398  Biso   1.000  N
  N6       1.0000 0.43332  0.88361  0.06602  Biso   1.000  N
  N7       1.0000 0.43332  0.61639  0.56602  Biso   1.000  N
  N8       1.0000 0.56668  0.11639  0.93398  Biso   1.000  N
  N9       1.0000 0.79620  0.42324  0.43885  Biso   1.000  N
  N10      1.0000 0.20380  0.92324  0.06115  Biso   1.000  N
  N11      1.0000 0.20380  0.57676  0.56115  Biso   1.000  N
  N12      1.0000 0.79620  0.07676  0.93885  Biso   1.000  N
  C1       1.0000 0.68651  0.45806  0.48750  Biso   1.000  C
  C2       1.0000 0.31349  0.95806  0.01250  Biso   1.000  C
  C3       1.0000 0.31349  0.54194  0.51250  Biso   1.000  C
  C4       1.0000 0.68651  0.04194  0.98750  Biso   1.000  C
  H9       1.0000 0.69520  0.52940  0.55390  Biso   1.000  H
  H10      1.0000 0.30480  0.02940  0.94610  Biso   1.000  H
  H11      1.0000 0.30480  0.47060  0.44610  Biso   1.000  H
  H12      1.0000 0.69520  0.97060  0.05390  Biso   1.000  H
  C5       1.0000 0.73972  0.32084  0.34953  Biso   1.000  C
  C6       1.0000 0.26028  0.82084  0.15047  Biso   1.000  C
  C7       1.0000 0.26028  0.67916  0.65047  Biso   1.000  C
  C8       1.0000 0.73972  0.17916  0.84953  Biso   1.000  C
  H13      1.0000 0.78910  0.27300  0.29660  Biso   1.000  H
  H14      1.0000 0.21090  0.77300  0.20340  Biso   1.000  H
  H15      1.0000 0.21090  0.72700  0.70340  Biso   1.000  H
  H16      1.0000 0.78910  0.22700  0.79660  Biso   1.000  H
  C9       1.0000 0.50138  0.18994  0.27138  Biso   1.000  C
  C10      1.0000 0.49862  0.68994  0.22862  Biso   1.000  C
  C11      1.0000 0.49862  0.81006  0.72862  Biso   1.000  C
  C12      1.0000 0.50138  0.31006  0.77138  Biso   1.000  C
  H17      1.0000 0.53320  0.14860  0.19380  Biso   1.000  H
  H18      1.0000 0.46680  0.64860  0.30620  Biso   1.000  H
  H19      1.0000 0.46680  0.85140  0.80620  Biso   1.000  H
  H20      1.0000 0.53320  0.35140  0.69380  Biso   1.000  H
  H21      1.0000 0.39840  0.22420  0.21650  Biso   1.000  H
  H22      1.0000 0.60160  0.72420  0.28350  Biso   1.000  H
  H23      1.0000 0.60160  0.77580  0.78350  Biso   1.000  H
  H24      1.0000 0.39840  0.27580  0.71650  Biso   1.000  H
  C13      1.0000 0.50026  0.09068  0.38916  Biso   1.000  C
  C14      1.0000 0.49974  0.59068  0.11084  Biso   1.000  C
  C15      1.0000 0.49974  0.90932  0.61084  Biso   1.000  C
  C16      1.0000 0.50026  0.40932  0.88916  Biso   1.000  C
  C17      1.0000 0.38670  0.09112  0.44520  Biso   1.000  C
  C18      1.0000 0.61330  0.59112  0.05480  Biso   1.000  C
  C19      1.0000 0.61330  0.90888  0.55480  Biso   1.000  C
  C20      1.0000 0.38670  0.40888  0.94520  Biso   1.000  C
  H25      1.0000 0.30830  0.15310  0.40810  Biso   1.000  H
  H26      1.0000 0.69170  0.65310  0.09190  Biso   1.000  H
  H27      1.0000 0.69170  0.84690  0.59190  Biso   1.000  H
  H28      1.0000 0.30830  0.34690  0.90810  Biso   1.000  H
  C21      1.0000 0.61310  0.99876  0.44440  Biso   1.000  C
  C22      1.0000 0.38690  0.49876  0.05560  Biso   1.000  C
  C23      1.0000 0.38690  0.00124  0.55560  Biso   1.000  C
  C24      1.0000 0.61310  0.50124  0.94440  Biso   1.000  C
  H29      1.0000 0.69120  0.99720  0.40650  Biso   1.000  H
  H30      1.0000 0.30880  0.49720  0.09350  Biso   1.000  H
  H31      1.0000 0.30880  0.00280  0.59350  Biso   1.000  H
  H32      1.0000 0.69120  0.50280  0.90650  Biso   1.000  H
  C25      1.0000 0.99910  0.51021  0.19100  Biso   1.000  C
  C26      1.0000 0.00090  0.01021  0.30900  Biso   1.000  C
  C27      1.0000 0.00090  0.48979  0.80900  Biso   1.000  C
  C28      1.0000 0.99910  0.98979  0.69100  Biso   1.000  C
  H33      1.0000 0.99350  0.46580  0.10030  Biso   1.000  H
  H34      1.0000 0.00650  0.96580  0.39970  Biso   1.000  H
  H35      1.0000 0.00650  0.53420  0.89970  Biso   1.000  H
  H36      1.0000 0.99350  0.03420  0.60030  Biso   1.000  H
