data_image0
_cell_length_a       20.9292
_cell_length_b       20.9292
_cell_length_c       18.232
_cell_angle_alpha    90
_cell_angle_beta     90
_cell_angle_gamma    90

_symmetry_space_group_name_H-M    "P 1"
_symmetry_int_tables_number       1

loop_
  _symmetry_equiv_pos_as_xyz
  'x, y, z'

loop_
  _atom_site_label
  _atom_site_occupancy
  _atom_site_fract_x
  _atom_site_fract_y
  _atom_site_fract_z
  _atom_site_thermal_displace_type
  _atom_site_B_iso_or_equiv
  _atom_site_type_symbol
  Cu1      1.0000 0.84238  0.36889  0.00000  Biso   1.000  Cu
  Cu2      1.0000 0.15762  0.63111  0.00000  Biso   1.000  Cu
  Cu3      1.0000 0.63111  0.84238  0.00000  Biso   1.000  Cu
  Cu4      1.0000 0.36889  0.15762  0.00000  Biso   1.000  Cu
  Cu5      1.0000 0.34238  0.86889  0.50000  Biso   1.000  Cu
  Cu6      1.0000 0.65762  0.13111  0.50000  Biso   1.000  Cu
  Cu7      1.0000 0.13111  0.34238  0.50000  Biso   1.000  Cu
  Cu8      1.0000 0.86889  0.65762  0.50000  Biso   1.000  Cu
  Cu9      1.0000 0.50000  0.50000  0.13484  Biso   1.000  Cu
  Cu10     1.0000 0.00000  0.00000  0.63484  Biso   1.000  Cu
  Cu11     1.0000 0.50000  0.50000  0.86516  Biso   1.000  Cu
  Cu12     1.0000 0.00000  0.00000  0.36516  Biso   1.000  Cu
  Cu13     1.0000 0.50000  0.50000  0.27892  Biso   1.000  Cu
  Cu14     1.0000 0.00000  0.00000  0.77892  Biso   1.000  Cu
  Cu15     1.0000 0.50000  0.50000  0.72108  Biso   1.000  Cu
  Cu16     1.0000 0.00000  0.00000  0.22108  Biso   1.000  Cu
  Cu17     1.0000 0.85205  0.24342  0.00000  Biso   1.000  Cu
  Cu18     1.0000 0.14795  0.75658  0.00000  Biso   1.000  Cu
  Cu19     1.0000 0.75658  0.85205  0.00000  Biso   1.000  Cu
  Cu20     1.0000 0.24342  0.14795  0.00000  Biso   1.000  Cu
  Cu21     1.0000 0.35205  0.74342  0.50000  Biso   1.000  Cu
  Cu22     1.0000 0.64795  0.25658  0.50000  Biso   1.000  Cu
  Cu23     1.0000 0.25658  0.35205  0.50000  Biso   1.000  Cu
  Cu24     1.0000 0.74342  0.64795  0.50000  Biso   1.000  Cu
  C1       1.0000 0.60090  0.28740  0.23990  Biso   1.000  C
  C2       1.0000 0.39910  0.71260  0.23990  Biso   1.000  C
  C3       1.0000 0.71260  0.60090  0.23990  Biso   1.000  C
  C4       1.0000 0.28740  0.39910  0.23990  Biso   1.000  C
  C5       1.0000 0.10090  0.78740  0.73990  Biso   1.000  C
  C6       1.0000 0.89910  0.21260  0.73990  Biso   1.000  C
  C7       1.0000 0.21260  0.10090  0.73990  Biso   1.000  C
  C8       1.0000 0.78740  0.89910  0.73990  Biso   1.000  C
  C9       1.0000 0.39910  0.71260  0.76010  Biso   1.000  C
  C10      1.0000 0.60090  0.28740  0.76010  Biso   1.000  C
  C11      1.0000 0.28740  0.39910  0.76010  Biso   1.000  C
  C12      1.0000 0.71260  0.60090  0.76010  Biso   1.000  C
  C13      1.0000 0.89910  0.21260  0.26010  Biso   1.000  C
  C14      1.0000 0.10090  0.78740  0.26010  Biso   1.000  C
  C15      1.0000 0.78740  0.89910  0.26010  Biso   1.000  C
  C16      1.0000 0.21260  0.10090  0.26010  Biso   1.000  C
  C17      1.0000 0.61360  0.34510  0.20400  Biso   1.000  C
  C18      1.0000 0.38640  0.65490  0.20400  Biso   1.000  C
  C19      1.0000 0.65490  0.61360  0.20400  Biso   1.000  C
  C20      1.0000 0.34510  0.38640  0.20400  Biso   1.000  C
  C21      1.0000 0.11360  0.84510  0.70400  Biso   1.000  C
  C22      1.0000 0.88640  0.15490  0.70400  Biso   1.000  C
  C23      1.0000 0.15490  0.11360  0.70400  Biso   1.000  C
  C24      1.0000 0.84510  0.88640  0.70400  Biso   1.000  C
  C25      1.0000 0.38640  0.65490  0.79600  Biso   1.000  C
  C26      1.0000 0.61360  0.34510  0.79600  Biso   1.000  C
  C27      1.0000 0.34510  0.38640  0.79600  Biso   1.000  C
  C28      1.0000 0.65490  0.61360  0.79600  Biso   1.000  C
  C29      1.0000 0.88640  0.15490  0.29600  Biso   1.000  C
  C30      1.0000 0.11360  0.84510  0.29600  Biso   1.000  C
  C31      1.0000 0.84510  0.88640  0.29600  Biso   1.000  C
  C32      1.0000 0.15490  0.11360  0.29600  Biso   1.000  C
  C33      1.0000 0.56940  0.40300  0.20780  Biso   1.000  C
  C34      1.0000 0.43060  0.59700  0.20780  Biso   1.000  C
  C35      1.0000 0.59700  0.56940  0.20780  Biso   1.000  C
  C36      1.0000 0.40300  0.43060  0.20780  Biso   1.000  C
  C37      1.0000 0.06940  0.90300  0.70780  Biso   1.000  C
  C38      1.0000 0.93060  0.09700  0.70780  Biso   1.000  C
  C39      1.0000 0.09700  0.06940  0.70780  Biso   1.000  C
  C40      1.0000 0.90300  0.93060  0.70780  Biso   1.000  C
  C41      1.0000 0.43060  0.59700  0.79220  Biso   1.000  C
  C42      1.0000 0.56940  0.40300  0.79220  Biso   1.000  C
  C43      1.0000 0.40300  0.43060  0.79220  Biso   1.000  C
  C44      1.0000 0.59700  0.56940  0.79220  Biso   1.000  C
  C45      1.0000 0.93060  0.09700  0.29220  Biso   1.000  C
  C46      1.0000 0.06940  0.90300  0.29220  Biso   1.000  C
  C47      1.0000 0.90300  0.93060  0.29220  Biso   1.000  C
  C48      1.0000 0.09700  0.06940  0.29220  Biso   1.000  C
  C49      1.0000 0.66680  0.34690  0.15800  Biso   1.000  C
  C50      1.0000 0.33320  0.65310  0.15800  Biso   1.000  C
  C51      1.0000 0.65310  0.66680  0.15800  Biso   1.000  C
  C52      1.0000 0.34690  0.33320  0.15800  Biso   1.000  C
  C53      1.0000 0.16680  0.84690  0.65800  Biso   1.000  C
  C54      1.0000 0.83320  0.15310  0.65800  Biso   1.000  C
  C55      1.0000 0.15310  0.16680  0.65800  Biso   1.000  C
  C56      1.0000 0.84690  0.83320  0.65800  Biso   1.000  C
  C57      1.0000 0.33320  0.65310  0.84200  Biso   1.000  C
  C58      1.0000 0.66680  0.34690  0.84200  Biso   1.000  C
  C59      1.0000 0.34690  0.33320  0.84200  Biso   1.000  C
  C60      1.0000 0.65310  0.66680  0.84200  Biso   1.000  C
  C61      1.0000 0.83320  0.15310  0.34200  Biso   1.000  C
  C62      1.0000 0.16680  0.84690  0.34200  Biso   1.000  C
  C63      1.0000 0.84690  0.83320  0.34200  Biso   1.000  C
  C64      1.0000 0.15310  0.16680  0.34200  Biso   1.000  C
  H1       1.0000 0.67540  0.38420  0.13210  Biso   1.000  H
  H2       1.0000 0.32460  0.61580  0.13210  Biso   1.000  H
  H3       1.0000 0.61580  0.67540  0.13210  Biso   1.000  H
  H4       1.0000 0.38420  0.32460  0.13210  Biso   1.000  H
  H5       1.0000 0.17540  0.88420  0.63210  Biso   1.000  H
  H6       1.0000 0.82460  0.11580  0.63210  Biso   1.000  H
  H7       1.0000 0.11580  0.17540  0.63210  Biso   1.000  H
  H8       1.0000 0.88420  0.82460  0.63210  Biso   1.000  H
  H9       1.0000 0.32460  0.61580  0.86790  Biso   1.000  H
  H10      1.0000 0.67540  0.38420  0.86790  Biso   1.000  H
  H11      1.0000 0.38420  0.32460  0.86790  Biso   1.000  H
  H12      1.0000 0.61580  0.67540  0.86790  Biso   1.000  H
  H13      1.0000 0.82460  0.11580  0.36790  Biso   1.000  H
  H14      1.0000 0.17540  0.88420  0.36790  Biso   1.000  H
  H15      1.0000 0.88420  0.82460  0.36790  Biso   1.000  H
  H16      1.0000 0.11580  0.17540  0.36790  Biso   1.000  H
  C65      1.0000 0.70660  0.29600  0.14970  Biso   1.000  C
  C66      1.0000 0.29340  0.70400  0.14970  Biso   1.000  C
  C67      1.0000 0.70400  0.70660  0.14970  Biso   1.000  C
  C68      1.0000 0.29600  0.29340  0.14970  Biso   1.000  C
  C69      1.0000 0.20660  0.79600  0.64970  Biso   1.000  C
  C70      1.0000 0.79340  0.20400  0.64970  Biso   1.000  C
  C71      1.0000 0.20400  0.20660  0.64970  Biso   1.000  C
  C72      1.0000 0.79600  0.79340  0.64970  Biso   1.000  C
  C73      1.0000 0.29340  0.70400  0.85030  Biso   1.000  C
  C74      1.0000 0.70660  0.29600  0.85030  Biso   1.000  C
  C75      1.0000 0.29600  0.29340  0.85030  Biso   1.000  C
  C76      1.0000 0.70400  0.70660  0.85030  Biso   1.000  C
  C77      1.0000 0.79340  0.20400  0.35030  Biso   1.000  C
  C78      1.0000 0.20660  0.79600  0.35030  Biso   1.000  C
  C79      1.0000 0.79600  0.79340  0.35030  Biso   1.000  C
  C80      1.0000 0.20400  0.20660  0.35030  Biso   1.000  C
  C81      1.0000 0.69280  0.23950  0.18620  Biso   1.000  C
  C82      1.0000 0.30720  0.76050  0.18620  Biso   1.000  C
  C83      1.0000 0.76050  0.69280  0.18620  Biso   1.000  C
  C84      1.0000 0.23950  0.30720  0.18620  Biso   1.000  C
  C85      1.0000 0.19280  0.73950  0.68620  Biso   1.000  C
  C86      1.0000 0.80720  0.26050  0.68620  Biso   1.000  C
  C87      1.0000 0.26050  0.19280  0.68620  Biso   1.000  C
  C88      1.0000 0.73950  0.80720  0.68620  Biso   1.000  C
  C89      1.0000 0.30720  0.76050  0.81380  Biso   1.000  C
  C90      1.0000 0.69280  0.23950  0.81380  Biso   1.000  C
  C91      1.0000 0.23950  0.30720  0.81380  Biso   1.000  C
  C92      1.0000 0.76050  0.69280  0.81380  Biso   1.000  C
  C93      1.0000 0.80720  0.26050  0.31380  Biso   1.000  C
  C94      1.0000 0.19280  0.73950  0.31380  Biso   1.000  C
  C95      1.0000 0.73950  0.80720  0.31380  Biso   1.000  C
  C96      1.0000 0.26050  0.19280  0.31380  Biso   1.000  C
  H17      1.0000 0.71910  0.20420  0.17990  Biso   1.000  H
  H18      1.0000 0.28090  0.79580  0.17990  Biso   1.000  H
  H19      1.0000 0.79580  0.71910  0.17990  Biso   1.000  H
  H20      1.0000 0.20420  0.28090  0.17990  Biso   1.000  H
  H21      1.0000 0.21910  0.70420  0.67990  Biso   1.000  H
  H22      1.0000 0.78090  0.29580  0.67990  Biso   1.000  H
  H23      1.0000 0.29580  0.21910  0.67990  Biso   1.000  H
  H24      1.0000 0.70420  0.78090  0.67990  Biso   1.000  H
  H25      1.0000 0.28090  0.79580  0.82010  Biso   1.000  H
  H26      1.0000 0.71910  0.20420  0.82010  Biso   1.000  H
  H27      1.0000 0.20420  0.28090  0.82010  Biso   1.000  H
  H28      1.0000 0.79580  0.71910  0.82010  Biso   1.000  H
  H29      1.0000 0.78090  0.29580  0.32010  Biso   1.000  H
  H30      1.0000 0.21910  0.70420  0.32010  Biso   1.000  H
  H31      1.0000 0.70420  0.78090  0.32010  Biso   1.000  H
  H32      1.0000 0.29580  0.21910  0.32010  Biso   1.000  H
  C97      1.0000 0.64060  0.23530  0.23030  Biso   1.000  C
  C98      1.0000 0.35940  0.76470  0.23030  Biso   1.000  C
  C99      1.0000 0.76470  0.64060  0.23030  Biso   1.000  C
  C100     1.0000 0.23530  0.35940  0.23030  Biso   1.000  C
  C101     1.0000 0.14060  0.73530  0.73030  Biso   1.000  C
  C102     1.0000 0.85940  0.26470  0.73030  Biso   1.000  C
  C103     1.0000 0.26470  0.14060  0.73030  Biso   1.000  C
  C104     1.0000 0.73530  0.85940  0.73030  Biso   1.000  C
  C105     1.0000 0.35940  0.76470  0.76970  Biso   1.000  C
  C106     1.0000 0.64060  0.23530  0.76970  Biso   1.000  C
  C107     1.0000 0.23530  0.35940  0.76970  Biso   1.000  C
  C108     1.0000 0.76470  0.64060  0.76970  Biso   1.000  C
  C109     1.0000 0.85940  0.26470  0.26970  Biso   1.000  C
  C110     1.0000 0.14060  0.73530  0.26970  Biso   1.000  C
  C111     1.0000 0.73530  0.85940  0.26970  Biso   1.000  C
  C112     1.0000 0.26470  0.14060  0.26970  Biso   1.000  C
  H33      1.0000 0.63150  0.19710  0.25420  Biso   1.000  H
  H34      1.0000 0.36850  0.80290  0.25420  Biso   1.000  H
  H35      1.0000 0.80290  0.63150  0.25420  Biso   1.000  H
  H36      1.0000 0.19710  0.36850  0.25420  Biso   1.000  H
  H37      1.0000 0.13150  0.69710  0.75420  Biso   1.000  H
  H38      1.0000 0.86850  0.30290  0.75420  Biso   1.000  H
  H39      1.0000 0.30290  0.13150  0.75420  Biso   1.000  H
  H40      1.0000 0.69710  0.86850  0.75420  Biso   1.000  H
  H41      1.0000 0.36850  0.80290  0.74580  Biso   1.000  H
  H42      1.0000 0.63150  0.19710  0.74580  Biso   1.000  H
  H43      1.0000 0.19710  0.36850  0.74580  Biso   1.000  H
  H44      1.0000 0.80290  0.63150  0.74580  Biso   1.000  H
  H45      1.0000 0.86850  0.30290  0.24580  Biso   1.000  H
  H46      1.0000 0.13150  0.69710  0.24580  Biso   1.000  H
  H47      1.0000 0.69710  0.86850  0.24580  Biso   1.000  H
  H48      1.0000 0.30290  0.13150  0.24580  Biso   1.000  H
  C113     1.0000 0.76040  0.30100  0.09650  Biso   1.000  C
  C114     1.0000 0.23960  0.69900  0.09650  Biso   1.000  C
  C115     1.0000 0.69900  0.76040  0.09650  Biso   1.000  C
  C116     1.0000 0.30100  0.23960  0.09650  Biso   1.000  C
  C117     1.0000 0.26040  0.80100  0.59650  Biso   1.000  C
  C118     1.0000 0.73960  0.19900  0.59650  Biso   1.000  C
  C119     1.0000 0.19900  0.26040  0.59650  Biso   1.000  C
  C120     1.0000 0.80100  0.73960  0.59650  Biso   1.000  C
  C121     1.0000 0.23960  0.69900  0.90350  Biso   1.000  C
  C122     1.0000 0.76040  0.30100  0.90350  Biso   1.000  C
  C123     1.0000 0.30100  0.23960  0.90350  Biso   1.000  C
  C124     1.0000 0.69900  0.76040  0.90350  Biso   1.000  C
  C125     1.0000 0.73960  0.19900  0.40350  Biso   1.000  C
  C126     1.0000 0.26040  0.80100  0.40350  Biso   1.000  C
  C127     1.0000 0.80100  0.73960  0.40350  Biso   1.000  C
  C128     1.0000 0.19900  0.26040  0.40350  Biso   1.000  C
  C129     1.0000 0.56880  0.18950  0.40150  Biso   1.000  C
  C130     1.0000 0.43120  0.81050  0.40150  Biso   1.000  C
  C131     1.0000 0.81050  0.56880  0.40150  Biso   1.000  C
  C132     1.0000 0.18950  0.43120  0.40150  Biso   1.000  C
  C133     1.0000 0.06880  0.68950  0.90150  Biso   1.000  C
  C134     1.0000 0.93120  0.31050  0.90150  Biso   1.000  C
  C135     1.0000 0.31050  0.06880  0.90150  Biso   1.000  C
  C136     1.0000 0.68950  0.93120  0.90150  Biso   1.000  C
  C137     1.0000 0.43120  0.81050  0.59850  Biso   1.000  C
  C138     1.0000 0.56880  0.18950  0.59850  Biso   1.000  C
  C139     1.0000 0.18950  0.43120  0.59850  Biso   1.000  C
  C140     1.0000 0.81050  0.56880  0.59850  Biso   1.000  C
  C141     1.0000 0.93120  0.31050  0.09850  Biso   1.000  C
  C142     1.0000 0.06880  0.68950  0.09850  Biso   1.000  C
  C143     1.0000 0.68950  0.93120  0.09850  Biso   1.000  C
  C144     1.0000 0.31050  0.06880  0.09850  Biso   1.000  C
  C145     1.0000 0.52100  0.18150  0.33900  Biso   1.000  C
  C146     1.0000 0.47900  0.81850  0.33900  Biso   1.000  C
  C147     1.0000 0.81850  0.52100  0.33900  Biso   1.000  C
  C148     1.0000 0.18150  0.47900  0.33900  Biso   1.000  C
  C149     1.0000 0.02100  0.68150  0.83900  Biso   1.000  C
  C150     1.0000 0.97900  0.31850  0.83900  Biso   1.000  C
  C151     1.0000 0.31850  0.02100  0.83900  Biso   1.000  C
  C152     1.0000 0.68150  0.97900  0.83900  Biso   1.000  C
  C153     1.0000 0.47900  0.81850  0.66100  Biso   1.000  C
  C154     1.0000 0.52100  0.18150  0.66100  Biso   1.000  C
  C155     1.0000 0.18150  0.47900  0.66100  Biso   1.000  C
  C156     1.0000 0.81850  0.52100  0.66100  Biso   1.000  C
  C157     1.0000 0.97900  0.31850  0.16100  Biso   1.000  C
  C158     1.0000 0.02100  0.68150  0.16100  Biso   1.000  C
  C159     1.0000 0.68150  0.97900  0.16100  Biso   1.000  C
  C160     1.0000 0.31850  0.02100  0.16100  Biso   1.000  C
  C161     1.0000 0.48470  0.12680  0.33550  Biso   1.000  C
  C162     1.0000 0.51530  0.87320  0.33550  Biso   1.000  C
  C163     1.0000 0.87320  0.48470  0.33550  Biso   1.000  C
  C164     1.0000 0.12680  0.51530  0.33550  Biso   1.000  C
  C165     1.0000 0.98470  0.62680  0.83550  Biso   1.000  C
  C166     1.0000 0.01530  0.37320  0.83550  Biso   1.000  C
  C167     1.0000 0.37320  0.98470  0.83550  Biso   1.000  C
  C168     1.0000 0.62680  0.01530  0.83550  Biso   1.000  C
  C169     1.0000 0.51530  0.87320  0.66450  Biso   1.000  C
  C170     1.0000 0.48470  0.12680  0.66450  Biso   1.000  C
  C171     1.0000 0.12680  0.51530  0.66450  Biso   1.000  C
  C172     1.0000 0.87320  0.48470  0.66450  Biso   1.000  C
  C173     1.0000 0.01530  0.37320  0.16450  Biso   1.000  C
  C174     1.0000 0.98470  0.62680  0.16450  Biso   1.000  C
  C175     1.0000 0.62680  0.01530  0.16450  Biso   1.000  C
  C176     1.0000 0.37320  0.98470  0.16450  Biso   1.000  C
  H49      1.0000 0.48740  0.09740  0.37360  Biso   1.000  H
  H50      1.0000 0.51260  0.90260  0.37360  Biso   1.000  H
  H51      1.0000 0.90260  0.48740  0.37360  Biso   1.000  H
  H52      1.0000 0.09740  0.51260  0.37360  Biso   1.000  H
  H53      1.0000 0.98740  0.59740  0.87360  Biso   1.000  H
  H54      1.0000 0.01260  0.40260  0.87360  Biso   1.000  H
  H55      1.0000 0.40260  0.98740  0.87360  Biso   1.000  H
  H56      1.0000 0.59740  0.01260  0.87360  Biso   1.000  H
  H57      1.0000 0.51260  0.90260  0.62640  Biso   1.000  H
  H58      1.0000 0.48740  0.09740  0.62640  Biso   1.000  H
  H59      1.0000 0.09740  0.51260  0.62640  Biso   1.000  H
  H60      1.0000 0.90260  0.48740  0.62640  Biso   1.000  H
  H61      1.0000 0.01260  0.40260  0.12640  Biso   1.000  H
  H62      1.0000 0.98740  0.59740  0.12640  Biso   1.000  H
  H63      1.0000 0.59740  0.01260  0.12640  Biso   1.000  H
  H64      1.0000 0.40260  0.98740  0.12640  Biso   1.000  H
  C177     1.0000 0.44410  0.11410  0.27670  Biso   1.000  C
  C178     1.0000 0.55590  0.88590  0.27670  Biso   1.000  C
  C179     1.0000 0.88590  0.44410  0.27670  Biso   1.000  C
  C180     1.0000 0.11410  0.55590  0.27670  Biso   1.000  C
  C181     1.0000 0.94410  0.61410  0.77670  Biso   1.000  C
  C182     1.0000 0.05590  0.38590  0.77670  Biso   1.000  C
  C183     1.0000 0.38590  0.94410  0.77670  Biso   1.000  C
  C184     1.0000 0.61410  0.05590  0.77670  Biso   1.000  C
  C185     1.0000 0.55590  0.88590  0.72330  Biso   1.000  C
  C186     1.0000 0.44410  0.11410  0.72330  Biso   1.000  C
  C187     1.0000 0.11410  0.55590  0.72330  Biso   1.000  C
  C188     1.0000 0.88590  0.44410  0.72330  Biso   1.000  C
  C189     1.0000 0.05590  0.38590  0.22330  Biso   1.000  C
  C190     1.0000 0.94410  0.61410  0.22330  Biso   1.000  C
  C191     1.0000 0.61410  0.05590  0.22330  Biso   1.000  C
  C192     1.0000 0.38590  0.94410  0.22330  Biso   1.000  C
  H65      1.0000 0.42010  0.07670  0.27590  Biso   1.000  H
  H66      1.0000 0.57990  0.92330  0.27590  Biso   1.000  H
  H67      1.0000 0.92330  0.42010  0.27590  Biso   1.000  H
  H68      1.0000 0.07670  0.57990  0.27590  Biso   1.000  H
  H69      1.0000 0.92010  0.57670  0.77590  Biso   1.000  H
  H70      1.0000 0.07990  0.42330  0.77590  Biso   1.000  H
  H71      1.0000 0.42330  0.92010  0.77590  Biso   1.000  H
  H72      1.0000 0.57670  0.07990  0.77590  Biso   1.000  H
  H73      1.0000 0.57990  0.92330  0.72410  Biso   1.000  H
  H74      1.0000 0.42010  0.07670  0.72410  Biso   1.000  H
  H75      1.0000 0.07670  0.57990  0.72410  Biso   1.000  H
  H76      1.0000 0.92330  0.42010  0.72410  Biso   1.000  H
  H77      1.0000 0.07990  0.42330  0.22410  Biso   1.000  H
  H78      1.0000 0.92010  0.57670  0.22410  Biso   1.000  H
  H79      1.0000 0.57670  0.07990  0.22410  Biso   1.000  H
  H80      1.0000 0.42330  0.92010  0.22410  Biso   1.000  H
  C193     1.0000 0.43960  0.15710  0.21990  Biso   1.000  C
  C194     1.0000 0.56040  0.84290  0.21990  Biso   1.000  C
  C195     1.0000 0.84290  0.43960  0.21990  Biso   1.000  C
  C196     1.0000 0.15710  0.56040  0.21990  Biso   1.000  C
  C197     1.0000 0.93960  0.65710  0.71990  Biso   1.000  C
  C198     1.0000 0.06040  0.34290  0.71990  Biso   1.000  C
  C199     1.0000 0.34290  0.93960  0.71990  Biso   1.000  C
  C200     1.0000 0.65710  0.06040  0.71990  Biso   1.000  C
  C201     1.0000 0.56040  0.84290  0.78010  Biso   1.000  C
  C202     1.0000 0.43960  0.15710  0.78010  Biso   1.000  C
  C203     1.0000 0.15710  0.56040  0.78010  Biso   1.000  C
  C204     1.0000 0.84290  0.43960  0.78010  Biso   1.000  C
  C205     1.0000 0.06040  0.34290  0.28010  Biso   1.000  C
  C206     1.0000 0.93960  0.65710  0.28010  Biso   1.000  C
  C207     1.0000 0.65710  0.06040  0.28010  Biso   1.000  C
  C208     1.0000 0.34290  0.93960  0.28010  Biso   1.000  C
  H81      1.0000 0.41290  0.14910  0.18010  Biso   1.000  H
  H82      1.0000 0.58710  0.85090  0.18010  Biso   1.000  H
  H83      1.0000 0.85090  0.41290  0.18010  Biso   1.000  H
  H84      1.0000 0.14910  0.58710  0.18010  Biso   1.000  H
  H85      1.0000 0.91290  0.64910  0.68010  Biso   1.000  H
  H86      1.0000 0.08710  0.35090  0.68010  Biso   1.000  H
  H87      1.0000 0.35090  0.91290  0.68010  Biso   1.000  H
  H88      1.0000 0.64910  0.08710  0.68010  Biso   1.000  H
  H89      1.0000 0.58710  0.85090  0.81990  Biso   1.000  H
  H90      1.0000 0.41290  0.14910  0.81990  Biso   1.000  H
  H91      1.0000 0.14910  0.58710  0.81990  Biso   1.000  H
  H92      1.0000 0.85090  0.41290  0.81990  Biso   1.000  H
  H93      1.0000 0.08710  0.35090  0.31990  Biso   1.000  H
  H94      1.0000 0.91290  0.64910  0.31990  Biso   1.000  H
  H95      1.0000 0.64910  0.08710  0.31990  Biso   1.000  H
  H96      1.0000 0.35090  0.91290  0.31990  Biso   1.000  H
  C209     1.0000 0.47510  0.21160  0.22320  Biso   1.000  C
  C210     1.0000 0.52490  0.78840  0.22320  Biso   1.000  C
  C211     1.0000 0.78840  0.47510  0.22320  Biso   1.000  C
  C212     1.0000 0.21160  0.52490  0.22320  Biso   1.000  C
  C213     1.0000 0.97510  0.71160  0.72320  Biso   1.000  C
  C214     1.0000 0.02490  0.28840  0.72320  Biso   1.000  C
  C215     1.0000 0.28840  0.97510  0.72320  Biso   1.000  C
  C216     1.0000 0.71160  0.02490  0.72320  Biso   1.000  C
  C217     1.0000 0.52490  0.78840  0.77680  Biso   1.000  C
  C218     1.0000 0.47510  0.21160  0.77680  Biso   1.000  C
  C219     1.0000 0.21160  0.52490  0.77680  Biso   1.000  C
  C220     1.0000 0.78840  0.47510  0.77680  Biso   1.000  C
  C221     1.0000 0.02490  0.28840  0.27680  Biso   1.000  C
  C222     1.0000 0.97510  0.71160  0.27680  Biso   1.000  C
  C223     1.0000 0.71160  0.02490  0.27680  Biso   1.000  C
  C224     1.0000 0.28840  0.97510  0.27680  Biso   1.000  C
  H97      1.0000 0.47260  0.24060  0.18460  Biso   1.000  H
  H98      1.0000 0.52740  0.75940  0.18460  Biso   1.000  H
  H99      1.0000 0.75940  0.47260  0.18460  Biso   1.000  H
  H100     1.0000 0.24060  0.52740  0.18460  Biso   1.000  H
  H101     1.0000 0.97260  0.74060  0.68460  Biso   1.000  H
  H102     1.0000 0.02740  0.25940  0.68460  Biso   1.000  H
  H103     1.0000 0.25940  0.97260  0.68460  Biso   1.000  H
  H104     1.0000 0.74060  0.02740  0.68460  Biso   1.000  H
  H105     1.0000 0.52740  0.75940  0.81540  Biso   1.000  H
  H106     1.0000 0.47260  0.24060  0.81540  Biso   1.000  H
  H107     1.0000 0.24060  0.52740  0.81540  Biso   1.000  H
  H108     1.0000 0.75940  0.47260  0.81540  Biso   1.000  H
  H109     1.0000 0.02740  0.25940  0.31540  Biso   1.000  H
  H110     1.0000 0.97260  0.74060  0.31540  Biso   1.000  H
  H111     1.0000 0.74060  0.02740  0.31540  Biso   1.000  H
  H112     1.0000 0.25940  0.97260  0.31540  Biso   1.000  H
  C225     1.0000 0.51480  0.22520  0.28180  Biso   1.000  C
  C226     1.0000 0.48520  0.77480  0.28180  Biso   1.000  C
  C227     1.0000 0.77480  0.51480  0.28180  Biso   1.000  C
  C228     1.0000 0.22520  0.48520  0.28180  Biso   1.000  C
  C229     1.0000 0.01480  0.72520  0.78180  Biso   1.000  C
  C230     1.0000 0.98520  0.27480  0.78180  Biso   1.000  C
  C231     1.0000 0.27480  0.01480  0.78180  Biso   1.000  C
  C232     1.0000 0.72520  0.98520  0.78180  Biso   1.000  C
  C233     1.0000 0.48520  0.77480  0.71820  Biso   1.000  C
  C234     1.0000 0.51480  0.22520  0.71820  Biso   1.000  C
  C235     1.0000 0.22520  0.48520  0.71820  Biso   1.000  C
  C236     1.0000 0.77480  0.51480  0.71820  Biso   1.000  C
  C237     1.0000 0.98520  0.27480  0.21820  Biso   1.000  C
  C238     1.0000 0.01480  0.72520  0.21820  Biso   1.000  C
  C239     1.0000 0.72520  0.98520  0.21820  Biso   1.000  C
  C240     1.0000 0.27480  0.01480  0.21820  Biso   1.000  C
  O1       1.0000 0.54720  0.28340  0.28390  Biso   1.000  O
  O2       1.0000 0.45280  0.71660  0.28390  Biso   1.000  O
  O3       1.0000 0.71660  0.54720  0.28390  Biso   1.000  O
  O4       1.0000 0.28340  0.45280  0.28390  Biso   1.000  O
  O5       1.0000 0.04720  0.78340  0.78390  Biso   1.000  O
  O6       1.0000 0.95280  0.21660  0.78390  Biso   1.000  O
  O7       1.0000 0.21660  0.04720  0.78390  Biso   1.000  O
  O8       1.0000 0.78340  0.95280  0.78390  Biso   1.000  O
  O9       1.0000 0.45280  0.71660  0.71610  Biso   1.000  O
  O10      1.0000 0.54720  0.28340  0.71610  Biso   1.000  O
  O11      1.0000 0.28340  0.45280  0.71610  Biso   1.000  O
  O12      1.0000 0.71660  0.54720  0.71610  Biso   1.000  O
  O13      1.0000 0.95280  0.21660  0.21610  Biso   1.000  O
  O14      1.0000 0.04720  0.78340  0.21610  Biso   1.000  O
  O15      1.0000 0.78340  0.95280  0.21610  Biso   1.000  O
  O16      1.0000 0.21660  0.04720  0.21610  Biso   1.000  O
  O17      1.0000 0.58270  0.24450  0.42410  Biso   1.000  O
  O18      1.0000 0.41730  0.75550  0.42410  Biso   1.000  O
  O19      1.0000 0.75550  0.58270  0.42410  Biso   1.000  O
  O20      1.0000 0.24450  0.41730  0.42410  Biso   1.000  O
  O21      1.0000 0.08270  0.74450  0.92410  Biso   1.000  O
  O22      1.0000 0.91730  0.25550  0.92410  Biso   1.000  O
  O23      1.0000 0.25550  0.08270  0.92410  Biso   1.000  O
  O24      1.0000 0.74450  0.91730  0.92410  Biso   1.000  O
  O25      1.0000 0.41730  0.75550  0.57590  Biso   1.000  O
  O26      1.0000 0.58270  0.24450  0.57590  Biso   1.000  O
  O27      1.0000 0.24450  0.41730  0.57590  Biso   1.000  O
  O28      1.0000 0.75550  0.58270  0.57590  Biso   1.000  O
  O29      1.0000 0.91730  0.25550  0.07590  Biso   1.000  O
  O30      1.0000 0.08270  0.74450  0.07590  Biso   1.000  O
  O31      1.0000 0.74450  0.91730  0.07590  Biso   1.000  O
  O32      1.0000 0.25550  0.08270  0.07590  Biso   1.000  O
  O33      1.0000 0.59090  0.13720  0.42480  Biso   1.000  O
  O34      1.0000 0.40910  0.86280  0.42480  Biso   1.000  O
  O35      1.0000 0.86280  0.59090  0.42480  Biso   1.000  O
  O36      1.0000 0.13720  0.40910  0.42480  Biso   1.000  O
  O37      1.0000 0.09090  0.63720  0.92480  Biso   1.000  O
  O38      1.0000 0.90910  0.36280  0.92480  Biso   1.000  O
  O39      1.0000 0.36280  0.09090  0.92480  Biso   1.000  O
  O40      1.0000 0.63720  0.90910  0.92480  Biso   1.000  O
  O41      1.0000 0.40910  0.86280  0.57520  Biso   1.000  O
  O42      1.0000 0.59090  0.13720  0.57520  Biso   1.000  O
  O43      1.0000 0.13720  0.40910  0.57520  Biso   1.000  O
  O44      1.0000 0.86280  0.59090  0.57520  Biso   1.000  O
  O45      1.0000 0.90910  0.36280  0.07520  Biso   1.000  O
  O46      1.0000 0.09090  0.63720  0.07520  Biso   1.000  O
  O47      1.0000 0.63720  0.90910  0.07520  Biso   1.000  O
  O48      1.0000 0.36280  0.09090  0.07520  Biso   1.000  O
  O49      1.0000 0.77740  0.35560  0.07590  Biso   1.000  O
  O50      1.0000 0.22260  0.64440  0.07590  Biso   1.000  O
  O51      1.0000 0.64440  0.77740  0.07590  Biso   1.000  O
  O52      1.0000 0.35560  0.22260  0.07590  Biso   1.000  O
  O53      1.0000 0.27740  0.85560  0.57590  Biso   1.000  O
  O54      1.0000 0.72260  0.14440  0.57590  Biso   1.000  O
  O55      1.0000 0.14440  0.27740  0.57590  Biso   1.000  O
  O56      1.0000 0.85560  0.72260  0.57590  Biso   1.000  O
  O57      1.0000 0.22260  0.64440  0.92410  Biso   1.000  O
  O58      1.0000 0.77740  0.35560  0.92410  Biso   1.000  O
  O59      1.0000 0.35560  0.22260  0.92410  Biso   1.000  O
  O60      1.0000 0.64440  0.77740  0.92410  Biso   1.000  O
  O61      1.0000 0.72260  0.14440  0.42410  Biso   1.000  O
  O62      1.0000 0.27740  0.85560  0.42410  Biso   1.000  O
  O63      1.0000 0.85560  0.72260  0.42410  Biso   1.000  O
  O64      1.0000 0.14440  0.27740  0.42410  Biso   1.000  O
  O65      1.0000 0.78660  0.24890  0.07590  Biso   1.000  O
  O66      1.0000 0.21340  0.75110  0.07590  Biso   1.000  O
  O67      1.0000 0.75110  0.78660  0.07590  Biso   1.000  O
  O68      1.0000 0.24890  0.21340  0.07590  Biso   1.000  O
  O69      1.0000 0.28660  0.74890  0.57590  Biso   1.000  O
  O70      1.0000 0.71340  0.25110  0.57590  Biso   1.000  O
  O71      1.0000 0.25110  0.28660  0.57590  Biso   1.000  O
  O72      1.0000 0.74890  0.71340  0.57590  Biso   1.000  O
  O73      1.0000 0.21340  0.75110  0.92410  Biso   1.000  O
  O74      1.0000 0.78660  0.24890  0.92410  Biso   1.000  O
  O75      1.0000 0.24890  0.21340  0.92410  Biso   1.000  O
  O76      1.0000 0.75110  0.78660  0.92410  Biso   1.000  O
  O77      1.0000 0.71340  0.25110  0.42410  Biso   1.000  O
  O78      1.0000 0.28660  0.74890  0.42410  Biso   1.000  O
  O79      1.0000 0.74890  0.71340  0.42410  Biso   1.000  O
  O80      1.0000 0.25110  0.28660  0.42410  Biso   1.000  O
  O81      1.0000 0.54770  0.41870  0.26690  Biso   1.000  O
  O82      1.0000 0.45230  0.58130  0.26690  Biso   1.000  O
  O83      1.0000 0.58130  0.54770  0.26690  Biso   1.000  O
  O84      1.0000 0.41870  0.45230  0.26690  Biso   1.000  O
  O85      1.0000 0.04770  0.91870  0.76690  Biso   1.000  O
  O86      1.0000 0.95230  0.08130  0.76690  Biso   1.000  O
  O87      1.0000 0.08130  0.04770  0.76690  Biso   1.000  O
  O88      1.0000 0.91870  0.95230  0.76690  Biso   1.000  O
  O89      1.0000 0.45230  0.58130  0.73310  Biso   1.000  O
  O90      1.0000 0.54770  0.41870  0.73310  Biso   1.000  O
  O91      1.0000 0.41870  0.45230  0.73310  Biso   1.000  O
  O92      1.0000 0.58130  0.54770  0.73310  Biso   1.000  O
  O93      1.0000 0.95230  0.08130  0.23310  Biso   1.000  O
  O94      1.0000 0.04770  0.91870  0.23310  Biso   1.000  O
  O95      1.0000 0.91870  0.95230  0.23310  Biso   1.000  O
  O96      1.0000 0.08130  0.04770  0.23310  Biso   1.000  O
  O97      1.0000 0.56080  0.43030  0.14540  Biso   1.000  O
  O98      1.0000 0.43920  0.56970  0.14540  Biso   1.000  O
  O99      1.0000 0.56970  0.56080  0.14540  Biso   1.000  O
  O100     1.0000 0.43030  0.43920  0.14540  Biso   1.000  O
  O101     1.0000 0.06080  0.93030  0.64540  Biso   1.000  O
  O102     1.0000 0.93920  0.06970  0.64540  Biso   1.000  O
  O103     1.0000 0.06970  0.06080  0.64540  Biso   1.000  O
  O104     1.0000 0.93030  0.93920  0.64540  Biso   1.000  O
  O105     1.0000 0.43920  0.56970  0.85460  Biso   1.000  O
  O106     1.0000 0.56080  0.43030  0.85460  Biso   1.000  O
  O107     1.0000 0.43030  0.43920  0.85460  Biso   1.000  O
  O108     1.0000 0.56970  0.56080  0.85460  Biso   1.000  O
  O109     1.0000 0.93920  0.06970  0.35460  Biso   1.000  O
  O110     1.0000 0.06080  0.93030  0.35460  Biso   1.000  O
  O111     1.0000 0.93030  0.93920  0.35460  Biso   1.000  O
  O112     1.0000 0.06970  0.06080  0.35460  Biso   1.000  O
  O113     1.0000 0.85450  0.14860  0.00000  Biso   1.000  O
  O114     1.0000 0.14550  0.85140  0.00000  Biso   1.000  O
  O115     1.0000 0.85140  0.85450  0.00000  Biso   1.000  O
  O116     1.0000 0.14860  0.14550  0.00000  Biso   1.000  O
  O117     1.0000 0.35450  0.64860  0.50000  Biso   1.000  O
  O118     1.0000 0.64550  0.35140  0.50000  Biso   1.000  O
  O119     1.0000 0.35140  0.35450  0.50000  Biso   1.000  O
  O120     1.0000 0.64860  0.64550  0.50000  Biso   1.000  O
  H113     1.0000 0.83510  0.13470  0.96220  Biso   1.000  H
  H114     1.0000 0.16490  0.86530  0.96220  Biso   1.000  H
  H115     1.0000 0.86530  0.83510  0.96220  Biso   1.000  H
  H116     1.0000 0.13470  0.16490  0.96220  Biso   1.000  H
  H117     1.0000 0.33510  0.63470  0.46220  Biso   1.000  H
  H118     1.0000 0.66490  0.36530  0.46220  Biso   1.000  H
  H119     1.0000 0.36530  0.33510  0.46220  Biso   1.000  H
  H120     1.0000 0.63470  0.66490  0.46220  Biso   1.000  H
  H121     1.0000 0.16490  0.86530  0.03780  Biso   1.000  H
  H122     1.0000 0.83510  0.13470  0.03780  Biso   1.000  H
  H123     1.0000 0.13470  0.16490  0.03780  Biso   1.000  H
  H124     1.0000 0.86530  0.83510  0.03780  Biso   1.000  H
  H125     1.0000 0.66490  0.36530  0.53780  Biso   1.000  H
  H126     1.0000 0.33510  0.63470  0.53780  Biso   1.000  H
  H127     1.0000 0.63470  0.66490  0.53780  Biso   1.000  H
  H128     1.0000 0.36530  0.33510  0.53780  Biso   1.000  H
  O121     1.0000 0.82970  0.46290  0.00000  Biso   1.000  O
  O122     1.0000 0.17030  0.53710  0.00000  Biso   1.000  O
  O123     1.0000 0.53710  0.82970  0.00000  Biso   1.000  O
  O124     1.0000 0.46290  0.17030  0.00000  Biso   1.000  O
  O125     1.0000 0.32970  0.96290  0.50000  Biso   1.000  O
  O126     1.0000 0.67030  0.03710  0.50000  Biso   1.000  O
  O127     1.0000 0.03710  0.32970  0.50000  Biso   1.000  O
  O128     1.0000 0.96290  0.67030  0.50000  Biso   1.000  O
  H129     1.0000 0.80860  0.47400  0.03780  Biso   1.000  H
  H130     1.0000 0.19140  0.52600  0.03780  Biso   1.000  H
  H131     1.0000 0.52600  0.80860  0.03780  Biso   1.000  H
  H132     1.0000 0.47400  0.19140  0.03780  Biso   1.000  H
  H133     1.0000 0.30860  0.97400  0.53780  Biso   1.000  H
  H134     1.0000 0.69140  0.02600  0.53780  Biso   1.000  H
  H135     1.0000 0.02600  0.30860  0.53780  Biso   1.000  H
  H136     1.0000 0.97400  0.69140  0.53780  Biso   1.000  H
  H137     1.0000 0.19140  0.52600  0.96220  Biso   1.000  H
  H138     1.0000 0.80860  0.47400  0.96220  Biso   1.000  H
  H139     1.0000 0.47400  0.19140  0.96220  Biso   1.000  H
  H140     1.0000 0.52600  0.80860  0.96220  Biso   1.000  H
  H141     1.0000 0.69140  0.02600  0.46220  Biso   1.000  H
  H142     1.0000 0.30860  0.97400  0.46220  Biso   1.000  H
  H143     1.0000 0.97400  0.69140  0.46220  Biso   1.000  H
  H144     1.0000 0.02600  0.30860  0.46220  Biso   1.000  H
  O129     1.0000 0.50000  0.50000  0.00000  Biso   1.000  O
  O130     1.0000 0.00000  0.00000  0.50000  Biso   1.000  O
  O131     1.0000 0.50000  0.50000  0.38800  Biso   1.000  O
  O132     1.0000 0.00000  0.00000  0.88800  Biso   1.000  O
  O133     1.0000 0.50000  0.50000  0.61200  Biso   1.000  O
  O134     1.0000 0.00000  0.00000  0.11200  Biso   1.000  O
  H145     1.0000 0.49050  0.53700  0.40370  Biso   1.000  H
  H146     1.0000 0.50950  0.46300  0.40370  Biso   1.000  H
  H147     1.0000 0.46300  0.49050  0.40370  Biso   1.000  H
  H148     1.0000 0.53700  0.50950  0.40370  Biso   1.000  H
  H149     1.0000 0.99050  0.03700  0.90370  Biso   1.000  H
  H150     1.0000 0.00950  0.96300  0.90370  Biso   1.000  H
  H151     1.0000 0.96300  0.99050  0.90370  Biso   1.000  H
  H152     1.0000 0.03700  0.00950  0.90370  Biso   1.000  H
  H153     1.0000 0.50950  0.46300  0.59630  Biso   1.000  H
  H154     1.0000 0.49050  0.53700  0.59630  Biso   1.000  H
  H155     1.0000 0.53700  0.50950  0.59630  Biso   1.000  H
  H156     1.0000 0.46300  0.49050  0.59630  Biso   1.000  H
  H157     1.0000 0.00950  0.96300  0.09630  Biso   1.000  H
  H158     1.0000 0.99050  0.03700  0.09630  Biso   1.000  H
  H159     1.0000 0.03700  0.00950  0.09630  Biso   1.000  H
  H160     1.0000 0.96300  0.99050  0.09630  Biso   1.000  H
  H161     1.0000 0.53700  0.49050  0.40370  Biso   1.000  H
  H162     1.0000 0.46300  0.50950  0.40370  Biso   1.000  H
  H163     1.0000 0.50950  0.53700  0.40370  Biso   1.000  H
  H164     1.0000 0.49050  0.46300  0.40370  Biso   1.000  H
  H165     1.0000 0.03700  0.99050  0.90370  Biso   1.000  H
  H166     1.0000 0.96300  0.00950  0.90370  Biso   1.000  H
  H167     1.0000 0.00950  0.03700  0.90370  Biso   1.000  H
  H168     1.0000 0.99050  0.96300  0.90370  Biso   1.000  H
  H169     1.0000 0.46300  0.50950  0.59630  Biso   1.000  H
  H170     1.0000 0.53700  0.49050  0.59630  Biso   1.000  H
  H171     1.0000 0.49050  0.46300  0.59630  Biso   1.000  H
  H172     1.0000 0.50950  0.53700  0.59630  Biso   1.000  H
  H173     1.0000 0.96300  0.00950  0.09630  Biso   1.000  H
  H174     1.0000 0.03700  0.99050  0.09630  Biso   1.000  H
  H175     1.0000 0.99050  0.96300  0.09630  Biso   1.000  H
  H176     1.0000 0.00950  0.03700  0.09630  Biso   1.000  H
  H177     1.0000 0.53630  0.48800  0.98420  Biso   1.000  H
  H178     1.0000 0.46370  0.51200  0.98420  Biso   1.000  H
  H179     1.0000 0.51200  0.53630  0.98420  Biso   1.000  H
  H180     1.0000 0.48800  0.46370  0.98420  Biso   1.000  H
  H181     1.0000 0.03630  0.98800  0.48420  Biso   1.000  H
  H182     1.0000 0.96370  0.01200  0.48420  Biso   1.000  H
  H183     1.0000 0.01200  0.03630  0.48420  Biso   1.000  H
  H184     1.0000 0.98800  0.96370  0.48420  Biso   1.000  H
  H185     1.0000 0.46370  0.51200  0.01580  Biso   1.000  H
  H186     1.0000 0.53630  0.48800  0.01580  Biso   1.000  H
  H187     1.0000 0.48800  0.46370  0.01580  Biso   1.000  H
  H188     1.0000 0.51200  0.53630  0.01580  Biso   1.000  H
  H189     1.0000 0.96370  0.01200  0.51580  Biso   1.000  H
  H190     1.0000 0.03630  0.98800  0.51580  Biso   1.000  H
  H191     1.0000 0.98800  0.96370  0.51580  Biso   1.000  H
  H192     1.0000 0.01200  0.03630  0.51580  Biso   1.000  H
  H193     1.0000 0.49300  0.53760  0.98420  Biso   1.000  H
  H194     1.0000 0.50700  0.46240  0.98420  Biso   1.000  H
  H195     1.0000 0.46240  0.49300  0.98420  Biso   1.000  H
  H196     1.0000 0.53760  0.50700  0.98420  Biso   1.000  H
  H197     1.0000 0.99300  0.03760  0.48420  Biso   1.000  H
  H198     1.0000 0.00700  0.96240  0.48420  Biso   1.000  H
  H199     1.0000 0.96240  0.99300  0.48420  Biso   1.000  H
  H200     1.0000 0.03760  0.00700  0.48420  Biso   1.000  H
  H201     1.0000 0.50700  0.46240  0.01580  Biso   1.000  H
  H202     1.0000 0.49300  0.53760  0.01580  Biso   1.000  H
  H203     1.0000 0.53760  0.50700  0.01580  Biso   1.000  H
  H204     1.0000 0.46240  0.49300  0.01580  Biso   1.000  H
  H205     1.0000 0.00700  0.96240  0.51580  Biso   1.000  H
  H206     1.0000 0.99300  0.03760  0.51580  Biso   1.000  H
  H207     1.0000 0.03760  0.00700  0.51580  Biso   1.000  H
  H208     1.0000 0.96240  0.99300  0.51580  Biso   1.000  H
  H209     1.0000 0.86590  0.48130  0.00000  Biso   1.000  H
  H210     1.0000 0.13410  0.51870  0.00000  Biso   1.000  H
  H211     1.0000 0.51870  0.86590  0.00000  Biso   1.000  H
  H212     1.0000 0.48130  0.13410  0.00000  Biso   1.000  H
  H213     1.0000 0.36590  0.98130  0.50000  Biso   1.000  H
  H214     1.0000 0.63410  0.01870  0.50000  Biso   1.000  H
  H215     1.0000 0.01870  0.36590  0.50000  Biso   1.000  H
  H216     1.0000 0.98130  0.63410  0.50000  Biso   1.000  H
