data_image0
_cell_length_a       14.158
_cell_length_b       9.805
_cell_length_c       11.413
_cell_angle_alpha    90
_cell_angle_beta     127.987
_cell_angle_gamma    90

_symmetry_space_group_name_H-M    "P 1"
_symmetry_int_tables_number       1

loop_
  _symmetry_equiv_pos_as_xyz
  'x, y, z'

loop_
  _atom_site_label
  _atom_site_occupancy
  _atom_site_fract_x
  _atom_site_fract_y
  _atom_site_fract_z
  _atom_site_thermal_displace_type
  _atom_site_B_iso_or_equiv
  _atom_site_type_symbol
  Cu1      1.0000 0.50000  0.61362  0.25000  Biso   1.000  Cu
  Cu2      1.0000 0.00000  0.11362  0.25000  Biso   1.000  Cu
  Cu3      1.0000 0.50000  0.38638  0.75000  Biso   1.000  Cu
  Cu4      1.0000 0.00000  0.88638  0.75000  Biso   1.000  Cu
  N1       1.0000 0.35010  0.51256  0.10950  Biso   1.000  N
  N2       1.0000 0.64990  0.51256  0.39050  Biso   1.000  N
  N3       1.0000 0.85010  0.01256  0.10950  Biso   1.000  N
  N4       1.0000 0.14990  0.01256  0.39050  Biso   1.000  N
  N5       1.0000 0.64990  0.48744  0.89050  Biso   1.000  N
  N6       1.0000 0.35010  0.48744  0.60950  Biso   1.000  N
  N7       1.0000 0.14990  0.98744  0.89050  Biso   1.000  N
  N8       1.0000 0.85010  0.98744  0.60950  Biso   1.000  N
  N9       1.0000 0.29080  0.45972  0.15994  Biso   1.000  N
  N10      1.0000 0.70920  0.45972  0.34006  Biso   1.000  N
  N11      1.0000 0.79080  0.95972  0.15994  Biso   1.000  N
  N12      1.0000 0.20920  0.95972  0.34006  Biso   1.000  N
  N13      1.0000 0.70920  0.54028  0.84006  Biso   1.000  N
  N14      1.0000 0.29080  0.54028  0.65994  Biso   1.000  N
  N15      1.0000 0.20920  0.04028  0.84006  Biso   1.000  N
  N16      1.0000 0.79080  0.04028  0.65994  Biso   1.000  N
  C1       1.0000 0.19520  0.40506  0.03919  Biso   1.000  C
  C2       1.0000 0.80480  0.40506  0.46081  Biso   1.000  C
  C3       1.0000 0.69520  0.90506  0.03919  Biso   1.000  C
  C4       1.0000 0.30480  0.90506  0.46081  Biso   1.000  C
  C5       1.0000 0.80480  0.59494  0.96081  Biso   1.000  C
  C6       1.0000 0.19520  0.59494  0.53919  Biso   1.000  C
  C7       1.0000 0.30480  0.09494  0.96081  Biso   1.000  C
  C8       1.0000 0.69520  0.09494  0.53919  Biso   1.000  C
  N17      1.0000 0.18386  0.41595  0.91386  Biso   1.000  N
  N18      1.0000 0.81614  0.41595  0.58614  Biso   1.000  N
  N19      1.0000 0.68386  0.91595  0.91386  Biso   1.000  N
  N20      1.0000 0.31614  0.91595  0.58614  Biso   1.000  N
  N21      1.0000 0.81614  0.58405  0.08614  Biso   1.000  N
  N22      1.0000 0.18386  0.58405  0.41386  Biso   1.000  N
  N23      1.0000 0.31614  0.08405  0.08614  Biso   1.000  N
  N24      1.0000 0.68386  0.08405  0.41386  Biso   1.000  N
  C9       1.0000 0.28448  0.48473  0.96502  Biso   1.000  C
  C10      1.0000 0.71552  0.48473  0.53498  Biso   1.000  C
  C11      1.0000 0.78448  0.98473  0.96502  Biso   1.000  C
  C12      1.0000 0.21552  0.98473  0.53498  Biso   1.000  C
  C13      1.0000 0.71552  0.51527  0.03498  Biso   1.000  C
  C14      1.0000 0.28448  0.51527  0.46502  Biso   1.000  C
  C15      1.0000 0.21552  0.01527  0.03498  Biso   1.000  C
  C16      1.0000 0.78448  0.01527  0.46502  Biso   1.000  C
  H1       1.0000 0.30600  0.51020  0.90590  Biso   1.000  H
  H2       1.0000 0.69400  0.51020  0.59410  Biso   1.000  H
  H3       1.0000 0.80600  0.01020  0.90590  Biso   1.000  H
  H4       1.0000 0.19400  0.01020  0.59410  Biso   1.000  H
  H5       1.0000 0.69400  0.48980  0.09410  Biso   1.000  H
  H6       1.0000 0.30600  0.48980  0.40590  Biso   1.000  H
  H7       1.0000 0.19400  0.98980  0.09410  Biso   1.000  H
  H8       1.0000 0.80600  0.98980  0.40590  Biso   1.000  H
  N25      1.0000 0.02853  0.22794  0.12774  Biso   1.000  N
  N26      1.0000 0.97147  0.22794  0.37226  Biso   1.000  N
  N27      1.0000 0.52853  0.72794  0.12774  Biso   1.000  N
  N28      1.0000 0.47147  0.72794  0.37226  Biso   1.000  N
  N29      1.0000 0.97147  0.77206  0.87226  Biso   1.000  N
  N30      1.0000 0.02853  0.77206  0.62774  Biso   1.000  N
  N31      1.0000 0.47147  0.27206  0.87226  Biso   1.000  N
  N32      1.0000 0.52853  0.27206  0.62774  Biso   1.000  N
  N33      1.0000 0.93743  0.26000  0.98032  Biso   1.000  N
  N34      1.0000 0.06257  0.26000  0.51968  Biso   1.000  N
  N35      1.0000 0.43743  0.76000  0.98032  Biso   1.000  N
  N36      1.0000 0.56257  0.76000  0.51968  Biso   1.000  N
  N37      1.0000 0.06257  0.74000  0.01968  Biso   1.000  N
  N38      1.0000 0.93743  0.74000  0.48032  Biso   1.000  N
  N39      1.0000 0.56257  0.24000  0.01968  Biso   1.000  N
  N40      1.0000 0.43743  0.24000  0.48032  Biso   1.000  N
  C17      1.0000 0.98878  0.32526  0.93332  Biso   1.000  C
  C18      1.0000 0.01122  0.32526  0.56668  Biso   1.000  C
  C19      1.0000 0.48878  0.82526  0.93332  Biso   1.000  C
  C20      1.0000 0.51122  0.82526  0.56668  Biso   1.000  C
  C21      1.0000 0.01122  0.67474  0.06668  Biso   1.000  C
  C22      1.0000 0.98878  0.67474  0.43332  Biso   1.000  C
  C23      1.0000 0.51122  0.17474  0.06668  Biso   1.000  C
  C24      1.0000 0.48878  0.17474  0.43332  Biso   1.000  C
  H9       1.0000 0.94880  0.35900  0.83740  Biso   1.000  H
  H10      1.0000 0.05120  0.35900  0.66260  Biso   1.000  H
  H11      1.0000 0.44880  0.85900  0.83740  Biso   1.000  H
  H12      1.0000 0.55120  0.85900  0.66260  Biso   1.000  H
  H13      1.0000 0.05120  0.64100  0.16260  Biso   1.000  H
  H14      1.0000 0.94880  0.64100  0.33740  Biso   1.000  H
  H15      1.0000 0.55120  0.14100  0.16260  Biso   1.000  H
  H16      1.0000 0.44880  0.14100  0.33740  Biso   1.000  H
  N41      1.0000 0.10924  0.33725  0.04425  Biso   1.000  N
  N42      1.0000 0.89076  0.33725  0.45575  Biso   1.000  N
  N43      1.0000 0.60924  0.83725  0.04425  Biso   1.000  N
  N44      1.0000 0.39076  0.83725  0.45575  Biso   1.000  N
  N45      1.0000 0.89076  0.66275  0.95575  Biso   1.000  N
  N46      1.0000 0.10924  0.66275  0.54425  Biso   1.000  N
  N47      1.0000 0.39076  0.16275  0.95575  Biso   1.000  N
  N48      1.0000 0.60924  0.16275  0.54425  Biso   1.000  N
  C25      1.0000 0.13021  0.27424  0.16333  Biso   1.000  C
  C26      1.0000 0.86979  0.27424  0.33667  Biso   1.000  C
  C27      1.0000 0.63021  0.77424  0.16333  Biso   1.000  C
  C28      1.0000 0.36979  0.77424  0.33667  Biso   1.000  C
  C29      1.0000 0.86979  0.72576  0.83667  Biso   1.000  C
  C30      1.0000 0.13021  0.72576  0.66333  Biso   1.000  C
  C31      1.0000 0.36979  0.22576  0.83667  Biso   1.000  C
  C32      1.0000 0.63021  0.22576  0.66333  Biso   1.000  C
  H17      1.0000 0.20480  0.26510  0.25580  Biso   1.000  H
  H18      1.0000 0.79520  0.26510  0.24420  Biso   1.000  H
  H19      1.0000 0.70480  0.76510  0.25580  Biso   1.000  H
  H20      1.0000 0.29520  0.76510  0.24420  Biso   1.000  H
  H21      1.0000 0.79520  0.73490  0.74420  Biso   1.000  H
  H22      1.0000 0.20480  0.73490  0.75580  Biso   1.000  H
  H23      1.0000 0.29520  0.23490  0.74420  Biso   1.000  H
  H24      1.0000 0.70480  0.23490  0.75580  Biso   1.000  H
