data_image0
_cell_length_a       6.8178
_cell_length_b       7.4015
_cell_length_c       8.5079
_cell_angle_alpha    104.775
_cell_angle_beta     90.733
_cell_angle_gamma    111.497

_symmetry_space_group_name_H-M    "P 1"
_symmetry_int_tables_number       1

loop_
  _symmetry_equiv_pos_as_xyz
  'x, y, z'

loop_
  _atom_site_label
  _atom_site_occupancy
  _atom_site_fract_x
  _atom_site_fract_y
  _atom_site_fract_z
  _atom_site_thermal_displace_type
  _atom_site_B_iso_or_equiv
  _atom_site_type_symbol
  Cu1      1.0000 0.20375  0.21538  0.55571  Biso   1.000  Cu
  Cu2      1.0000 0.79625  0.78462  0.44429  Biso   1.000  Cu
  C1       1.0000 0.12690  0.22460  0.21820  Biso   1.000  C
  C2       1.0000 0.87310  0.77540  0.78180  Biso   1.000  C
  C3       1.0000 0.21910  0.23450  0.06130  Biso   1.000  C
  C4       1.0000 0.78090  0.76550  0.93870  Biso   1.000  C
  C5       1.0000 0.41440  0.23790  0.01940  Biso   1.000  C
  C6       1.0000 0.58560  0.76210  0.98060  Biso   1.000  C
  H1       1.0000 0.52360  0.23630  0.08490  Biso   1.000  H
  H2       1.0000 0.47640  0.76370  0.91510  Biso   1.000  H
  C7       1.0000 0.41220  0.24440  0.85690  Biso   1.000  C
  C8       1.0000 0.58780  0.75560  0.14310  Biso   1.000  C
  C9       1.0000 0.57360  0.25770  0.73950  Biso   1.000  C
  C10      1.0000 0.42640  0.74230  0.26050  Biso   1.000  C
  N1       1.0000 0.11080  0.23720  0.92790  Biso   1.000  N
  N2       1.0000 0.88920  0.76280  0.07210  Biso   1.000  N
  H3       1.0000 0.98420  0.23620  0.92450  Biso   1.000  H
  H4       1.0000 0.01580  0.76380  0.07550  Biso   1.000  H
  N3       1.0000 0.22650  0.24170  0.80240  Biso   1.000  N
  N4       1.0000 0.77350  0.75830  0.19760  Biso   1.000  N
  O1       1.0000 0.94850  0.23560  0.23190  Biso   1.000  O
  O2       1.0000 0.05150  0.76440  0.76810  Biso   1.000  O
  O3       1.0000 0.23990  0.19950  0.32150  Biso   1.000  O
  O4       1.0000 0.76010  0.80050  0.67850  Biso   1.000  O
  O5       1.0000 0.74840  0.25690  0.77850  Biso   1.000  O
  O6       1.0000 0.25160  0.74310  0.22150  Biso   1.000  O
  O7       1.0000 0.51600  0.26740  0.60010  Biso   1.000  O
  O8       1.0000 0.48400  0.73260  0.39990  Biso   1.000  O
  O9       1.0000 0.12340  0.89440  0.49930  Biso   1.000  O
  O10      1.0000 0.87660  0.10560  0.50070  Biso   1.000  O
  O11      1.0000 0.24150  0.51060  0.59860  Biso   1.000  O
  O12      1.0000 0.75850  0.48940  0.40140  Biso   1.000  O
  H5       1.0000 0.17500  0.84000  0.42000  Biso   1.000  H
  H6       1.0000 0.82500  0.16000  0.58000  Biso   1.000  H
  H7       1.0000 0.17400  0.57200  0.65700  Biso   1.000  H
  H8       1.0000 0.82600  0.42800  0.34300  Biso   1.000  H
  H9       1.0000 0.30900  0.57600  0.53600  Biso   1.000  H
  H10      1.0000 0.69100  0.42400  0.46400  Biso   1.000  H
  H11      1.0000 0.14200  0.85900  0.58300  Biso   1.000  H
  H12      1.0000 0.85800  0.14100  0.41700  Biso   1.000  H
