data_image0
_cell_length_a       9.08
_cell_length_b       8.942
_cell_length_c       20.653
_cell_angle_alpha    90
_cell_angle_beta     103.54
_cell_angle_gamma    90

_symmetry_space_group_name_H-M    "P 1"
_symmetry_int_tables_number       1

loop_
  _symmetry_equiv_pos_as_xyz
  'x, y, z'

loop_
  _atom_site_label
  _atom_site_occupancy
  _atom_site_fract_x
  _atom_site_fract_y
  _atom_site_fract_z
  _atom_site_thermal_displace_type
  _atom_site_B_iso_or_equiv
  _atom_site_type_symbol
  Cu1      1.0000 0.16780  0.00390  0.20247  Biso   1.000  Cu
  Cu2      1.0000 0.16780  0.49610  0.70247  Biso   1.000  Cu
  Cu3      1.0000 0.83220  0.99610  0.79753  Biso   1.000  Cu
  Cu4      1.0000 0.83220  0.50390  0.29753  Biso   1.000  Cu
  N1       1.0000 0.84840  0.30220  0.26153  Biso   1.000  N
  N2       1.0000 0.84840  0.19780  0.76153  Biso   1.000  N
  N3       1.0000 0.15160  0.69780  0.73847  Biso   1.000  N
  N4       1.0000 0.15160  0.80220  0.23847  Biso   1.000  N
  C1       1.0000 0.84940  0.20200  0.22715  Biso   1.000  C
  C2       1.0000 0.84940  0.29800  0.72715  Biso   1.000  C
  C3       1.0000 0.15060  0.79800  0.77285  Biso   1.000  C
  C4       1.0000 0.15060  0.70200  0.27285  Biso   1.000  C
  S1       1.0000 0.85173  0.05800  0.17841  Biso   1.000  S
  S2       1.0000 0.85173  0.44200  0.67841  Biso   1.000  S
  S3       1.0000 0.14827  0.94200  0.82159  Biso   1.000  S
  S4       1.0000 0.14827  0.55800  0.32159  Biso   1.000  S
  N5       1.0000 0.20400  0.08740  0.29174  Biso   1.000  N
  N6       1.0000 0.20400  0.41260  0.79174  Biso   1.000  N
  N7       1.0000 0.79600  0.91260  0.70826  Biso   1.000  N
  N8       1.0000 0.79600  0.58740  0.20826  Biso   1.000  N
  C5       1.0000 0.24520  0.08470  0.34845  Biso   1.000  C
  C6       1.0000 0.24520  0.41530  0.84845  Biso   1.000  C
  C7       1.0000 0.75480  0.91530  0.65155  Biso   1.000  C
  C8       1.0000 0.75480  0.58470  0.15155  Biso   1.000  C
  S5       1.0000 0.30371  0.08364  0.42881  Biso   1.000  S
  S6       1.0000 0.30371  0.41636  0.92881  Biso   1.000  S
  S7       1.0000 0.69629  0.91636  0.57119  Biso   1.000  S
  S8       1.0000 0.69629  0.58364  0.07119  Biso   1.000  S
  N9       1.0000 0.22260  0.19750  0.16257  Biso   1.000  N
  N10      1.0000 0.22260  0.30250  0.66257  Biso   1.000  N
  N11      1.0000 0.77740  0.80250  0.83743  Biso   1.000  N
  N12      1.0000 0.77740  0.69750  0.33743  Biso   1.000  N
  C9       1.0000 0.16210  0.33060  0.17005  Biso   1.000  C
  C10      1.0000 0.16210  0.16940  0.67005  Biso   1.000  C
  C11      1.0000 0.83790  0.66940  0.82995  Biso   1.000  C
  C12      1.0000 0.83790  0.83060  0.32995  Biso   1.000  C
  H1       1.0000 0.08780  0.33680  0.19420  Biso   1.000  H
  H2       1.0000 0.08780  0.16320  0.69420  Biso   1.000  H
  H3       1.0000 0.91220  0.66320  0.80580  Biso   1.000  H
  H4       1.0000 0.91220  0.83680  0.30580  Biso   1.000  H
  C13      1.0000 0.20660  0.45930  0.14294  Biso   1.000  C
  C14      1.0000 0.20660  0.04070  0.64294  Biso   1.000  C
  C15      1.0000 0.79340  0.54070  0.85706  Biso   1.000  C
  C16      1.0000 0.79340  0.95930  0.35706  Biso   1.000  C
  H5       1.0000 0.16200  0.55070  0.14830  Biso   1.000  H
  H6       1.0000 0.16200  0.94930  0.64830  Biso   1.000  H
  H7       1.0000 0.83800  0.44930  0.85170  Biso   1.000  H
  H8       1.0000 0.83800  0.05070  0.35170  Biso   1.000  H
  C17      1.0000 0.31760  0.45070  0.10788  Biso   1.000  C
  C18      1.0000 0.31760  0.04930  0.60788  Biso   1.000  C
  C19      1.0000 0.68240  0.54930  0.89212  Biso   1.000  C
  C20      1.0000 0.68240  0.95070  0.39212  Biso   1.000  C
  H9       1.0000 0.34970  0.53630  0.08960  Biso   1.000  H
  H10      1.0000 0.34970  0.96370  0.58960  Biso   1.000  H
  H11      1.0000 0.65030  0.46370  0.91040  Biso   1.000  H
  H12      1.0000 0.65030  0.03630  0.41040  Biso   1.000  H
  C21      1.0000 0.38060  0.31390  0.10016  Biso   1.000  C
  C22      1.0000 0.38060  0.18610  0.60016  Biso   1.000  C
  C23      1.0000 0.61940  0.68610  0.89984  Biso   1.000  C
  C24      1.0000 0.61940  0.81390  0.39984  Biso   1.000  C
  H13      1.0000 0.45560  0.30570  0.07640  Biso   1.000  H
  H14      1.0000 0.45560  0.19430  0.57640  Biso   1.000  H
  H15      1.0000 0.54440  0.69430  0.92360  Biso   1.000  H
  H16      1.0000 0.54440  0.80570  0.42360  Biso   1.000  H
  C25      1.0000 0.33100  0.18900  0.12816  Biso   1.000  C
  C26      1.0000 0.33100  0.31100  0.62816  Biso   1.000  C
  C27      1.0000 0.66900  0.81100  0.87184  Biso   1.000  C
  C28      1.0000 0.66900  0.68900  0.37184  Biso   1.000  C
  C29      1.0000 0.39130  0.03200  0.12157  Biso   1.000  C
  C30      1.0000 0.39130  0.46800  0.62157  Biso   1.000  C
  C31      1.0000 0.60870  0.96800  0.87843  Biso   1.000  C
  C32      1.0000 0.60870  0.53200  0.37843  Biso   1.000  C
  O1       1.0000 0.43280  0.97950  0.18792  Biso   1.000  O
  O2       1.0000 0.43280  0.52050  0.68792  Biso   1.000  O
  O3       1.0000 0.56720  0.02050  0.81208  Biso   1.000  O
  O4       1.0000 0.56720  0.47950  0.31208  Biso   1.000  O
  C33      1.0000 0.49370  0.82920  0.19540  Biso   1.000  C
  C34      1.0000 0.49370  0.67080  0.69540  Biso   1.000  C
  C35      1.0000 0.50630  0.17080  0.80460  Biso   1.000  C
  C36      1.0000 0.50630  0.32920  0.30460  Biso   1.000  C
  H17      1.0000 0.42100  0.76120  0.16980  Biso   1.000  H
  H18      1.0000 0.42100  0.73880  0.66980  Biso   1.000  H
  H19      1.0000 0.57900  0.23880  0.83020  Biso   1.000  H
  H20      1.0000 0.57900  0.26120  0.33020  Biso   1.000  H
  H21      1.0000 0.51520  0.80100  0.24150  Biso   1.000  H
  H22      1.0000 0.51520  0.69900  0.74150  Biso   1.000  H
  H23      1.0000 0.48480  0.19900  0.75850  Biso   1.000  H
  H24      1.0000 0.48480  0.30100  0.25850  Biso   1.000  H
  H25      1.0000 0.58530  0.82580  0.17980  Biso   1.000  H
  H26      1.0000 0.58530  0.67420  0.67980  Biso   1.000  H
  H27      1.0000 0.41470  0.17420  0.82020  Biso   1.000  H
  H28      1.0000 0.41470  0.32580  0.32020  Biso   1.000  H
  O5       1.0000 0.50930  0.03070  0.08964  Biso   1.000  O
  O6       1.0000 0.50930  0.46930  0.58964  Biso   1.000  O
  O7       1.0000 0.49070  0.96930  0.91036  Biso   1.000  O
  O8       1.0000 0.49070  0.53070  0.41036  Biso   1.000  O
  H29      1.0000 0.58860  0.05180  0.11640  Biso   1.000  H
  H30      1.0000 0.58860  0.44820  0.61640  Biso   1.000  H
  H31      1.0000 0.41140  0.94820  0.88360  Biso   1.000  H
  H32      1.0000 0.41140  0.55180  0.38360  Biso   1.000  H
  C37      1.0000 0.26300  0.93650  0.08079  Biso   1.000  C
  C38      1.0000 0.26300  0.56350  0.58079  Biso   1.000  C
  C39      1.0000 0.73700  0.06350  0.91921  Biso   1.000  C
  C40      1.0000 0.73700  0.43650  0.41921  Biso   1.000  C
  C41      1.0000 0.26510  0.87550  0.01976  Biso   1.000  C
  C42      1.0000 0.26510  0.62450  0.51976  Biso   1.000  C
  C43      1.0000 0.73490  0.12450  0.98024  Biso   1.000  C
  C44      1.0000 0.73490  0.37550  0.48024  Biso   1.000  C
  H33      1.0000 0.34630  0.89180  0.00030  Biso   1.000  H
  H34      1.0000 0.34630  0.60820  0.50030  Biso   1.000  H
  H35      1.0000 0.65370  0.10820  0.99970  Biso   1.000  H
  H36      1.0000 0.65370  0.39180  0.49970  Biso   1.000  H
  C45      1.0000 0.14250  0.78910  0.98819  Biso   1.000  C
  C46      1.0000 0.14250  0.71090  0.48819  Biso   1.000  C
  C47      1.0000 0.85750  0.21090  0.01181  Biso   1.000  C
  C48      1.0000 0.85750  0.28910  0.51181  Biso   1.000  C
  H37      1.0000 0.14070  0.74570  0.94710  Biso   1.000  H
  H38      1.0000 0.14070  0.75430  0.44710  Biso   1.000  H
  H39      1.0000 0.85930  0.25430  0.05290  Biso   1.000  H
  H40      1.0000 0.85930  0.24570  0.55290  Biso   1.000  H
  C49      1.0000 0.02370  0.76780  0.01789  Biso   1.000  C
  C50      1.0000 0.02370  0.73220  0.51789  Biso   1.000  C
  C51      1.0000 0.97630  0.23220  0.98211  Biso   1.000  C
  C52      1.0000 0.97630  0.26780  0.48211  Biso   1.000  C
  H41      1.0000 0.94040  0.71080  0.99700  Biso   1.000  H
  H42      1.0000 0.94040  0.78920  0.49700  Biso   1.000  H
  H43      1.0000 0.05960  0.28920  0.00300  Biso   1.000  H
  H44      1.0000 0.05960  0.21080  0.50300  Biso   1.000  H
  C53      1.0000 0.02970  0.83210  0.07887  Biso   1.000  C
  C54      1.0000 0.02970  0.66790  0.57887  Biso   1.000  C
  C55      1.0000 0.97030  0.16790  0.92113  Biso   1.000  C
  C56      1.0000 0.97030  0.33210  0.42113  Biso   1.000  C
  H45      1.0000 0.94950  0.81690  0.09910  Biso   1.000  H
  H46      1.0000 0.94950  0.68310  0.59910  Biso   1.000  H
  H47      1.0000 0.05050  0.18310  0.90090  Biso   1.000  H
  H48      1.0000 0.05050  0.31690  0.40090  Biso   1.000  H
  N13      1.0000 0.14680  0.91560  0.11010  Biso   1.000  N
  N14      1.0000 0.14680  0.58440  0.61010  Biso   1.000  N
  N15      1.0000 0.85320  0.08440  0.88990  Biso   1.000  N
  N16      1.0000 0.85320  0.41560  0.38990  Biso   1.000  N
