data_image0
_cell_length_a       9.62
_cell_length_b       10.045
_cell_length_c       9.699
_cell_angle_alpha    90
_cell_angle_beta     102.87
_cell_angle_gamma    90

_symmetry_space_group_name_H-M    "P 1"
_symmetry_int_tables_number       1

loop_
  _symmetry_equiv_pos_as_xyz
  'x, y, z'

loop_
  _atom_site_label
  _atom_site_occupancy
  _atom_site_fract_x
  _atom_site_fract_y
  _atom_site_fract_z
  _atom_site_thermal_displace_type
  _atom_site_B_iso_or_equiv
  _atom_site_type_symbol
  Cu1      1.0000 0.09686  0.02320  0.69487  Biso   1.000  Cu
  Cu2      1.0000 0.90314  0.52320  0.30513  Biso   1.000  Cu
  N1       1.0000 0.98210  0.10630  0.83430  Biso   1.000  N
  N2       1.0000 0.01790  0.60630  0.16570  Biso   1.000  N
  N3       1.0000 0.84810  0.17310  0.97910  Biso   1.000  N
  N4       1.0000 0.15190  0.67310  0.02090  Biso   1.000  N
  H1       1.0000 0.78180  0.21900  0.01180  Biso   1.000  H
  H2       1.0000 0.21820  0.71900  0.98820  Biso   1.000  H
  N5       1.0000 0.19430  0.92800  0.87070  Biso   1.000  N
  N6       1.0000 0.80570  0.42800  0.12930  Biso   1.000  N
  N7       1.0000 0.28290  0.01950  0.62610  Biso   1.000  N
  N8       1.0000 0.71710  0.51950  0.37390  Biso   1.000  N
  N9       1.0000 0.05860  0.18900  0.54800  Biso   1.000  N
  N10      1.0000 0.94140  0.68900  0.45200  Biso   1.000  N
  N11      1.0000 0.00660  0.36250  0.41260  Biso   1.000  N
  N12      1.0000 0.99340  0.86250  0.58740  Biso   1.000  N
  C1       1.0000 0.87610  0.18050  0.84560  Biso   1.000  C
  C2       1.0000 0.12390  0.68050  0.15440  Biso   1.000  C
  H3       1.0000 0.82290  0.23480  0.77070  Biso   1.000  H
  H4       1.0000 0.17710  0.73480  0.22930  Biso   1.000  H
  C3       1.0000 0.94640  0.07620  0.05490  Biso   1.000  C
  C4       1.0000 0.05360  0.57620  0.94510  Biso   1.000  C
  C5       1.0000 0.94700  0.04200  0.20030  Biso   1.000  C
  C6       1.0000 0.05300  0.54200  0.79970  Biso   1.000  C
  H5       1.0000 0.01900  0.97590  0.23410  Biso   1.000  H
  H6       1.0000 0.98100  0.47590  0.76590  Biso   1.000  H
  H7       1.0000 0.96710  0.12040  0.25750  Biso   1.000  H
  H8       1.0000 0.03290  0.62040  0.74250  Biso   1.000  H
  H9       1.0000 0.85540  0.00720  0.20590  Biso   1.000  H
  H10      1.0000 0.14460  0.50720  0.79410  Biso   1.000  H
  C7       1.0000 0.02620  0.03100  0.96480  Biso   1.000  C
  C8       1.0000 0.97380  0.53100  0.03520  Biso   1.000  C
  C9       1.0000 0.14120  0.95550  0.97620  Biso   1.000  C
  C10      1.0000 0.85880  0.45550  0.02380  Biso   1.000  C
  H11      1.0000 0.18620  0.91930  0.06670  Biso   1.000  H
  H12      1.0000 0.81380  0.41930  0.93330  Biso   1.000  H
  C11      1.0000 0.31000  0.84000  0.87400  Biso   1.000  C
  C12      1.0000 0.69000  0.34000  0.12600  Biso   1.000  C
  H13      1.0000 0.27810  0.76730  0.81040  Biso   1.000  H
  H14      1.0000 0.72190  0.26730  0.18960  Biso   1.000  H
  H15      1.0000 0.34950  0.80800  0.96760  Biso   1.000  H
  H16      1.0000 0.65050  0.30800  0.03240  Biso   1.000  H
  C13      1.0000 0.43060  0.90490  0.82140  Biso   1.000  C
  C14      1.0000 0.56940  0.40490  0.17860  Biso   1.000  C
  H17      1.0000 0.51760  0.85500  0.83250  Biso   1.000  H
  H18      1.0000 0.48240  0.35500  0.16750  Biso   1.000  H
  C15      1.0000 0.39800  0.93180  0.66590  Biso   1.000  C
  C16      1.0000 0.60200  0.43180  0.33410  Biso   1.000  C
  H19      1.0000 0.48010  0.96930  0.63940  Biso   1.000  H
  H20      1.0000 0.51990  0.46930  0.36060  Biso   1.000  H
  H21      1.0000 0.37560  0.84960  0.61540  Biso   1.000  H
  H22      1.0000 0.62440  0.34960  0.38460  Biso   1.000  H
  C17      1.0000 0.29110  0.12370  0.54540  Biso   1.000  C
  C18      1.0000 0.70890  0.62370  0.45460  Biso   1.000  C
  H23      1.0000 0.37810  0.13920  0.51500  Biso   1.000  H
  H24      1.0000 0.62190  0.63920  0.48500  Biso   1.000  H
  C19      1.0000 0.17290  0.21450  0.50250  Biso   1.000  C
  C20      1.0000 0.82710  0.71450  0.49750  Biso   1.000  C
  C21      1.0000 0.14760  0.32530  0.41200  Biso   1.000  C
  C22      1.0000 0.85240  0.82530  0.58800  Biso   1.000  C
  C23      1.0000 0.24600  0.39000  0.33300  Biso   1.000  C
  C24      1.0000 0.75400  0.89000  0.66700  Biso   1.000  C
  H25      1.0000 0.33460  0.34270  0.35190  Biso   1.000  H
  H26      1.0000 0.66540  0.84270  0.64810  Biso   1.000  H
  H27      1.0000 0.20420  0.38780  0.23340  Biso   1.000  H
  H28      1.0000 0.79580  0.88780  0.76660  Biso   1.000  H
  H29      1.0000 0.26170  0.48050  0.36370  Biso   1.000  H
  H30      1.0000 0.73830  0.98050  0.63630  Biso   1.000  H
  C25      1.0000 0.96900  0.28200  0.49900  Biso   1.000  C
  C26      1.0000 0.03100  0.78200  0.50100  Biso   1.000  C
  H31      1.0000 0.87830  0.29080  0.52450  Biso   1.000  H
  H32      1.0000 0.12170  0.79080  0.47550  Biso   1.000  H
  O1       1.0000 0.47770  0.02500  0.89530  Biso   1.000  O
  O2       1.0000 0.52230  0.52500  0.10470  Biso   1.000  O
  H33      1.0000 0.53060  0.06900  0.85220  Biso   1.000  H
  H34      1.0000 0.46940  0.56900  0.14780  Biso   1.000  H
  O3       1.0000 0.32900  0.25100  0.87800  Biso   1.000  O
  O4       1.0000 0.67100  0.75100  0.12200  Biso   1.000  O
  H35      1.0000 0.34330  0.16260  0.87240  Biso   1.000  H
  H36      1.0000 0.65670  0.66260  0.12760  Biso   1.000  H
  H37      1.0000 0.40730  0.27440  0.79540  Biso   1.000  H
  H38      1.0000 0.59270  0.77440  0.20460  Biso   1.000  H
  Cl1      1.0000 0.49780  0.51820  0.71650  Biso   1.000  Cl
  Cl2      1.0000 0.50220  0.01820  0.28350  Biso   1.000  Cl
  O5       1.0000 0.41480  0.50600  0.81810  Biso   1.000  O
  O6       1.0000 0.58520  0.00600  0.18190  Biso   1.000  O
  O7       1.0000 0.51900  0.65240  0.69300  Biso   1.000  O
  O8       1.0000 0.48100  0.15240  0.30700  Biso   1.000  O
  O9       1.0000 0.62830  0.45010  0.76100  Biso   1.000  O
  O10      1.0000 0.37170  0.95010  0.23900  Biso   1.000  O
  O11      1.0000 0.42400  0.45400  0.59170  Biso   1.000  O
  O12      1.0000 0.57600  0.95400  0.40830  Biso   1.000  O
