data_image0
_cell_length_a       12.056
_cell_length_b       10.058
_cell_length_c       15.141
_cell_angle_alpha    90
_cell_angle_beta     90.58
_cell_angle_gamma    90

_symmetry_space_group_name_H-M    "P 1"
_symmetry_int_tables_number       1

loop_
  _symmetry_equiv_pos_as_xyz
  'x, y, z'

loop_
  _atom_site_label
  _atom_site_occupancy
  _atom_site_fract_x
  _atom_site_fract_y
  _atom_site_fract_z
  _atom_site_thermal_displace_type
  _atom_site_B_iso_or_equiv
  _atom_site_type_symbol
  Cu1      1.0000 0.89600  0.23763  0.20103  Biso   1.000  Cu
  Cu2      1.0000 0.39600  0.26237  0.70103  Biso   1.000  Cu
  Cu3      1.0000 0.10400  0.76237  0.79897  Biso   1.000  Cu
  Cu4      1.0000 0.60400  0.73763  0.29897  Biso   1.000  Cu
  N1       1.0000 0.90670  0.17150  0.07357  Biso   1.000  N
  N2       1.0000 0.40670  0.32850  0.57357  Biso   1.000  N
  N3       1.0000 0.09330  0.82850  0.92643  Biso   1.000  N
  N4       1.0000 0.59330  0.67150  0.42643  Biso   1.000  N
  N5       1.0000 0.91380  0.10390  0.93562  Biso   1.000  N
  N6       1.0000 0.41380  0.39610  0.43562  Biso   1.000  N
  N7       1.0000 0.08620  0.89610  0.06438  Biso   1.000  N
  N8       1.0000 0.58620  0.60390  0.56438  Biso   1.000  N
  H1       1.0000 0.89590  0.05930  0.88590  Biso   1.000  H
  H2       1.0000 0.39590  0.44070  0.38590  Biso   1.000  H
  H3       1.0000 0.10410  0.94070  0.11410  Biso   1.000  H
  H4       1.0000 0.60410  0.55930  0.61410  Biso   1.000  H
  N9       1.0000 0.03140  0.34210  0.16190  Biso   1.000  N
  N10      1.0000 0.53140  0.15790  0.66190  Biso   1.000  N
  N11      1.0000 0.96860  0.65790  0.83810  Biso   1.000  N
  N12      1.0000 0.46860  0.84210  0.33810  Biso   1.000  N
  N13      1.0000 0.95360  0.24710  0.32721  Biso   1.000  N
  N14      1.0000 0.45360  0.25290  0.82721  Biso   1.000  N
  N15      1.0000 0.04640  0.75290  0.67279  Biso   1.000  N
  N16      1.0000 0.54640  0.74710  0.17279  Biso   1.000  N
  N17      1.0000 0.80530  0.08950  0.25055  Biso   1.000  N
  N18      1.0000 0.30530  0.41050  0.75055  Biso   1.000  N
  N19      1.0000 0.19470  0.91050  0.74945  Biso   1.000  N
  N20      1.0000 0.69470  0.58950  0.24945  Biso   1.000  N
  N21      1.0000 0.71310  0.91040  0.30110  Biso   1.000  N
  N22      1.0000 0.21310  0.58960  0.80110  Biso   1.000  N
  N23      1.0000 0.28690  0.08960  0.69890  Biso   1.000  N
  N24      1.0000 0.78690  0.41040  0.19890  Biso   1.000  N
  C1       1.0000 0.86120  0.09430  0.01360  Biso   1.000  C
  C2       1.0000 0.36120  0.40570  0.51360  Biso   1.000  C
  C3       1.0000 0.13880  0.90570  0.98640  Biso   1.000  C
  C4       1.0000 0.63880  0.59430  0.48640  Biso   1.000  C
  H5       1.0000 0.79820  0.03820  0.02380  Biso   1.000  H
  H6       1.0000 0.29820  0.46180  0.52380  Biso   1.000  H
  H7       1.0000 0.20180  0.96180  0.97620  Biso   1.000  H
  H8       1.0000 0.70180  0.53820  0.47620  Biso   1.000  H
  C5       1.0000 0.99850  0.19230  0.94480  Biso   1.000  C
  C6       1.0000 0.49850  0.30770  0.44480  Biso   1.000  C
  C7       1.0000 0.00150  0.80770  0.05520  Biso   1.000  C
  C8       1.0000 0.50150  0.69230  0.55520  Biso   1.000  C
  C9       1.0000 0.07510  0.22700  0.87230  Biso   1.000  C
  C10      1.0000 0.57510  0.27300  0.37230  Biso   1.000  C
  C11      1.0000 0.92490  0.77300  0.12770  Biso   1.000  C
  C12      1.0000 0.42490  0.72700  0.62770  Biso   1.000  C
  H9       1.0000 0.05430  0.17900  0.81980  Biso   1.000  H
  H10      1.0000 0.55430  0.32100  0.31980  Biso   1.000  H
  H11      1.0000 0.94570  0.82100  0.18020  Biso   1.000  H
  H12      1.0000 0.44570  0.67900  0.68020  Biso   1.000  H
  H13      1.0000 0.07110  0.32080  0.86090  Biso   1.000  H
  H14      1.0000 0.57110  0.17920  0.36090  Biso   1.000  H
  H15      1.0000 0.92890  0.67920  0.13910  Biso   1.000  H
  H16      1.0000 0.42890  0.82080  0.63910  Biso   1.000  H
  H17      1.0000 0.14960  0.20360  0.88910  Biso   1.000  H
  H18      1.0000 0.64960  0.29640  0.38910  Biso   1.000  H
  H19      1.0000 0.85040  0.79640  0.11090  Biso   1.000  H
  H20      1.0000 0.35040  0.70360  0.61090  Biso   1.000  H
  C13      1.0000 0.99350  0.23330  0.03100  Biso   1.000  C
  C14      1.0000 0.49350  0.26670  0.53100  Biso   1.000  C
  C15      1.0000 0.00650  0.76670  0.96900  Biso   1.000  C
  C16      1.0000 0.50650  0.73330  0.46900  Biso   1.000  C
  C17      1.0000 0.05930  0.32420  0.08260  Biso   1.000  C
  C18      1.0000 0.55930  0.17580  0.58260  Biso   1.000  C
  C19      1.0000 0.94070  0.67580  0.91740  Biso   1.000  C
  C20      1.0000 0.44070  0.82420  0.41740  Biso   1.000  C
  H21      1.0000 0.12180  0.36940  0.05780  Biso   1.000  H
  H22      1.0000 0.62180  0.13060  0.55780  Biso   1.000  H
  H23      1.0000 0.87820  0.63060  0.94220  Biso   1.000  H
  H24      1.0000 0.37820  0.86940  0.44220  Biso   1.000  H
  C21      1.0000 0.09490  0.43280  0.21770  Biso   1.000  C
  C22      1.0000 0.59490  0.06720  0.71770  Biso   1.000  C
  C23      1.0000 0.90510  0.56720  0.78230  Biso   1.000  C
  C24      1.0000 0.40510  0.93280  0.28230  Biso   1.000  C
  H25      1.0000 0.05130  0.51070  0.22900  Biso   1.000  H
  H26      1.0000 0.55130  0.98930  0.72900  Biso   1.000  H
  H27      1.0000 0.94870  0.48930  0.77100  Biso   1.000  H
  H28      1.0000 0.44870  0.01070  0.27100  Biso   1.000  H
  H29      1.0000 0.16030  0.46020  0.18690  Biso   1.000  H
  H30      1.0000 0.66030  0.03980  0.68690  Biso   1.000  H
  H31      1.0000 0.83970  0.53980  0.81310  Biso   1.000  H
  H32      1.0000 0.33970  0.96020  0.31310  Biso   1.000  H
  C25      1.0000 0.12870  0.37030  0.30500  Biso   1.000  C
  C26      1.0000 0.62870  0.12970  0.80500  Biso   1.000  C
  C27      1.0000 0.87130  0.62970  0.69500  Biso   1.000  C
  C28      1.0000 0.37130  0.87030  0.19500  Biso   1.000  C
  H33      1.0000 0.17730  0.43150  0.33490  Biso   1.000  H
  H34      1.0000 0.67730  0.06850  0.83490  Biso   1.000  H
  H35      1.0000 0.82270  0.56850  0.66510  Biso   1.000  H
  H36      1.0000 0.32270  0.93150  0.16510  Biso   1.000  H
  C29      1.0000 0.03200  0.34300  0.36530  Biso   1.000  C
  C30      1.0000 0.53200  0.15700  0.86530  Biso   1.000  C
  C31      1.0000 0.96800  0.65700  0.63470  Biso   1.000  C
  C32      1.0000 0.46800  0.84300  0.13470  Biso   1.000  C
  H37      1.0000 0.05950  0.30920  0.42060  Biso   1.000  H
  H38      1.0000 0.55950  0.19080  0.92060  Biso   1.000  H
  H39      1.0000 0.94050  0.69080  0.57940  Biso   1.000  H
  H40      1.0000 0.44050  0.80920  0.07940  Biso   1.000  H
  H41      1.0000 0.99390  0.42490  0.37680  Biso   1.000  H
  H42      1.0000 0.49390  0.07510  0.87680  Biso   1.000  H
  H43      1.0000 0.00610  0.57510  0.62320  Biso   1.000  H
  H44      1.0000 0.50610  0.92490  0.12320  Biso   1.000  H
  C33      1.0000 0.91770  0.15140  0.37440  Biso   1.000  C
  C34      1.0000 0.41770  0.34860  0.87440  Biso   1.000  C
  C35      1.0000 0.08230  0.84860  0.62560  Biso   1.000  C
  C36      1.0000 0.58230  0.65140  0.12560  Biso   1.000  C
  H45      1.0000 0.94360  0.13960  0.43400  Biso   1.000  H
  H46      1.0000 0.44360  0.36040  0.93400  Biso   1.000  H
  H47      1.0000 0.05640  0.86040  0.56600  Biso   1.000  H
  H48      1.0000 0.55640  0.63960  0.06600  Biso   1.000  H
  C37      1.0000 0.83890  0.06330  0.33660  Biso   1.000  C
  C38      1.0000 0.33890  0.43670  0.83660  Biso   1.000  C
  C39      1.0000 0.16110  0.93670  0.66340  Biso   1.000  C
  C40      1.0000 0.66110  0.56330  0.16340  Biso   1.000  C
  C41      1.0000 0.78260  0.95470  0.36670  Biso   1.000  C
  C42      1.0000 0.28260  0.54530  0.86670  Biso   1.000  C
  C43      1.0000 0.21740  0.04530  0.63330  Biso   1.000  C
  C44      1.0000 0.71740  0.45470  0.13330  Biso   1.000  C
  C45      1.0000 0.79020  0.88970  0.45550  Biso   1.000  C
  C46      1.0000 0.29020  0.61030  0.95550  Biso   1.000  C
  C47      1.0000 0.20980  0.11030  0.54450  Biso   1.000  C
  C48      1.0000 0.70980  0.38970  0.04450  Biso   1.000  C
  H49      1.0000 0.84360  0.93580  0.49160  Biso   1.000  H
  H50      1.0000 0.34360  0.56420  0.99160  Biso   1.000  H
  H51      1.0000 0.15640  0.06420  0.50840  Biso   1.000  H
  H52      1.0000 0.65640  0.43580  0.00840  Biso   1.000  H
  H53      1.0000 0.71900  0.89290  0.48330  Biso   1.000  H
  H54      1.0000 0.21900  0.60710  0.98330  Biso   1.000  H
  H55      1.0000 0.28100  0.10710  0.51670  Biso   1.000  H
  H56      1.0000 0.78100  0.39290  0.01670  Biso   1.000  H
  H57      1.0000 0.81260  0.79870  0.44870  Biso   1.000  H
  H58      1.0000 0.31260  0.70130  0.94870  Biso   1.000  H
  H59      1.0000 0.18740  0.20130  0.55130  Biso   1.000  H
  H60      1.0000 0.68740  0.29870  0.05130  Biso   1.000  H
  C49      1.0000 0.73120  0.99510  0.23380  Biso   1.000  C
  C50      1.0000 0.23120  0.50490  0.73380  Biso   1.000  C
  C51      1.0000 0.26880  0.00490  0.76620  Biso   1.000  C
  C52      1.0000 0.76880  0.49510  0.26620  Biso   1.000  C
  H61      1.0000 0.69340  0.98760  0.17790  Biso   1.000  H
  H62      1.0000 0.19340  0.51240  0.67790  Biso   1.000  H
  H63      1.0000 0.30660  0.01240  0.82210  Biso   1.000  H
  H64      1.0000 0.80660  0.48760  0.32210  Biso   1.000  H
  O1       1.0000 0.18690  0.24820  0.29450  Biso   1.000  O
  O2       1.0000 0.68690  0.25180  0.79450  Biso   1.000  O
  O3       1.0000 0.81310  0.75180  0.70550  Biso   1.000  O
  O4       1.0000 0.31310  0.74820  0.20550  Biso   1.000  O
  H65      1.0000 0.24180  0.26100  0.26070  Biso   1.000  H
  H66      1.0000 0.74180  0.23900  0.76070  Biso   1.000  H
  H67      1.0000 0.75820  0.73900  0.73930  Biso   1.000  H
  H68      1.0000 0.25820  0.76100  0.23930  Biso   1.000  H
  Cl1      1.0000 0.38881  0.23416  0.10854  Biso   1.000  Cl
  Cl2      1.0000 0.88881  0.26584  0.60854  Biso   1.000  Cl
  Cl3      1.0000 0.61119  0.76584  0.89146  Biso   1.000  Cl
  Cl4      1.0000 0.11119  0.73416  0.39146  Biso   1.000  Cl
  O5       1.0000 0.39570  0.37070  0.09330  Biso   1.000  O
  O6       1.0000 0.89570  0.12930  0.59330  Biso   1.000  O
  O7       1.0000 0.60430  0.62930  0.90670  Biso   1.000  O
  O8       1.0000 0.10430  0.87070  0.40670  Biso   1.000  O
  O9       1.0000 0.48820  0.17350  0.08480  Biso   1.000  O
  O10      1.0000 0.98820  0.32650  0.58480  Biso   1.000  O
  O11      1.0000 0.51180  0.82650  0.91520  Biso   1.000  O
  O12      1.0000 0.01180  0.67350  0.41520  Biso   1.000  O
  O13      1.0000 0.30280  0.17600  0.06290  Biso   1.000  O
  O14      1.0000 0.80280  0.32400  0.56290  Biso   1.000  O
  O15      1.0000 0.69720  0.82400  0.93710  Biso   1.000  O
  O16      1.0000 0.19720  0.67600  0.43710  Biso   1.000  O
  O17      1.0000 0.37880  0.21690  0.20110  Biso   1.000  O
  O18      1.0000 0.87880  0.28310  0.70110  Biso   1.000  O
  O19      1.0000 0.62120  0.78310  0.79890  Biso   1.000  O
  O20      1.0000 0.12120  0.71690  0.29890  Biso   1.000  O
  O21      1.0000 0.38850  0.50870  0.27221  Biso   1.000  O
  O22      1.0000 0.88850  0.99130  0.77221  Biso   1.000  O
  O23      1.0000 0.61150  0.49130  0.72779  Biso   1.000  O
  O24      1.0000 0.11150  0.00870  0.22779  Biso   1.000  O
  H69      1.0000 0.37450  0.59560  0.24690  Biso   1.000  H
  H70      1.0000 0.87450  0.90440  0.74690  Biso   1.000  H
  H71      1.0000 0.62550  0.40440  0.75310  Biso   1.000  H
  H72      1.0000 0.12550  0.09560  0.25310  Biso   1.000  H
  H73      1.0000 0.42200  0.47100  0.22160  Biso   1.000  H
  H74      1.0000 0.92200  0.02900  0.72160  Biso   1.000  H
  H75      1.0000 0.57800  0.52900  0.77840  Biso   1.000  H
  H76      1.0000 0.07800  0.97100  0.27840  Biso   1.000  H
