data_image0
_cell_length_a       8.39
_cell_length_b       9.631
_cell_length_c       14.001
_cell_angle_alpha    90
_cell_angle_beta     90
_cell_angle_gamma    90

_symmetry_space_group_name_H-M    "P 1"
_symmetry_int_tables_number       1

loop_
  _symmetry_equiv_pos_as_xyz
  'x, y, z'

loop_
  _atom_site_label
  _atom_site_occupancy
  _atom_site_fract_x
  _atom_site_fract_y
  _atom_site_fract_z
  _atom_site_thermal_displace_type
  _atom_site_B_iso_or_equiv
  _atom_site_type_symbol
  Cu1      1.0000 0.00000  0.50000  0.50000  Biso   1.000  Cu
  Cu2      1.0000 0.50000  0.00000  0.00000  Biso   1.000  Cu
  S1       1.0000 0.36219  0.62909  0.64548  Biso   1.000  S
  S2       1.0000 0.86219  0.87091  0.14548  Biso   1.000  S
  S3       1.0000 0.63781  0.37091  0.35452  Biso   1.000  S
  S4       1.0000 0.13781  0.12909  0.85452  Biso   1.000  S
  O1       1.0000 0.28775  0.68925  0.73037  Biso   1.000  O
  O2       1.0000 0.78775  0.81075  0.23037  Biso   1.000  O
  O3       1.0000 0.71225  0.31075  0.26963  Biso   1.000  O
  O4       1.0000 0.21225  0.18925  0.76963  Biso   1.000  O
  O5       1.0000 0.25253  0.55024  0.58767  Biso   1.000  O
  O6       1.0000 0.75253  0.94976  0.08767  Biso   1.000  O
  O7       1.0000 0.74747  0.44976  0.41233  Biso   1.000  O
  O8       1.0000 0.24747  0.05024  0.91233  Biso   1.000  O
  O9       1.0000 0.50578  0.55107  0.66579  Biso   1.000  O
  O10      1.0000 0.00578  0.94893  0.16579  Biso   1.000  O
  O11      1.0000 0.49422  0.44893  0.33421  Biso   1.000  O
  O12      1.0000 0.99422  0.05107  0.83421  Biso   1.000  O
  N1       1.0000 0.13601  0.41496  0.39544  Biso   1.000  N
  N2       1.0000 0.63601  0.08504  0.89544  Biso   1.000  N
  N3       1.0000 0.86399  0.58504  0.60456  Biso   1.000  N
  N4       1.0000 0.36399  0.91496  0.10456  Biso   1.000  N
  H1       1.0000 0.23860  0.41220  0.41400  Biso   1.000  H
  H2       1.0000 0.73860  0.08780  0.91400  Biso   1.000  H
  H3       1.0000 0.76140  0.58780  0.58600  Biso   1.000  H
  H4       1.0000 0.26140  0.91220  0.08600  Biso   1.000  H
  H5       1.0000 0.10360  0.32760  0.38360  Biso   1.000  H
  H6       1.0000 0.60360  0.17240  0.88360  Biso   1.000  H
  H7       1.0000 0.89640  0.67240  0.61640  Biso   1.000  H
  H8       1.0000 0.39640  0.82760  0.11640  Biso   1.000  H
  N5       1.0000 0.99962  0.32737  0.58785  Biso   1.000  N
  N6       1.0000 0.49962  0.17263  0.08785  Biso   1.000  N
  N7       1.0000 0.00038  0.67263  0.41215  Biso   1.000  N
  N8       1.0000 0.50038  0.82737  0.91215  Biso   1.000  N
  H9       1.0000 0.09390  0.33060  0.61990  Biso   1.000  H
  H10      1.0000 0.59390  0.16940  0.11990  Biso   1.000  H
  H11      1.0000 0.90610  0.66940  0.38010  Biso   1.000  H
  H12      1.0000 0.40610  0.83060  0.88010  Biso   1.000  H
  C1       1.0000 0.99030  0.18560  0.54788  Biso   1.000  C
  C2       1.0000 0.49030  0.31440  0.04788  Biso   1.000  C
  C3       1.0000 0.00970  0.81440  0.45212  Biso   1.000  C
  C4       1.0000 0.50970  0.68560  0.95212  Biso   1.000  C
  H13      1.0000 0.99210  0.11910  0.59900  Biso   1.000  H
  H14      1.0000 0.49210  0.38090  0.09900  Biso   1.000  H
  H15      1.0000 0.00790  0.88090  0.40100  Biso   1.000  H
  H16      1.0000 0.50790  0.61910  0.90100  Biso   1.000  H
  H17      1.0000 0.07950  0.16990  0.50640  Biso   1.000  H
  H18      1.0000 0.57950  0.33010  0.00640  Biso   1.000  H
  H19      1.0000 0.92050  0.83010  0.49360  Biso   1.000  H
  H20      1.0000 0.42050  0.66990  0.99360  Biso   1.000  H
  H21      1.0000 0.89310  0.17570  0.51240  Biso   1.000  H
  H22      1.0000 0.39310  0.32430  0.01240  Biso   1.000  H
  H23      1.0000 0.10690  0.82430  0.48760  Biso   1.000  H
  H24      1.0000 0.60690  0.67570  0.98760  Biso   1.000  H
  C5       1.0000 0.87420  0.35050  0.66206  Biso   1.000  C
  C6       1.0000 0.37420  0.14950  0.16206  Biso   1.000  C
  C7       1.0000 0.12580  0.64950  0.33794  Biso   1.000  C
  C8       1.0000 0.62580  0.85050  0.83794  Biso   1.000  C
  H25      1.0000 0.89380  0.29130  0.71690  Biso   1.000  H
  H26      1.0000 0.39380  0.20870  0.21690  Biso   1.000  H
  H27      1.0000 0.10620  0.70870  0.28310  Biso   1.000  H
  H28      1.0000 0.60620  0.79130  0.78310  Biso   1.000  H
  H29      1.0000 0.77000  0.32800  0.63630  Biso   1.000  H
  H30      1.0000 0.27000  0.17200  0.13630  Biso   1.000  H
  H31      1.0000 0.23000  0.67200  0.36370  Biso   1.000  H
  H32      1.0000 0.73000  0.82800  0.86370  Biso   1.000  H
  C9       1.0000 0.12030  0.50000  0.30870  Biso   1.000  C
  C10      1.0000 0.62030  0.00000  0.80870  Biso   1.000  C
  C11      1.0000 0.87970  0.50000  0.69130  Biso   1.000  C
  C12      1.0000 0.37970  0.00000  0.19130  Biso   1.000  C
  H33      1.0000 0.02010  0.47990  0.27700  Biso   1.000  H
  H34      1.0000 0.52010  0.02010  0.77700  Biso   1.000  H
  H35      1.0000 0.97990  0.52010  0.72300  Biso   1.000  H
  H36      1.0000 0.47990  0.97990  0.22300  Biso   1.000  H
  H37      1.0000 0.20660  0.47970  0.26480  Biso   1.000  H
  H38      1.0000 0.70660  0.02030  0.76480  Biso   1.000  H
  H39      1.0000 0.79340  0.52030  0.73520  Biso   1.000  H
  H40      1.0000 0.29340  0.97970  0.23520  Biso   1.000  H
  C13      1.0000 0.56840  0.84373  0.43158  Biso   1.000  C
  C14      1.0000 0.06840  0.65627  0.93158  Biso   1.000  C
  C15      1.0000 0.43160  0.15627  0.56842  Biso   1.000  C
  C16      1.0000 0.93160  0.34373  0.06842  Biso   1.000  C
  H41      1.0000 0.62380  0.82280  0.37590  Biso   1.000  H
  H42      1.0000 0.12380  0.67720  0.87590  Biso   1.000  H
  H43      1.0000 0.37620  0.17720  0.62410  Biso   1.000  H
  H44      1.0000 0.87620  0.32280  0.12410  Biso   1.000  H
  C17      1.0000 0.51238  0.73790  0.48772  Biso   1.000  C
  C18      1.0000 0.01238  0.76210  0.98772  Biso   1.000  C
  C19      1.0000 0.48762  0.26210  0.51228  Biso   1.000  C
  C20      1.0000 0.98762  0.23790  0.01228  Biso   1.000  C
  H45      1.0000 0.52910  0.64600  0.47010  Biso   1.000  H
  H46      1.0000 0.02910  0.85400  0.97010  Biso   1.000  H
  H47      1.0000 0.47090  0.35400  0.52990  Biso   1.000  H
  H48      1.0000 0.97090  0.14600  0.02990  Biso   1.000  H
  C21      1.0000 0.42809  0.76990  0.57358  Biso   1.000  C
  C22      1.0000 0.92809  0.73010  0.07358  Biso   1.000  C
  C23      1.0000 0.57191  0.23010  0.42642  Biso   1.000  C
  C24      1.0000 0.07191  0.26990  0.92642  Biso   1.000  C
  C25      1.0000 0.39938  0.90370  0.60027  Biso   1.000  C
  C26      1.0000 0.89938  0.59630  0.10027  Biso   1.000  C
  C27      1.0000 0.60062  0.09630  0.39973  Biso   1.000  C
  C28      1.0000 0.10062  0.40370  0.89973  Biso   1.000  C
  H49      1.0000 0.34230  0.92200  0.65580  Biso   1.000  H
  H50      1.0000 0.84230  0.57800  0.15580  Biso   1.000  H
  H51      1.0000 0.65770  0.07800  0.34420  Biso   1.000  H
  H52      1.0000 0.15770  0.42200  0.84420  Biso   1.000  H
  C29      1.0000 0.54330  0.98418  0.45681  Biso   1.000  C
  C30      1.0000 0.04330  0.51582  0.95681  Biso   1.000  C
  C31      1.0000 0.45670  0.01582  0.54319  Biso   1.000  C
  C32      1.0000 0.95670  0.48418  0.04319  Biso   1.000  C
  O13      1.0000 0.50666  0.33518  0.80297  Biso   1.000  O
  O14      1.0000 0.00666  0.16482  0.30297  Biso   1.000  O
  O15      1.0000 0.49334  0.66482  0.19703  Biso   1.000  O
  O16      1.0000 0.99334  0.83518  0.69703  Biso   1.000  O
  H53      1.0000 0.51110  0.40150  0.76050  Biso   1.000  H
  H54      1.0000 0.01110  0.09850  0.26050  Biso   1.000  H
  H55      1.0000 0.48890  0.59850  0.23950  Biso   1.000  H
  H56      1.0000 0.98890  0.90150  0.73950  Biso   1.000  H
  H57      1.0000 0.41620  0.28740  0.79170  Biso   1.000  H
  H58      1.0000 0.91620  0.21260  0.29170  Biso   1.000  H
  H59      1.0000 0.58380  0.71260  0.20830  Biso   1.000  H
  H60      1.0000 0.08380  0.78740  0.70830  Biso   1.000  H
