data_image0
_cell_length_a       23.486
_cell_length_b       7.9921
_cell_length_c       12.3656
_cell_angle_alpha    90
_cell_angle_beta     106.839
_cell_angle_gamma    90

_symmetry_space_group_name_H-M    "P 1"
_symmetry_int_tables_number       1

loop_
  _symmetry_equiv_pos_as_xyz
  'x, y, z'

loop_
  _atom_site_label
  _atom_site_occupancy
  _atom_site_fract_x
  _atom_site_fract_y
  _atom_site_fract_z
  _atom_site_thermal_displace_type
  _atom_site_B_iso_or_equiv
  _atom_site_type_symbol
  Cu1      1.0000 0.25000  0.25000  0.00000  Biso   1.000  Cu
  Cu2      1.0000 0.75000  0.75000  0.00000  Biso   1.000  Cu
  Cu3      1.0000 0.25000  0.75000  0.50000  Biso   1.000  Cu
  Cu4      1.0000 0.75000  0.25000  0.50000  Biso   1.000  Cu
  N1       1.0000 0.17285  0.23260  0.87791  Biso   1.000  N
  N2       1.0000 0.67285  0.73260  0.87791  Biso   1.000  N
  N3       1.0000 0.17285  0.76740  0.37791  Biso   1.000  N
  N4       1.0000 0.67285  0.26740  0.37791  Biso   1.000  N
  N5       1.0000 0.82715  0.76740  0.12209  Biso   1.000  N
  N6       1.0000 0.32715  0.26740  0.12209  Biso   1.000  N
  N7       1.0000 0.82715  0.23260  0.62209  Biso   1.000  N
  N8       1.0000 0.32715  0.73260  0.62209  Biso   1.000  N
  H1       1.0000 0.15600  0.33430  0.86290  Biso   1.000  H
  H2       1.0000 0.65600  0.83430  0.86290  Biso   1.000  H
  H3       1.0000 0.15600  0.66570  0.36290  Biso   1.000  H
  H4       1.0000 0.65600  0.16570  0.36290  Biso   1.000  H
  H5       1.0000 0.84400  0.66570  0.13710  Biso   1.000  H
  H6       1.0000 0.34400  0.16570  0.13710  Biso   1.000  H
  H7       1.0000 0.84400  0.33430  0.63710  Biso   1.000  H
  H8       1.0000 0.34400  0.83430  0.63710  Biso   1.000  H
  H9       1.0000 0.17920  0.19270  0.81430  Biso   1.000  H
  H10      1.0000 0.67920  0.69270  0.81430  Biso   1.000  H
  H11      1.0000 0.17920  0.80730  0.31430  Biso   1.000  H
  H12      1.0000 0.67920  0.30730  0.31430  Biso   1.000  H
  H13      1.0000 0.82080  0.80730  0.18570  Biso   1.000  H
  H14      1.0000 0.32080  0.30730  0.18570  Biso   1.000  H
  H15      1.0000 0.82080  0.19270  0.68570  Biso   1.000  H
  H16      1.0000 0.32080  0.69270  0.68570  Biso   1.000  H
  N9       1.0000 0.20437  0.15900  0.10221  Biso   1.000  N
  N10      1.0000 0.70437  0.65900  0.10221  Biso   1.000  N
  N11      1.0000 0.20437  0.84100  0.60221  Biso   1.000  N
  N12      1.0000 0.70437  0.34100  0.60221  Biso   1.000  N
  N13      1.0000 0.79563  0.84100  0.89779  Biso   1.000  N
  N14      1.0000 0.29563  0.34100  0.89779  Biso   1.000  N
  N15      1.0000 0.79563  0.15900  0.39779  Biso   1.000  N
  N16      1.0000 0.29563  0.65900  0.39779  Biso   1.000  N
  H17      1.0000 0.21790  0.05660  0.12700  Biso   1.000  H
  H18      1.0000 0.71790  0.55660  0.12700  Biso   1.000  H
  H19      1.0000 0.21790  0.94340  0.62700  Biso   1.000  H
  H20      1.0000 0.71790  0.44340  0.62700  Biso   1.000  H
  H21      1.0000 0.78210  0.94340  0.87300  Biso   1.000  H
  H22      1.0000 0.28210  0.44340  0.87300  Biso   1.000  H
  H23      1.0000 0.78210  0.05660  0.37300  Biso   1.000  H
  H24      1.0000 0.28210  0.55660  0.37300  Biso   1.000  H
  H25      1.0000 0.20910  0.22650  0.16250  Biso   1.000  H
  H26      1.0000 0.70910  0.72650  0.16250  Biso   1.000  H
  H27      1.0000 0.20910  0.77350  0.66250  Biso   1.000  H
  H28      1.0000 0.70910  0.27350  0.66250  Biso   1.000  H
  H29      1.0000 0.79090  0.77350  0.83750  Biso   1.000  H
  H30      1.0000 0.29090  0.27350  0.83750  Biso   1.000  H
  H31      1.0000 0.79090  0.22650  0.33750  Biso   1.000  H
  H32      1.0000 0.29090  0.72650  0.33750  Biso   1.000  H
  C1       1.0000 0.14148  0.15000  0.03810  Biso   1.000  C
  C2       1.0000 0.64148  0.65000  0.03810  Biso   1.000  C
  C3       1.0000 0.14148  0.85000  0.53810  Biso   1.000  C
  C4       1.0000 0.64148  0.35000  0.53810  Biso   1.000  C
  C5       1.0000 0.85852  0.85000  0.96190  Biso   1.000  C
  C6       1.0000 0.35852  0.35000  0.96190  Biso   1.000  C
  C7       1.0000 0.85852  0.15000  0.46190  Biso   1.000  C
  C8       1.0000 0.35852  0.65000  0.46190  Biso   1.000  C
  H33      1.0000 0.12220  0.25430  0.04670  Biso   1.000  H
  H34      1.0000 0.62220  0.75430  0.04670  Biso   1.000  H
  H35      1.0000 0.12220  0.74570  0.54670  Biso   1.000  H
  H36      1.0000 0.62220  0.24570  0.54670  Biso   1.000  H
  H37      1.0000 0.87780  0.74570  0.95330  Biso   1.000  H
  H38      1.0000 0.37780  0.24570  0.95330  Biso   1.000  H
  H39      1.0000 0.87780  0.25430  0.45330  Biso   1.000  H
  H40      1.0000 0.37780  0.75430  0.45330  Biso   1.000  H
  H41      1.0000 0.12260  0.06090  0.06850  Biso   1.000  H
  H42      1.0000 0.62260  0.56090  0.06850  Biso   1.000  H
  H43      1.0000 0.12260  0.93910  0.56850  Biso   1.000  H
  H44      1.0000 0.62260  0.43910  0.56850  Biso   1.000  H
  H45      1.0000 0.87740  0.93910  0.93150  Biso   1.000  H
  H46      1.0000 0.37740  0.43910  0.93150  Biso   1.000  H
  H47      1.0000 0.87740  0.06090  0.43150  Biso   1.000  H
  H48      1.0000 0.37740  0.56090  0.43150  Biso   1.000  H
  C9       1.0000 0.13315  0.11860  0.91630  Biso   1.000  C
  C10      1.0000 0.63315  0.61860  0.91630  Biso   1.000  C
  C11      1.0000 0.13315  0.88140  0.41630  Biso   1.000  C
  C12      1.0000 0.63315  0.38140  0.41630  Biso   1.000  C
  C13      1.0000 0.86685  0.88140  0.08370  Biso   1.000  C
  C14      1.0000 0.36685  0.38140  0.08370  Biso   1.000  C
  C15      1.0000 0.86685  0.11860  0.58370  Biso   1.000  C
  C16      1.0000 0.36685  0.61860  0.58370  Biso   1.000  C
  H49      1.0000 0.14500  0.00310  0.90720  Biso   1.000  H
  H50      1.0000 0.64500  0.50310  0.90720  Biso   1.000  H
  H51      1.0000 0.14500  0.99690  0.40720  Biso   1.000  H
  H52      1.0000 0.64500  0.49690  0.40720  Biso   1.000  H
  H53      1.0000 0.85500  0.99690  0.09280  Biso   1.000  H
  H54      1.0000 0.35500  0.49690  0.09280  Biso   1.000  H
  H55      1.0000 0.85500  0.00310  0.59280  Biso   1.000  H
  H56      1.0000 0.35500  0.50310  0.59280  Biso   1.000  H
  C17      1.0000 0.12380  0.21580  0.93320  Biso   1.000  C
  C18      1.0000 0.62380  0.71580  0.93320  Biso   1.000  C
  C19      1.0000 0.12380  0.78420  0.43320  Biso   1.000  C
  C20      1.0000 0.62380  0.28420  0.43320  Biso   1.000  C
  C21      1.0000 0.87620  0.78420  0.06680  Biso   1.000  C
  C22      1.0000 0.37620  0.28420  0.06680  Biso   1.000  C
  C23      1.0000 0.87620  0.21580  0.56680  Biso   1.000  C
  C24      1.0000 0.37620  0.71580  0.56680  Biso   1.000  C
  H57      1.0000 0.11260  0.33130  0.94440  Biso   1.000  H
  H58      1.0000 0.61260  0.83130  0.94440  Biso   1.000  H
  H59      1.0000 0.11260  0.66870  0.44440  Biso   1.000  H
  H60      1.0000 0.61260  0.16870  0.44440  Biso   1.000  H
  H61      1.0000 0.88740  0.66870  0.05560  Biso   1.000  H
  H62      1.0000 0.38740  0.16870  0.05560  Biso   1.000  H
  H63      1.0000 0.88740  0.33130  0.55560  Biso   1.000  H
  H64      1.0000 0.38740  0.83130  0.55560  Biso   1.000  H
  C25      1.0000 0.06794  0.14140  0.84620  Biso   1.000  C
  C26      1.0000 0.56794  0.64140  0.84620  Biso   1.000  C
  C27      1.0000 0.06794  0.85860  0.34620  Biso   1.000  C
  C28      1.0000 0.56794  0.35860  0.34620  Biso   1.000  C
  C29      1.0000 0.93206  0.85860  0.15380  Biso   1.000  C
  C30      1.0000 0.43206  0.35860  0.15380  Biso   1.000  C
  C31      1.0000 0.93206  0.14140  0.65380  Biso   1.000  C
  C32      1.0000 0.43206  0.64140  0.65380  Biso   1.000  C
  H65      1.0000 0.06430  0.12270  0.76780  Biso   1.000  H
  H66      1.0000 0.56430  0.62270  0.76780  Biso   1.000  H
  H67      1.0000 0.06430  0.87730  0.26780  Biso   1.000  H
  H68      1.0000 0.56430  0.37730  0.26780  Biso   1.000  H
  H69      1.0000 0.93570  0.87730  0.23220  Biso   1.000  H
  H70      1.0000 0.43570  0.37730  0.23220  Biso   1.000  H
  H71      1.0000 0.93570  0.12270  0.73220  Biso   1.000  H
  H72      1.0000 0.43570  0.62270  0.73220  Biso   1.000  H
  H73      1.0000 0.05530  0.25310  0.85610  Biso   1.000  H
  H74      1.0000 0.55530  0.75310  0.85610  Biso   1.000  H
  H75      1.0000 0.05530  0.74690  0.35610  Biso   1.000  H
  H76      1.0000 0.55530  0.24690  0.35610  Biso   1.000  H
  H77      1.0000 0.94470  0.74690  0.14390  Biso   1.000  H
  H78      1.0000 0.44470  0.24690  0.14390  Biso   1.000  H
  H79      1.0000 0.94470  0.25310  0.64390  Biso   1.000  H
  H80      1.0000 0.44470  0.75310  0.64390  Biso   1.000  H
  H81      1.0000 0.04350  0.06270  0.87090  Biso   1.000  H
  H82      1.0000 0.54350  0.56270  0.87090  Biso   1.000  H
  H83      1.0000 0.04350  0.93730  0.37090  Biso   1.000  H
  H84      1.0000 0.54350  0.43730  0.37090  Biso   1.000  H
  H85      1.0000 0.95650  0.93730  0.12910  Biso   1.000  H
  H86      1.0000 0.45650  0.43730  0.12910  Biso   1.000  H
  H87      1.0000 0.95650  0.06270  0.62910  Biso   1.000  H
  H88      1.0000 0.45650  0.56270  0.62910  Biso   1.000  H
  S1       1.0000 0.30755  0.87192  0.89146  Biso   1.000  S
  S2       1.0000 0.80755  0.37192  0.89146  Biso   1.000  S
  S3       1.0000 0.30755  0.12808  0.39146  Biso   1.000  S
  S4       1.0000 0.80755  0.62808  0.39146  Biso   1.000  S
  S5       1.0000 0.69245  0.12808  0.10854  Biso   1.000  S
  S6       1.0000 0.19245  0.62808  0.10854  Biso   1.000  S
  S7       1.0000 0.69245  0.87192  0.60854  Biso   1.000  S
  S8       1.0000 0.19245  0.37192  0.60854  Biso   1.000  S
  O1       1.0000 0.29147  0.70620  0.84303  Biso   1.000  O
  O2       1.0000 0.79147  0.20620  0.84303  Biso   1.000  O
  O3       1.0000 0.29147  0.29380  0.34303  Biso   1.000  O
  O4       1.0000 0.79147  0.79380  0.34303  Biso   1.000  O
  O5       1.0000 0.70853  0.29380  0.15697  Biso   1.000  O
  O6       1.0000 0.20853  0.79380  0.15697  Biso   1.000  O
  O7       1.0000 0.70853  0.70620  0.65697  Biso   1.000  O
  O8       1.0000 0.20853  0.20620  0.65697  Biso   1.000  O
  O9       1.0000 0.32729  0.98150  0.81517  Biso   1.000  O
  O10      1.0000 0.82729  0.48150  0.81517  Biso   1.000  O
  O11      1.0000 0.32729  0.01850  0.31517  Biso   1.000  O
  O12      1.0000 0.82729  0.51850  0.31517  Biso   1.000  O
  O13      1.0000 0.67271  0.01850  0.18483  Biso   1.000  O
  O14      1.0000 0.17271  0.51850  0.18483  Biso   1.000  O
  O15      1.0000 0.67271  0.98150  0.68483  Biso   1.000  O
  O16      1.0000 0.17271  0.48150  0.68483  Biso   1.000  O
  O17      1.0000 0.26224  0.94700  0.93486  Biso   1.000  O
  O18      1.0000 0.76224  0.44700  0.93486  Biso   1.000  O
  O19      1.0000 0.26224  0.05300  0.43486  Biso   1.000  O
  O20      1.0000 0.76224  0.55300  0.43486  Biso   1.000  O
  O21      1.0000 0.73776  0.05300  0.06514  Biso   1.000  O
  O22      1.0000 0.23776  0.55300  0.06514  Biso   1.000  O
  O23      1.0000 0.73776  0.94700  0.56514  Biso   1.000  O
  O24      1.0000 0.23776  0.44700  0.56514  Biso   1.000  O
  C33      1.0000 0.37124  0.84580  0.01074  Biso   1.000  C
  C34      1.0000 0.87124  0.34580  0.01074  Biso   1.000  C
  C35      1.0000 0.37124  0.15420  0.51074  Biso   1.000  C
  C36      1.0000 0.87124  0.65420  0.51074  Biso   1.000  C
  C37      1.0000 0.62876  0.15420  0.98926  Biso   1.000  C
  C38      1.0000 0.12876  0.65420  0.98926  Biso   1.000  C
  C39      1.0000 0.62876  0.84580  0.48926  Biso   1.000  C
  C40      1.0000 0.12876  0.34580  0.48926  Biso   1.000  C
  C41      1.0000 0.42717  0.83740  0.99625  Biso   1.000  C
  C42      1.0000 0.92717  0.33740  0.99625  Biso   1.000  C
  C43      1.0000 0.42717  0.16260  0.49625  Biso   1.000  C
  C44      1.0000 0.92717  0.66260  0.49625  Biso   1.000  C
  C45      1.0000 0.57283  0.16260  0.00375  Biso   1.000  C
  C46      1.0000 0.07283  0.66260  0.00375  Biso   1.000  C
  C47      1.0000 0.57283  0.83740  0.50375  Biso   1.000  C
  C48      1.0000 0.07283  0.33740  0.50375  Biso   1.000  C
  H89      1.0000 0.43150  0.83910  0.92380  Biso   1.000  H
  H90      1.0000 0.93150  0.33910  0.92380  Biso   1.000  H
  H91      1.0000 0.43150  0.16090  0.42380  Biso   1.000  H
  H92      1.0000 0.93150  0.66090  0.42380  Biso   1.000  H
  H93      1.0000 0.56850  0.16090  0.07620  Biso   1.000  H
  H94      1.0000 0.06850  0.66090  0.07620  Biso   1.000  H
  H95      1.0000 0.56850  0.83910  0.57620  Biso   1.000  H
  H96      1.0000 0.06850  0.33910  0.57620  Biso   1.000  H
  C49      1.0000 0.47725  0.82630  0.08950  Biso   1.000  C
  C50      1.0000 0.97725  0.32630  0.08950  Biso   1.000  C
  C51      1.0000 0.47725  0.17370  0.58950  Biso   1.000  C
  C52      1.0000 0.97725  0.67370  0.58950  Biso   1.000  C
  C53      1.0000 0.52275  0.17370  0.91050  Biso   1.000  C
  C54      1.0000 0.02275  0.67370  0.91050  Biso   1.000  C
  C55      1.0000 0.52275  0.82630  0.41050  Biso   1.000  C
  C56      1.0000 0.02275  0.32630  0.41050  Biso   1.000  C
  H97      1.0000 0.51460  0.81900  0.07810  Biso   1.000  H
  H98      1.0000 0.01460  0.31900  0.07810  Biso   1.000  H
  H99      1.0000 0.51460  0.18100  0.57810  Biso   1.000  H
  H100     1.0000 0.01460  0.68100  0.57810  Biso   1.000  H
  H101     1.0000 0.48540  0.18100  0.92190  Biso   1.000  H
  H102     1.0000 0.98540  0.68100  0.92190  Biso   1.000  H
  H103     1.0000 0.48540  0.81900  0.42190  Biso   1.000  H
  H104     1.0000 0.98540  0.31900  0.42190  Biso   1.000  H
  C57      1.0000 0.47291  0.82590  0.19971  Biso   1.000  C
  C58      1.0000 0.97291  0.32590  0.19971  Biso   1.000  C
  C59      1.0000 0.47291  0.17410  0.69971  Biso   1.000  C
  C60      1.0000 0.97291  0.67410  0.69971  Biso   1.000  C
  C61      1.0000 0.52709  0.17410  0.80029  Biso   1.000  C
  C62      1.0000 0.02709  0.67410  0.80029  Biso   1.000  C
  C63      1.0000 0.52709  0.82590  0.30029  Biso   1.000  C
  C64      1.0000 0.02709  0.32590  0.30029  Biso   1.000  C
  C65      1.0000 0.41590  0.83020  0.21155  Biso   1.000  C
  C66      1.0000 0.91590  0.33020  0.21155  Biso   1.000  C
  C67      1.0000 0.41590  0.16980  0.71155  Biso   1.000  C
  C68      1.0000 0.91590  0.66980  0.71155  Biso   1.000  C
  C69      1.0000 0.58410  0.16980  0.78845  Biso   1.000  C
  C70      1.0000 0.08410  0.66980  0.78845  Biso   1.000  C
  C71      1.0000 0.58410  0.83020  0.28845  Biso   1.000  C
  C72      1.0000 0.08410  0.33020  0.28845  Biso   1.000  C
  H105     1.0000 0.41130  0.82670  0.28370  Biso   1.000  H
  H106     1.0000 0.91130  0.32670  0.28370  Biso   1.000  H
  H107     1.0000 0.41130  0.17330  0.78370  Biso   1.000  H
  H108     1.0000 0.91130  0.67330  0.78370  Biso   1.000  H
  H109     1.0000 0.58870  0.17330  0.71630  Biso   1.000  H
  H110     1.0000 0.08870  0.67330  0.71630  Biso   1.000  H
  H111     1.0000 0.58870  0.82670  0.21630  Biso   1.000  H
  H112     1.0000 0.08870  0.32670  0.21630  Biso   1.000  H
  C73      1.0000 0.36539  0.83950  0.11884  Biso   1.000  C
  C74      1.0000 0.86539  0.33950  0.11884  Biso   1.000  C
  C75      1.0000 0.36539  0.16050  0.61884  Biso   1.000  C
  C76      1.0000 0.86539  0.66050  0.61884  Biso   1.000  C
  C77      1.0000 0.63461  0.16050  0.88116  Biso   1.000  C
  C78      1.0000 0.13461  0.66050  0.88116  Biso   1.000  C
  C79      1.0000 0.63461  0.83950  0.38116  Biso   1.000  C
  C80      1.0000 0.13461  0.33950  0.38116  Biso   1.000  C
  H113     1.0000 0.32780  0.84150  0.12960  Biso   1.000  H
  H114     1.0000 0.82780  0.34150  0.12960  Biso   1.000  H
  H115     1.0000 0.32780  0.15850  0.62960  Biso   1.000  H
  H116     1.0000 0.82780  0.65850  0.62960  Biso   1.000  H
  H117     1.0000 0.67220  0.15850  0.87040  Biso   1.000  H
  H118     1.0000 0.17220  0.65850  0.87040  Biso   1.000  H
  H119     1.0000 0.67220  0.84150  0.37040  Biso   1.000  H
  H120     1.0000 0.17220  0.34150  0.37040  Biso   1.000  H
