data_image0
_cell_length_a       8.568
_cell_length_b       10.521
_cell_length_c       12.839
_cell_angle_alpha    90
_cell_angle_beta     91.869
_cell_angle_gamma    90

_symmetry_space_group_name_H-M    "P 1"
_symmetry_int_tables_number       1

loop_
  _symmetry_equiv_pos_as_xyz
  'x, y, z'

loop_
  _atom_site_label
  _atom_site_occupancy
  _atom_site_fract_x
  _atom_site_fract_y
  _atom_site_fract_z
  _atom_site_thermal_displace_type
  _atom_site_B_iso_or_equiv
  _atom_site_type_symbol
  Cu1      1.0000 0.50000  0.00000  0.00000  Biso   1.000  Cu
  Cu2      1.0000 0.50000  0.50000  0.50000  Biso   1.000  Cu
  S1       1.0000 0.25100  0.24960  0.97364  Biso   1.000  S
  S2       1.0000 0.25100  0.25040  0.47364  Biso   1.000  S
  S3       1.0000 0.74900  0.75040  0.02636  Biso   1.000  S
  S4       1.0000 0.74900  0.74960  0.52636  Biso   1.000  S
  N1       1.0000 0.62170  0.12160  0.91470  Biso   1.000  N
  N2       1.0000 0.62170  0.37840  0.41470  Biso   1.000  N
  N3       1.0000 0.37830  0.87840  0.08530  Biso   1.000  N
  N4       1.0000 0.37830  0.62160  0.58530  Biso   1.000  N
  H1       1.0000 0.56400  0.19410  0.90940  Biso   1.000  H
  H2       1.0000 0.56400  0.30590  0.40940  Biso   1.000  H
  H3       1.0000 0.43600  0.80590  0.09060  Biso   1.000  H
  H4       1.0000 0.43600  0.69410  0.59060  Biso   1.000  H
  N5       1.0000 0.64570  0.04980  0.11940  Biso   1.000  N
  N6       1.0000 0.64570  0.45020  0.61940  Biso   1.000  N
  N7       1.0000 0.35430  0.95020  0.88060  Biso   1.000  N
  N8       1.0000 0.35430  0.54980  0.38060  Biso   1.000  N
  H5       1.0000 0.71970  0.98790  0.12520  Biso   1.000  H
  H6       1.0000 0.71970  0.51210  0.62520  Biso   1.000  H
  H7       1.0000 0.28030  0.01210  0.87480  Biso   1.000  H
  H8       1.0000 0.28030  0.48790  0.37480  Biso   1.000  H
  O1       1.0000 0.32060  0.17360  0.05630  Biso   1.000  O
  O2       1.0000 0.32060  0.32640  0.55630  Biso   1.000  O
  O3       1.0000 0.67940  0.82640  0.94370  Biso   1.000  O
  O4       1.0000 0.67940  0.67360  0.44370  Biso   1.000  O
  O5       1.0000 0.14770  0.17700  0.90440  Biso   1.000  O
  O6       1.0000 0.14770  0.32300  0.40440  Biso   1.000  O
  O7       1.0000 0.85230  0.82300  0.09560  Biso   1.000  O
  O8       1.0000 0.85230  0.67700  0.59560  Biso   1.000  O
  O9       1.0000 0.36480  0.32160  0.91720  Biso   1.000  O
  O10      1.0000 0.36480  0.17840  0.41720  Biso   1.000  O
  O11      1.0000 0.63520  0.67840  0.08280  Biso   1.000  O
  O12      1.0000 0.63520  0.82160  0.58280  Biso   1.000  O
  C1       1.0000 0.65220  0.08110  0.80730  Biso   1.000  C
  C2       1.0000 0.65220  0.41890  0.30730  Biso   1.000  C
  C3       1.0000 0.34780  0.91890  0.19270  Biso   1.000  C
  C4       1.0000 0.34780  0.58110  0.69270  Biso   1.000  C
  H9       1.0000 0.71620  0.00510  0.80980  Biso   1.000  H
  H10      1.0000 0.71620  0.49490  0.30980  Biso   1.000  H
  H11      1.0000 0.28380  0.99490  0.19020  Biso   1.000  H
  H12      1.0000 0.28380  0.50510  0.69020  Biso   1.000  H
  H13      1.0000 0.71080  0.14720  0.77320  Biso   1.000  H
  H14      1.0000 0.71080  0.35280  0.27320  Biso   1.000  H
  H15      1.0000 0.28920  0.85280  0.22680  Biso   1.000  H
  H16      1.0000 0.28920  0.64720  0.72680  Biso   1.000  H
  C5       1.0000 0.50660  0.05450  0.74410  Biso   1.000  C
  C6       1.0000 0.50660  0.44550  0.24410  Biso   1.000  C
  C7       1.0000 0.49340  0.94550  0.25590  Biso   1.000  C
  C8       1.0000 0.49340  0.55450  0.75590  Biso   1.000  C
  H17      1.0000 0.53300  0.04560  0.67160  Biso   1.000  H
  H18      1.0000 0.53300  0.45440  0.17160  Biso   1.000  H
  H19      1.0000 0.46700  0.95440  0.32840  Biso   1.000  H
  H20      1.0000 0.46700  0.54560  0.82840  Biso   1.000  H
  H21      1.0000 0.43680  0.12670  0.74920  Biso   1.000  H
  H22      1.0000 0.43680  0.37330  0.24920  Biso   1.000  H
  H23      1.0000 0.56320  0.87330  0.25080  Biso   1.000  H
  H24      1.0000 0.56320  0.62670  0.75080  Biso   1.000  H
  C9       1.0000 0.76370  0.15370  0.97690  Biso   1.000  C
  C10      1.0000 0.76370  0.34630  0.47690  Biso   1.000  C
  C11      1.0000 0.23630  0.84630  0.02310  Biso   1.000  C
  C12      1.0000 0.23630  0.65370  0.52310  Biso   1.000  C
  H25      1.0000 0.84120  0.08740  0.96940  Biso   1.000  H
  H26      1.0000 0.84120  0.41260  0.46940  Biso   1.000  H
  H27      1.0000 0.15880  0.91260  0.03060  Biso   1.000  H
  H28      1.0000 0.15880  0.58740  0.53060  Biso   1.000  H
  H29      1.0000 0.80720  0.23270  0.95190  Biso   1.000  H
  H30      1.0000 0.80720  0.26730  0.45190  Biso   1.000  H
  H31      1.0000 0.19280  0.76730  0.04810  Biso   1.000  H
  H32      1.0000 0.19280  0.73270  0.54810  Biso   1.000  H
  C13      1.0000 0.72610  0.16670  0.08550  Biso   1.000  C
  C14      1.0000 0.72610  0.33330  0.58550  Biso   1.000  C
  C15      1.0000 0.27390  0.83330  0.91450  Biso   1.000  C
  C16      1.0000 0.27390  0.66670  0.41450  Biso   1.000  C
  H33      1.0000 0.65890  0.23980  0.09440  Biso   1.000  H
  H34      1.0000 0.65890  0.26020  0.59440  Biso   1.000  H
  H35      1.0000 0.34110  0.76020  0.90560  Biso   1.000  H
  H36      1.0000 0.34110  0.73980  0.40560  Biso   1.000  H
  H37      1.0000 0.82100  0.17950  0.12750  Biso   1.000  H
  H38      1.0000 0.82100  0.32050  0.62750  Biso   1.000  H
  H39      1.0000 0.17900  0.82050  0.87250  Biso   1.000  H
  H40      1.0000 0.17900  0.67950  0.37250  Biso   1.000  H
  C17      1.0000 0.57800  0.06340  0.22250  Biso   1.000  C
  C18      1.0000 0.57800  0.43660  0.72250  Biso   1.000  C
  C19      1.0000 0.42200  0.93660  0.77750  Biso   1.000  C
  C20      1.0000 0.42200  0.56340  0.27750  Biso   1.000  C
  H41      1.0000 0.50570  0.13440  0.22100  Biso   1.000  H
  H42      1.0000 0.50570  0.36560  0.72100  Biso   1.000  H
  H43      1.0000 0.49430  0.86560  0.77900  Biso   1.000  H
  H44      1.0000 0.49430  0.63440  0.27900  Biso   1.000  H
  H45      1.0000 0.66070  0.08260  0.27350  Biso   1.000  H
  H46      1.0000 0.66070  0.41740  0.77350  Biso   1.000  H
  H47      1.0000 0.33930  0.91740  0.72650  Biso   1.000  H
  H48      1.0000 0.33930  0.58260  0.22650  Biso   1.000  H
  C21      1.0000 0.05420  0.46500  0.86490  Biso   1.000  C
  C22      1.0000 0.05420  0.03500  0.36490  Biso   1.000  C
  C23      1.0000 0.94580  0.53500  0.13510  Biso   1.000  C
  C24      1.0000 0.94580  0.96500  0.63510  Biso   1.000  C
  H49      1.0000 0.11270  0.40590  0.82910  Biso   1.000  H
  H50      1.0000 0.11270  0.09410  0.32910  Biso   1.000  H
  H51      1.0000 0.88730  0.59410  0.17090  Biso   1.000  H
  H52      1.0000 0.88730  0.90590  0.67090  Biso   1.000  H
  C25      1.0000 0.04850  0.45610  0.97320  Biso   1.000  C
  C26      1.0000 0.04850  0.04390  0.47320  Biso   1.000  C
  C27      1.0000 0.95150  0.54390  0.02680  Biso   1.000  C
  C28      1.0000 0.95150  0.95610  0.52680  Biso   1.000  C
  C29      1.0000 0.12920  0.36190  0.03310  Biso   1.000  C
  C30      1.0000 0.12920  0.13810  0.53310  Biso   1.000  C
  C31      1.0000 0.87080  0.63810  0.96690  Biso   1.000  C
  C32      1.0000 0.87080  0.86190  0.46690  Biso   1.000  C
  C33      1.0000 0.11590  0.35690  0.13910  Biso   1.000  C
  C34      1.0000 0.11590  0.14310  0.63910  Biso   1.000  C
  C35      1.0000 0.88410  0.64310  0.86090  Biso   1.000  C
  C36      1.0000 0.88410  0.85690  0.36090  Biso   1.000  C
  H53      1.0000 0.17010  0.29500  0.17730  Biso   1.000  H
  H54      1.0000 0.17010  0.20500  0.67730  Biso   1.000  H
  H55      1.0000 0.82990  0.70500  0.82270  Biso   1.000  H
  H56      1.0000 0.82990  0.79500  0.32270  Biso   1.000  H
  C37      1.0000 0.97710  0.55710  0.81010  Biso   1.000  C
  C38      1.0000 0.97710  0.94290  0.31010  Biso   1.000  C
  C39      1.0000 0.02290  0.44290  0.18990  Biso   1.000  C
  C40      1.0000 0.02290  0.05710  0.68990  Biso   1.000  C
  H57      1.0000 0.98670  0.56250  0.73830  Biso   1.000  H
  H58      1.0000 0.98670  0.93750  0.23830  Biso   1.000  H
  H59      1.0000 0.01330  0.43750  0.26170  Biso   1.000  H
  H60      1.0000 0.01330  0.06250  0.76170  Biso   1.000  H
