data_image0
_cell_length_a       10.607
_cell_length_b       9.852
_cell_length_c       16.643
_cell_angle_alpha    90
_cell_angle_beta     90.37
_cell_angle_gamma    90

_symmetry_space_group_name_H-M    "P 1"
_symmetry_int_tables_number       1

loop_
  _symmetry_equiv_pos_as_xyz
  'x, y, z'

loop_
  _atom_site_label
  _atom_site_occupancy
  _atom_site_fract_x
  _atom_site_fract_y
  _atom_site_fract_z
  _atom_site_thermal_displace_type
  _atom_site_B_iso_or_equiv
  _atom_site_type_symbol
  Cu1      1.0000 0.22078  0.33971  0.61950  Biso   1.000  Cu
  Cu2      1.0000 0.77922  0.83971  0.88050  Biso   1.000  Cu
  Cu3      1.0000 0.77922  0.66029  0.38050  Biso   1.000  Cu
  Cu4      1.0000 0.22078  0.16029  0.11950  Biso   1.000  Cu
  Cl1      1.0000 0.38407  0.81341  0.52428  Biso   1.000  Cl
  Cl2      1.0000 0.61593  0.31341  0.97572  Biso   1.000  Cl
  Cl3      1.0000 0.61593  0.18659  0.47572  Biso   1.000  Cl
  Cl4      1.0000 0.38407  0.68659  0.02428  Biso   1.000  Cl
  Cl5      1.0000 0.18466  0.94354  0.80926  Biso   1.000  Cl
  Cl6      1.0000 0.81534  0.44354  0.69074  Biso   1.000  Cl
  Cl7      1.0000 0.81534  0.05646  0.19074  Biso   1.000  Cl
  Cl8      1.0000 0.18466  0.55646  0.30926  Biso   1.000  Cl
  O1       1.0000 0.37955  0.43005  0.53713  Biso   1.000  O
  O2       1.0000 0.62045  0.93005  0.96287  Biso   1.000  O
  O3       1.0000 0.62045  0.56995  0.46287  Biso   1.000  O
  O4       1.0000 0.37955  0.06995  0.03713  Biso   1.000  O
  H1       1.0000 0.36400  0.50200  0.51700  Biso   1.000  H
  H2       1.0000 0.63600  0.00200  0.98300  Biso   1.000  H
  H3       1.0000 0.63600  0.49800  0.48300  Biso   1.000  H
  H4       1.0000 0.36400  0.99800  0.01700  Biso   1.000  H
  H5       1.0000 0.41800  0.38300  0.50590  Biso   1.000  H
  H6       1.0000 0.58200  0.88300  0.99410  Biso   1.000  H
  H7       1.0000 0.58200  0.61700  0.49410  Biso   1.000  H
  H8       1.0000 0.41800  0.11700  0.00590  Biso   1.000  H
  O5       1.0000 0.31961  0.90906  0.57315  Biso   1.000  O
  O6       1.0000 0.68039  0.40906  0.92685  Biso   1.000  O
  O7       1.0000 0.68039  0.09094  0.42685  Biso   1.000  O
  O8       1.0000 0.31961  0.59094  0.07315  Biso   1.000  O
  O9       1.0000 0.48986  0.75699  0.56752  Biso   1.000  O
  O10      1.0000 0.51014  0.25699  0.93248  Biso   1.000  O
  O11      1.0000 0.51014  0.24301  0.43248  Biso   1.000  O
  O12      1.0000 0.48986  0.74301  0.06752  Biso   1.000  O
  O13      1.0000 0.29910  0.70510  0.50310  Biso   1.000  O
  O14      1.0000 0.70090  0.20510  0.99690  Biso   1.000  O
  O15      1.0000 0.70090  0.29490  0.49690  Biso   1.000  O
  O16      1.0000 0.29910  0.79490  0.00310  Biso   1.000  O
  O17      1.0000 0.42909  0.87709  0.45240  Biso   1.000  O
  O18      1.0000 0.57091  0.37709  0.04760  Biso   1.000  O
  O19      1.0000 0.57091  0.12291  0.54760  Biso   1.000  O
  O20      1.0000 0.42909  0.62291  0.95240  Biso   1.000  O
  O21      1.0000 0.10543  0.82603  0.81717  Biso   1.000  O
  O22      1.0000 0.89457  0.32603  0.68283  Biso   1.000  O
  O23      1.0000 0.89457  0.17397  0.18283  Biso   1.000  O
  O24      1.0000 0.10543  0.67397  0.31717  Biso   1.000  O
  O25      1.0000 0.17050  0.02660  0.87953  Biso   1.000  O
  O26      1.0000 0.82950  0.52660  0.62047  Biso   1.000  O
  O27      1.0000 0.82950  0.97340  0.12047  Biso   1.000  O
  O28      1.0000 0.17050  0.47340  0.37953  Biso   1.000  O
  O29      1.0000 0.14366  0.01900  0.73955  Biso   1.000  O
  O30      1.0000 0.85634  0.51900  0.76045  Biso   1.000  O
  O31      1.0000 0.85634  0.98100  0.26045  Biso   1.000  O
  O32      1.0000 0.14366  0.48100  0.23955  Biso   1.000  O
  O33      1.0000 0.31284  0.90340  0.79999  Biso   1.000  O
  O34      1.0000 0.68716  0.40340  0.70001  Biso   1.000  O
  O35      1.0000 0.68716  0.09660  0.20001  Biso   1.000  O
  O36      1.0000 0.31284  0.59660  0.29999  Biso   1.000  O
  N1       1.0000 0.26979  0.43471  0.72231  Biso   1.000  N
  N2       1.0000 0.73021  0.93471  0.77769  Biso   1.000  N
  N3       1.0000 0.73021  0.56529  0.27769  Biso   1.000  N
  N4       1.0000 0.26979  0.06529  0.22231  Biso   1.000  N
  N5       1.0000 0.34309  0.19409  0.65711  Biso   1.000  N
  N6       1.0000 0.65691  0.69409  0.84289  Biso   1.000  N
  N7       1.0000 0.65691  0.80591  0.34289  Biso   1.000  N
  N8       1.0000 0.34309  0.30591  0.15711  Biso   1.000  N
  H9       1.0000 0.29980  0.11480  0.66640  Biso   1.000  H
  H10      1.0000 0.70020  0.61480  0.83360  Biso   1.000  H
  H11      1.0000 0.70020  0.88520  0.33360  Biso   1.000  H
  H12      1.0000 0.29980  0.38520  0.16640  Biso   1.000  H
  H13      1.0000 0.40120  0.17770  0.61750  Biso   1.000  H
  H14      1.0000 0.59880  0.67770  0.88250  Biso   1.000  H
  H15      1.0000 0.59880  0.82230  0.38250  Biso   1.000  H
  H16      1.0000 0.40120  0.32230  0.11750  Biso   1.000  H
  N9       1.0000 0.11966  0.51053  0.59699  Biso   1.000  N
  N10      1.0000 0.88034  0.01053  0.90301  Biso   1.000  N
  N11      1.0000 0.88034  0.48947  0.40301  Biso   1.000  N
  N12      1.0000 0.11966  0.98947  0.09699  Biso   1.000  N
  H17      1.0000 0.14460  0.54750  0.54890  Biso   1.000  H
  H18      1.0000 0.85540  0.04750  0.95110  Biso   1.000  H
  H19      1.0000 0.85540  0.45250  0.45110  Biso   1.000  H
  H20      1.0000 0.14460  0.95250  0.04890  Biso   1.000  H
  H21      1.0000 0.03540  0.48910  0.59290  Biso   1.000  H
  H22      1.0000 0.96460  0.98910  0.90710  Biso   1.000  H
  H23      1.0000 0.96460  0.51090  0.40710  Biso   1.000  H
  H24      1.0000 0.03540  0.01090  0.09290  Biso   1.000  H
  N13      1.0000 0.13289  0.40275  0.92817  Biso   1.000  N
  N14      1.0000 0.86711  0.90275  0.57183  Biso   1.000  N
  N15      1.0000 0.86711  0.59725  0.07183  Biso   1.000  N
  N16      1.0000 0.13289  0.09725  0.42817  Biso   1.000  N
  N17      1.0000 0.14255  0.27021  0.03399  Biso   1.000  N
  N18      1.0000 0.85745  0.77021  0.46601  Biso   1.000  N
  N19      1.0000 0.85745  0.72979  0.96601  Biso   1.000  N
  N20      1.0000 0.14255  0.22979  0.53399  Biso   1.000  N
  C1       1.0000 0.40075  0.38950  0.74162  Biso   1.000  C
  C2       1.0000 0.59925  0.88950  0.75838  Biso   1.000  C
  C3       1.0000 0.59925  0.61050  0.25838  Biso   1.000  C
  C4       1.0000 0.40075  0.11050  0.24162  Biso   1.000  C
  H25      1.0000 0.42270  0.41530  0.79750  Biso   1.000  H
  H26      1.0000 0.57730  0.91530  0.70250  Biso   1.000  H
  H27      1.0000 0.57730  0.58470  0.20250  Biso   1.000  H
  H28      1.0000 0.42270  0.08470  0.29750  Biso   1.000  H
  H29      1.0000 0.46110  0.43460  0.70510  Biso   1.000  H
  H30      1.0000 0.53890  0.93460  0.79490  Biso   1.000  H
  H31      1.0000 0.53890  0.56540  0.29490  Biso   1.000  H
  H32      1.0000 0.46110  0.06540  0.20510  Biso   1.000  H
  C5       1.0000 0.40970  0.23670  0.73199  Biso   1.000  C
  C6       1.0000 0.59030  0.73670  0.76801  Biso   1.000  C
  C7       1.0000 0.59030  0.76330  0.26801  Biso   1.000  C
  C8       1.0000 0.40970  0.26330  0.23199  Biso   1.000  C
  H33      1.0000 0.49940  0.20910  0.72940  Biso   1.000  H
  H34      1.0000 0.50060  0.70910  0.77060  Biso   1.000  H
  H35      1.0000 0.50060  0.79090  0.27060  Biso   1.000  H
  H36      1.0000 0.49940  0.29090  0.22940  Biso   1.000  H
  H37      1.0000 0.37120  0.19140  0.77890  Biso   1.000  H
  H38      1.0000 0.62880  0.69140  0.72110  Biso   1.000  H
  H39      1.0000 0.62880  0.80860  0.22110  Biso   1.000  H
  H40      1.0000 0.37120  0.30860  0.27890  Biso   1.000  H
  C9       1.0000 0.26328  0.58214  0.70362  Biso   1.000  C
  C10      1.0000 0.73672  0.08214  0.79638  Biso   1.000  C
  C11      1.0000 0.73672  0.41786  0.29638  Biso   1.000  C
  C12      1.0000 0.26328  0.91786  0.20362  Biso   1.000  C
  H41      1.0000 0.33370  0.60780  0.66800  Biso   1.000  H
  H42      1.0000 0.66630  0.10780  0.83200  Biso   1.000  H
  H43      1.0000 0.66630  0.39220  0.33200  Biso   1.000  H
  H44      1.0000 0.33370  0.89220  0.16800  Biso   1.000  H
  H45      1.0000 0.27050  0.63570  0.75380  Biso   1.000  H
  H46      1.0000 0.72950  0.13570  0.74620  Biso   1.000  H
  H47      1.0000 0.72950  0.36430  0.24620  Biso   1.000  H
  H48      1.0000 0.27050  0.86430  0.25380  Biso   1.000  H
  C13      1.0000 0.13880  0.61150  0.66265  Biso   1.000  C
  C14      1.0000 0.86120  0.11150  0.83735  Biso   1.000  C
  C15      1.0000 0.86120  0.38850  0.33735  Biso   1.000  C
  C16      1.0000 0.13880  0.88850  0.16265  Biso   1.000  C
  H49      1.0000 0.06940  0.60490  0.70190  Biso   1.000  H
  H50      1.0000 0.93060  0.10490  0.79810  Biso   1.000  H
  H51      1.0000 0.93060  0.39510  0.29810  Biso   1.000  H
  H52      1.0000 0.06940  0.89510  0.20190  Biso   1.000  H
  H53      1.0000 0.13920  0.70450  0.64020  Biso   1.000  H
  H54      1.0000 0.86080  0.20450  0.85980  Biso   1.000  H
  H55      1.0000 0.86080  0.29550  0.35980  Biso   1.000  H
  H56      1.0000 0.13920  0.79550  0.14020  Biso   1.000  H
  C17      1.0000 0.17702  0.39240  0.78440  Biso   1.000  C
  C18      1.0000 0.82298  0.89240  0.71560  Biso   1.000  C
  C19      1.0000 0.82298  0.60760  0.21560  Biso   1.000  C
  C20      1.0000 0.17702  0.10760  0.28440  Biso   1.000  C
  H57      1.0000 0.19540  0.29760  0.80040  Biso   1.000  H
  H58      1.0000 0.80460  0.79760  0.69960  Biso   1.000  H
  H59      1.0000 0.80460  0.70240  0.19960  Biso   1.000  H
  H60      1.0000 0.19540  0.20240  0.30040  Biso   1.000  H
  H61      1.0000 0.09150  0.39400  0.76020  Biso   1.000  H
  H62      1.0000 0.90850  0.89400  0.73980  Biso   1.000  H
  H63      1.0000 0.90850  0.60600  0.23980  Biso   1.000  H
  H64      1.0000 0.09150  0.10600  0.26020  Biso   1.000  H
  C21      1.0000 0.17730  0.48150  0.85970  Biso   1.000  C
  C22      1.0000 0.82270  0.98150  0.64030  Biso   1.000  C
  C23      1.0000 0.82270  0.51850  0.14030  Biso   1.000  C
  C24      1.0000 0.17730  0.01850  0.35970  Biso   1.000  C
  H65      1.0000 0.12170  0.56100  0.85110  Biso   1.000  H
  H66      1.0000 0.87830  0.06100  0.64890  Biso   1.000  H
  H67      1.0000 0.87830  0.43900  0.14890  Biso   1.000  H
  H68      1.0000 0.12170  0.93900  0.35110  Biso   1.000  H
  H69      1.0000 0.26380  0.51500  0.87060  Biso   1.000  H
  H70      1.0000 0.73620  0.01500  0.62940  Biso   1.000  H
  H71      1.0000 0.73620  0.48500  0.12940  Biso   1.000  H
  H72      1.0000 0.26380  0.98500  0.37060  Biso   1.000  H
  C25      1.0000 0.20860  0.34100  0.98123  Biso   1.000  C
  C26      1.0000 0.79140  0.84100  0.51877  Biso   1.000  C
  C27      1.0000 0.79140  0.65900  0.01877  Biso   1.000  C
  C28      1.0000 0.20860  0.15900  0.48123  Biso   1.000  C
  H73      1.0000 0.29800  0.34710  0.98110  Biso   1.000  H
  H74      1.0000 0.70200  0.84710  0.51890  Biso   1.000  H
  H75      1.0000 0.70200  0.65290  0.01890  Biso   1.000  H
  H76      1.0000 0.29800  0.15290  0.48110  Biso   1.000  H
  C29      1.0000 0.01700  0.28750  0.01241  Biso   1.000  C
  C30      1.0000 0.98300  0.78750  0.48759  Biso   1.000  C
  C31      1.0000 0.98300  0.71250  0.98759  Biso   1.000  C
  C32      1.0000 0.01700  0.21250  0.51241  Biso   1.000  C
  H77      1.0000 0.94700  0.24840  0.03920  Biso   1.000  H
  H78      1.0000 0.05300  0.74840  0.46080  Biso   1.000  H
  H79      1.0000 0.05300  0.75160  0.96080  Biso   1.000  H
  H80      1.0000 0.94700  0.25160  0.53920  Biso   1.000  H
  C33      1.0000 0.01050  0.36920  0.94686  Biso   1.000  C
  C34      1.0000 0.98950  0.86920  0.55314  Biso   1.000  C
  C35      1.0000 0.98950  0.63080  0.05314  Biso   1.000  C
  C36      1.0000 0.01050  0.13080  0.44686  Biso   1.000  C
  H81      1.0000 0.93630  0.39760  0.91940  Biso   1.000  H
  H82      1.0000 0.06370  0.89760  0.58060  Biso   1.000  H
  H83      1.0000 0.06370  0.60240  0.08060  Biso   1.000  H
  H84      1.0000 0.93630  0.10240  0.41940  Biso   1.000  H
