data_image0
_cell_length_a       22.477
_cell_length_b       22.477
_cell_length_c       6.4602
_cell_angle_alpha    90
_cell_angle_beta     90
_cell_angle_gamma    90

_symmetry_space_group_name_H-M    "P 1"
_symmetry_int_tables_number       1

loop_
  _symmetry_equiv_pos_as_xyz
  'x, y, z'

loop_
  _atom_site_label
  _atom_site_occupancy
  _atom_site_fract_x
  _atom_site_fract_y
  _atom_site_fract_z
  _atom_site_thermal_displace_type
  _atom_site_B_iso_or_equiv
  _atom_site_type_symbol
  Cl1      1.0000 0.70483  0.42020  0.46870  Biso   1.000  Cl
  Cl2      1.0000 0.57980  0.20483  0.96870  Biso   1.000  Cl
  Cl3      1.0000 0.92020  0.29517  0.96870  Biso   1.000  Cl
  Cl4      1.0000 0.79517  0.07980  0.46870  Biso   1.000  Cl
  Cl5      1.0000 0.29517  0.57980  0.53130  Biso   1.000  Cl
  Cl6      1.0000 0.42020  0.79517  0.03130  Biso   1.000  Cl
  Cl7      1.0000 0.07980  0.70483  0.03130  Biso   1.000  Cl
  Cl8      1.0000 0.20483  0.92020  0.53130  Biso   1.000  Cl
  Cu1      1.0000 0.70981  0.48162  0.13756  Biso   1.000  Cu
  Cu2      1.0000 0.51838  0.20981  0.63756  Biso   1.000  Cu
  Cu3      1.0000 0.98162  0.29019  0.63756  Biso   1.000  Cu
  Cu4      1.0000 0.79019  0.01838  0.13756  Biso   1.000  Cu
  Cu5      1.0000 0.29019  0.51838  0.86244  Biso   1.000  Cu
  Cu6      1.0000 0.48162  0.79019  0.36244  Biso   1.000  Cu
  Cu7      1.0000 0.01838  0.70981  0.36244  Biso   1.000  Cu
  Cu8      1.0000 0.20981  0.98162  0.86244  Biso   1.000  Cu
  N1       1.0000 0.79677  0.51249  0.12500  Biso   1.000  N
  N2       1.0000 0.48751  0.29677  0.62500  Biso   1.000  N
  N3       1.0000 0.01249  0.20323  0.62500  Biso   1.000  N
  N4       1.0000 0.70323  0.98751  0.12500  Biso   1.000  N
  N5       1.0000 0.20323  0.48751  0.87500  Biso   1.000  N
  N6       1.0000 0.51249  0.70323  0.37500  Biso   1.000  N
  N7       1.0000 0.98751  0.79677  0.37500  Biso   1.000  N
  N8       1.0000 0.29677  0.01249  0.87500  Biso   1.000  N
  N9       1.0000 0.69170  0.56097  0.26180  Biso   1.000  N
  N10      1.0000 0.43903  0.19170  0.76180  Biso   1.000  N
  N11      1.0000 0.06097  0.30830  0.76180  Biso   1.000  N
  N12      1.0000 0.80830  0.93903  0.26180  Biso   1.000  N
  N13      1.0000 0.30830  0.43903  0.73820  Biso   1.000  N
  N14      1.0000 0.56097  0.80830  0.23820  Biso   1.000  N
  N15      1.0000 0.93903  0.69170  0.23820  Biso   1.000  N
  N16      1.0000 0.19170  0.06097  0.73820  Biso   1.000  N
  H1       1.0000 0.66960  0.58250  0.17300  Biso   1.000  H
  H2       1.0000 0.41750  0.16960  0.67300  Biso   1.000  H
  H3       1.0000 0.08250  0.33040  0.67300  Biso   1.000  H
  H4       1.0000 0.83040  0.91750  0.17300  Biso   1.000  H
  H5       1.0000 0.33040  0.41750  0.82700  Biso   1.000  H
  H6       1.0000 0.58250  0.83040  0.32700  Biso   1.000  H
  H7       1.0000 0.91750  0.66960  0.32700  Biso   1.000  H
  H8       1.0000 0.16960  0.08250  0.82700  Biso   1.000  H
  H9       1.0000 0.67060  0.55600  0.37890  Biso   1.000  H
  H10      1.0000 0.44400  0.17060  0.87890  Biso   1.000  H
  H11      1.0000 0.05600  0.32940  0.87890  Biso   1.000  H
  H12      1.0000 0.82940  0.94400  0.37890  Biso   1.000  H
  H13      1.0000 0.32940  0.44400  0.62110  Biso   1.000  H
  H14      1.0000 0.55600  0.82940  0.12110  Biso   1.000  H
  H15      1.0000 0.94400  0.67060  0.12110  Biso   1.000  H
  H16      1.0000 0.17060  0.05600  0.62110  Biso   1.000  H
  N17      1.0000 0.74175  0.41723  0.95090  Biso   1.000  N
  N18      1.0000 0.58277  0.24175  0.45090  Biso   1.000  N
  N19      1.0000 0.91723  0.25825  0.45090  Biso   1.000  N
  N20      1.0000 0.75825  0.08277  0.95090  Biso   1.000  N
  N21      1.0000 0.25825  0.58277  0.04910  Biso   1.000  N
  N22      1.0000 0.41723  0.75825  0.54910  Biso   1.000  N
  N23      1.0000 0.08277  0.74175  0.54910  Biso   1.000  N
  N24      1.0000 0.24175  0.91723  0.04910  Biso   1.000  N
  H17      1.0000 0.73940  0.38190  0.01630  Biso   1.000  H
  H18      1.0000 0.61810  0.23940  0.51630  Biso   1.000  H
  H19      1.0000 0.88190  0.26060  0.51630  Biso   1.000  H
  H20      1.0000 0.76060  0.11810  0.01630  Biso   1.000  H
  H21      1.0000 0.26060  0.61810  0.98370  Biso   1.000  H
  H22      1.0000 0.38190  0.76060  0.48370  Biso   1.000  H
  H23      1.0000 0.11810  0.73940  0.48370  Biso   1.000  H
  H24      1.0000 0.23940  0.88190  0.98370  Biso   1.000  H
  H25      1.0000 0.71930  0.41510  0.83590  Biso   1.000  H
  H26      1.0000 0.58490  0.21930  0.33590  Biso   1.000  H
  H27      1.0000 0.91510  0.28070  0.33590  Biso   1.000  H
  H28      1.0000 0.78070  0.08490  0.83590  Biso   1.000  H
  H29      1.0000 0.28070  0.58490  0.16410  Biso   1.000  H
  H30      1.0000 0.41510  0.78070  0.66410  Biso   1.000  H
  H31      1.0000 0.08490  0.71930  0.66410  Biso   1.000  H
  H32      1.0000 0.21930  0.91510  0.16410  Biso   1.000  H
  N25      1.0000 0.63149  0.58709  0.76760  Biso   1.000  N
  N26      1.0000 0.41291  0.13149  0.26760  Biso   1.000  N
  N27      1.0000 0.08709  0.36851  0.26760  Biso   1.000  N
  N28      1.0000 0.86851  0.91291  0.76760  Biso   1.000  N
  N29      1.0000 0.36851  0.41291  0.23240  Biso   1.000  N
  N30      1.0000 0.58709  0.86851  0.73240  Biso   1.000  N
  N31      1.0000 0.91291  0.63149  0.73240  Biso   1.000  N
  N32      1.0000 0.13149  0.08709  0.23240  Biso   1.000  N
  N33      1.0000 0.96379  0.37538  0.57250  Biso   1.000  N
  N34      1.0000 0.62462  0.46379  0.07250  Biso   1.000  N
  N35      1.0000 0.87538  0.03621  0.07250  Biso   1.000  N
  N36      1.0000 0.53621  0.12462  0.57250  Biso   1.000  N
  N37      1.0000 0.03621  0.62462  0.42750  Biso   1.000  N
  N38      1.0000 0.37538  0.53621  0.92750  Biso   1.000  N
  N39      1.0000 0.12462  0.96379  0.92750  Biso   1.000  N
  N40      1.0000 0.46379  0.87538  0.42750  Biso   1.000  N
  N41      1.0000 0.92965  0.45542  0.42120  Biso   1.000  N
  N42      1.0000 0.54458  0.42965  0.92120  Biso   1.000  N
  N43      1.0000 0.95542  0.07035  0.92120  Biso   1.000  N
  N44      1.0000 0.57035  0.04458  0.42120  Biso   1.000  N
  N45      1.0000 0.07035  0.54458  0.57880  Biso   1.000  N
  N46      1.0000 0.45542  0.57035  0.07880  Biso   1.000  N
  N47      1.0000 0.04458  0.92965  0.07880  Biso   1.000  N
  N48      1.0000 0.42965  0.95542  0.57880  Biso   1.000  N
  C1       1.0000 0.74730  0.59310  0.30860  Biso   1.000  C
  C2       1.0000 0.40690  0.24730  0.80860  Biso   1.000  C
  C3       1.0000 0.09310  0.25270  0.80860  Biso   1.000  C
  C4       1.0000 0.75270  0.90690  0.30860  Biso   1.000  C
  C5       1.0000 0.25270  0.40690  0.69140  Biso   1.000  C
  C6       1.0000 0.59310  0.75270  0.19140  Biso   1.000  C
  C7       1.0000 0.90690  0.74730  0.19140  Biso   1.000  C
  C8       1.0000 0.24730  0.09310  0.69140  Biso   1.000  C
  H33      1.0000 0.76170  0.58190  0.44470  Biso   1.000  H
  H34      1.0000 0.41810  0.26170  0.94470  Biso   1.000  H
  H35      1.0000 0.08190  0.23830  0.94470  Biso   1.000  H
  H36      1.0000 0.73830  0.91810  0.44470  Biso   1.000  H
  H37      1.0000 0.23830  0.41810  0.55530  Biso   1.000  H
  H38      1.0000 0.58190  0.73830  0.05530  Biso   1.000  H
  H39      1.0000 0.91810  0.76170  0.05530  Biso   1.000  H
  H40      1.0000 0.26170  0.08190  0.55530  Biso   1.000  H
  H41      1.0000 0.74010  0.63570  0.30810  Biso   1.000  H
  H42      1.0000 0.36430  0.24010  0.80810  Biso   1.000  H
  H43      1.0000 0.13570  0.25990  0.80810  Biso   1.000  H
  H44      1.0000 0.75990  0.86430  0.30810  Biso   1.000  H
  H45      1.0000 0.25990  0.36430  0.69190  Biso   1.000  H
  H46      1.0000 0.63570  0.75990  0.19190  Biso   1.000  H
  H47      1.0000 0.86430  0.74010  0.19190  Biso   1.000  H
  H48      1.0000 0.24010  0.13570  0.69190  Biso   1.000  H
  O1       1.0000 0.59991  0.57178  0.61800  Biso   1.000  O
  O2       1.0000 0.42822  0.09991  0.11800  Biso   1.000  O
  O3       1.0000 0.07178  0.40009  0.11800  Biso   1.000  O
  O4       1.0000 0.90009  0.92822  0.61800  Biso   1.000  O
  O5       1.0000 0.40009  0.42822  0.38200  Biso   1.000  O
  O6       1.0000 0.57178  0.90009  0.88200  Biso   1.000  O
  O7       1.0000 0.92822  0.59991  0.88200  Biso   1.000  O
  O8       1.0000 0.09991  0.07178  0.38200  Biso   1.000  O
  O9       1.0000 0.68504  0.57450  0.76530  Biso   1.000  O
  O10      1.0000 0.42550  0.18504  0.26530  Biso   1.000  O
  O11      1.0000 0.07450  0.31496  0.26530  Biso   1.000  O
  O12      1.0000 0.81496  0.92550  0.76530  Biso   1.000  O
  O13      1.0000 0.31496  0.42550  0.23470  Biso   1.000  O
  O14      1.0000 0.57450  0.81496  0.73470  Biso   1.000  O
  O15      1.0000 0.92550  0.68504  0.73470  Biso   1.000  O
  O16      1.0000 0.18504  0.07450  0.23470  Biso   1.000  O
  O17      1.0000 0.60947  0.61163  0.91870  Biso   1.000  O
  O18      1.0000 0.38837  0.10947  0.41870  Biso   1.000  O
  O19      1.0000 0.11163  0.39053  0.41870  Biso   1.000  O
  O20      1.0000 0.89053  0.88837  0.91870  Biso   1.000  O
  O21      1.0000 0.39053  0.38837  0.08130  Biso   1.000  O
  O22      1.0000 0.61163  0.89053  0.58130  Biso   1.000  O
  O23      1.0000 0.88837  0.60947  0.58130  Biso   1.000  O
  O24      1.0000 0.10947  0.11163  0.08130  Biso   1.000  O
  C9       1.0000 0.79280  0.57760  0.14710  Biso   1.000  C
  C10      1.0000 0.42240  0.29280  0.64710  Biso   1.000  C
  C11      1.0000 0.07760  0.20720  0.64710  Biso   1.000  C
  C12      1.0000 0.70720  0.92240  0.14710  Biso   1.000  C
  C13      1.0000 0.20720  0.42240  0.85290  Biso   1.000  C
  C14      1.0000 0.57760  0.70720  0.35290  Biso   1.000  C
  C15      1.0000 0.92240  0.79280  0.35290  Biso   1.000  C
  C16      1.0000 0.29280  0.07760  0.85290  Biso   1.000  C
  H49      1.0000 0.78160  0.59520  0.01570  Biso   1.000  H
  H50      1.0000 0.40480  0.28160  0.51570  Biso   1.000  H
  H51      1.0000 0.09520  0.21840  0.51570  Biso   1.000  H
  H52      1.0000 0.71840  0.90480  0.01570  Biso   1.000  H
  H53      1.0000 0.21840  0.40480  0.98430  Biso   1.000  H
  H54      1.0000 0.59520  0.71840  0.48430  Biso   1.000  H
  H55      1.0000 0.90480  0.78160  0.48430  Biso   1.000  H
  H56      1.0000 0.28160  0.09520  0.98430  Biso   1.000  H
  H57      1.0000 0.83120  0.59340  0.18690  Biso   1.000  H
  H58      1.0000 0.40660  0.33120  0.68690  Biso   1.000  H
  H59      1.0000 0.09340  0.16880  0.68690  Biso   1.000  H
  H60      1.0000 0.66880  0.90660  0.18690  Biso   1.000  H
  H61      1.0000 0.16880  0.40660  0.81310  Biso   1.000  H
  H62      1.0000 0.59340  0.66880  0.31310  Biso   1.000  H
  H63      1.0000 0.90660  0.83120  0.31310  Biso   1.000  H
  H64      1.0000 0.33120  0.09340  0.81310  Biso   1.000  H
  C17      1.0000 0.81450  0.49420  0.91600  Biso   1.000  C
  C18      1.0000 0.50580  0.31450  0.41600  Biso   1.000  C
  C19      1.0000 0.99420  0.18550  0.41600  Biso   1.000  C
  C20      1.0000 0.68550  0.00580  0.91600  Biso   1.000  C
  C21      1.0000 0.18550  0.50580  0.08400  Biso   1.000  C
  C22      1.0000 0.49420  0.68550  0.58400  Biso   1.000  C
  C23      1.0000 0.00580  0.81450  0.58400  Biso   1.000  C
  C24      1.0000 0.31450  0.99420  0.08400  Biso   1.000  C
  H65      1.0000 0.85630  0.50320  0.89400  Biso   1.000  H
  H66      1.0000 0.49680  0.35630  0.39400  Biso   1.000  H
  H67      1.0000 0.00320  0.14370  0.39400  Biso   1.000  H
  H68      1.0000 0.64370  0.99680  0.89400  Biso   1.000  H
  H69      1.0000 0.14370  0.49680  0.10600  Biso   1.000  H
  H70      1.0000 0.50320  0.64370  0.60600  Biso   1.000  H
  H71      1.0000 0.99680  0.85630  0.60600  Biso   1.000  H
  H72      1.0000 0.35630  0.00320  0.10600  Biso   1.000  H
  H73      1.0000 0.79140  0.51580  0.81390  Biso   1.000  H
  H74      1.0000 0.48420  0.29140  0.31390  Biso   1.000  H
  H75      1.0000 0.01580  0.20860  0.31390  Biso   1.000  H
  H76      1.0000 0.70860  0.98420  0.81390  Biso   1.000  H
  H77      1.0000 0.20860  0.48420  0.18610  Biso   1.000  H
  H78      1.0000 0.51580  0.70860  0.68610  Biso   1.000  H
  H79      1.0000 0.98420  0.79140  0.68610  Biso   1.000  H
  H80      1.0000 0.29140  0.01580  0.18610  Biso   1.000  H
  C25      1.0000 0.80440  0.42900  0.89230  Biso   1.000  C
  C26      1.0000 0.57100  0.30440  0.39230  Biso   1.000  C
  C27      1.0000 0.92900  0.19560  0.39230  Biso   1.000  C
  C28      1.0000 0.69560  0.07100  0.89230  Biso   1.000  C
  C29      1.0000 0.19560  0.57100  0.10770  Biso   1.000  C
  C30      1.0000 0.42900  0.69560  0.60770  Biso   1.000  C
  C31      1.0000 0.07100  0.80440  0.60770  Biso   1.000  C
  C32      1.0000 0.30440  0.92900  0.10770  Biso   1.000  C
  H81      1.0000 0.81140  0.41690  0.75020  Biso   1.000  H
  H82      1.0000 0.58310  0.31140  0.25020  Biso   1.000  H
  H83      1.0000 0.91690  0.18860  0.25020  Biso   1.000  H
  H84      1.0000 0.68860  0.08310  0.75020  Biso   1.000  H
  H85      1.0000 0.18860  0.58310  0.24980  Biso   1.000  H
  H86      1.0000 0.41690  0.68860  0.74980  Biso   1.000  H
  H87      1.0000 0.08310  0.81140  0.74980  Biso   1.000  H
  H88      1.0000 0.31140  0.91690  0.24980  Biso   1.000  H
  H89      1.0000 0.83120  0.40690  0.98150  Biso   1.000  H
  H90      1.0000 0.59310  0.33120  0.48150  Biso   1.000  H
  H91      1.0000 0.90690  0.16880  0.48150  Biso   1.000  H
  H92      1.0000 0.66880  0.09310  0.98150  Biso   1.000  H
  H93      1.0000 0.16880  0.59310  0.01850  Biso   1.000  H
  H94      1.0000 0.40690  0.66880  0.51850  Biso   1.000  H
  H95      1.0000 0.09310  0.83120  0.51850  Biso   1.000  H
  H96      1.0000 0.33120  0.90690  0.01850  Biso   1.000  H
  C33      1.0000 0.83326  0.48505  0.28960  Biso   1.000  C
  C34      1.0000 0.51495  0.33326  0.78960  Biso   1.000  C
  C35      1.0000 0.98505  0.16674  0.78960  Biso   1.000  C
  C36      1.0000 0.66674  0.01495  0.28960  Biso   1.000  C
  C37      1.0000 0.16674  0.51495  0.71040  Biso   1.000  C
  C38      1.0000 0.48505  0.66674  0.21040  Biso   1.000  C
  C39      1.0000 0.01495  0.83326  0.21040  Biso   1.000  C
  C40      1.0000 0.33326  0.98505  0.71040  Biso   1.000  C
  H97      1.0000 0.82390  0.44300  0.29570  Biso   1.000  H
  H98      1.0000 0.55700  0.32390  0.79570  Biso   1.000  H
  H99      1.0000 0.94300  0.17610  0.79570  Biso   1.000  H
  H100     1.0000 0.67610  0.05700  0.29570  Biso   1.000  H
  H101     1.0000 0.17610  0.55700  0.70430  Biso   1.000  H
  H102     1.0000 0.44300  0.67610  0.20430  Biso   1.000  H
  H103     1.0000 0.05700  0.82390  0.20430  Biso   1.000  H
  H104     1.0000 0.32390  0.94300  0.70430  Biso   1.000  H
  H105     1.0000 0.82190  0.50240  0.42120  Biso   1.000  H
  H106     1.0000 0.49760  0.32190  0.92120  Biso   1.000  H
  H107     1.0000 0.00240  0.17810  0.92120  Biso   1.000  H
  H108     1.0000 0.67810  0.99760  0.42120  Biso   1.000  H
  H109     1.0000 0.17810  0.49760  0.57880  Biso   1.000  H
  H110     1.0000 0.50240  0.67810  0.07880  Biso   1.000  H
  H111     1.0000 0.99760  0.82190  0.07880  Biso   1.000  H
  H112     1.0000 0.32190  0.00240  0.57880  Biso   1.000  H
  C41      1.0000 0.90072  0.49180  0.26400  Biso   1.000  C
  C42      1.0000 0.50820  0.40072  0.76400  Biso   1.000  C
  C43      1.0000 0.99180  0.09928  0.76400  Biso   1.000  C
  C44      1.0000 0.59928  0.00820  0.26400  Biso   1.000  C
  C45      1.0000 0.09928  0.50820  0.73600  Biso   1.000  C
  C46      1.0000 0.49180  0.59928  0.23600  Biso   1.000  C
  C47      1.0000 0.00820  0.90072  0.23600  Biso   1.000  C
  C48      1.0000 0.40072  0.99180  0.73600  Biso   1.000  C
  H113     1.0000 0.91270  0.47880  0.12700  Biso   1.000  H
  H114     1.0000 0.52120  0.41270  0.62700  Biso   1.000  H
  H115     1.0000 0.97880  0.08730  0.62700  Biso   1.000  H
  H116     1.0000 0.58730  0.02120  0.12700  Biso   1.000  H
  H117     1.0000 0.08730  0.52120  0.87300  Biso   1.000  H
  H118     1.0000 0.47880  0.58730  0.37300  Biso   1.000  H
  H119     1.0000 0.02120  0.91270  0.37300  Biso   1.000  H
  H120     1.0000 0.41270  0.97880  0.87300  Biso   1.000  H
  H121     1.0000 0.91210  0.53320  0.28060  Biso   1.000  H
  H122     1.0000 0.46680  0.41210  0.78060  Biso   1.000  H
  H123     1.0000 0.03320  0.08790  0.78060  Biso   1.000  H
  H124     1.0000 0.58790  0.96680  0.28060  Biso   1.000  H
  H125     1.0000 0.08790  0.46680  0.71940  Biso   1.000  H
  H126     1.0000 0.53320  0.58790  0.21940  Biso   1.000  H
  H127     1.0000 0.96680  0.91210  0.21940  Biso   1.000  H
  H128     1.0000 0.41210  0.03320  0.71940  Biso   1.000  H
  C49      1.0000 0.94222  0.39750  0.40130  Biso   1.000  C
  C50      1.0000 0.60250  0.44222  0.90130  Biso   1.000  C
  C51      1.0000 0.89750  0.05778  0.90130  Biso   1.000  C
  C52      1.0000 0.55778  0.10250  0.40130  Biso   1.000  C
  C53      1.0000 0.05778  0.60250  0.59870  Biso   1.000  C
  C54      1.0000 0.39750  0.55778  0.09870  Biso   1.000  C
  C55      1.0000 0.10250  0.94222  0.09870  Biso   1.000  C
  C56      1.0000 0.44222  0.89750  0.59870  Biso   1.000  C
  H129     1.0000 0.93630  0.37570  0.28070  Biso   1.000  H
  H130     1.0000 0.62430  0.43630  0.78070  Biso   1.000  H
  H131     1.0000 0.87570  0.06370  0.78070  Biso   1.000  H
  H132     1.0000 0.56370  0.12430  0.28070  Biso   1.000  H
  H133     1.0000 0.06370  0.62430  0.71930  Biso   1.000  H
  H134     1.0000 0.37570  0.56370  0.21930  Biso   1.000  H
  H135     1.0000 0.12430  0.93630  0.21930  Biso   1.000  H
  H136     1.0000 0.43630  0.87570  0.71930  Biso   1.000  H
  C57      1.0000 0.96518  0.42176  0.70970  Biso   1.000  C
  C58      1.0000 0.57824  0.46518  0.20970  Biso   1.000  C
  C59      1.0000 0.92176  0.03482  0.20970  Biso   1.000  C
  C60      1.0000 0.53482  0.07824  0.70970  Biso   1.000  C
  C61      1.0000 0.03482  0.57824  0.29030  Biso   1.000  C
  C62      1.0000 0.42176  0.53482  0.79030  Biso   1.000  C
  C63      1.0000 0.07824  0.96518  0.79030  Biso   1.000  C
  C64      1.0000 0.46518  0.92176  0.29030  Biso   1.000  C
  H137     1.0000 0.97840  0.41940  0.84580  Biso   1.000  H
  H138     1.0000 0.58060  0.47840  0.34580  Biso   1.000  H
  H139     1.0000 0.91940  0.02160  0.34580  Biso   1.000  H
  H140     1.0000 0.52160  0.08060  0.84580  Biso   1.000  H
  H141     1.0000 0.02160  0.58060  0.15420  Biso   1.000  H
  H142     1.0000 0.41940  0.52160  0.65420  Biso   1.000  H
  H143     1.0000 0.08060  0.97840  0.65420  Biso   1.000  H
  H144     1.0000 0.47840  0.91940  0.15420  Biso   1.000  H
  C65      1.0000 0.94452  0.47126  0.61810  Biso   1.000  C
  C66      1.0000 0.52874  0.44452  0.11810  Biso   1.000  C
  C67      1.0000 0.97126  0.05548  0.11810  Biso   1.000  C
  C68      1.0000 0.55548  0.02874  0.61810  Biso   1.000  C
  C69      1.0000 0.05548  0.52874  0.38190  Biso   1.000  C
  C70      1.0000 0.47126  0.55548  0.88190  Biso   1.000  C
  C71      1.0000 0.02874  0.94452  0.88190  Biso   1.000  C
  C72      1.0000 0.44452  0.97126  0.38190  Biso   1.000  C
  H145     1.0000 0.94110  0.50880  0.67720  Biso   1.000  H
  H146     1.0000 0.49120  0.44110  0.17720  Biso   1.000  H
  H147     1.0000 0.00880  0.05890  0.17720  Biso   1.000  H
  H148     1.0000 0.55890  0.99120  0.67720  Biso   1.000  H
  H149     1.0000 0.05890  0.49120  0.32280  Biso   1.000  H
  H150     1.0000 0.50880  0.55890  0.82280  Biso   1.000  H
  H151     1.0000 0.99120  0.94110  0.82280  Biso   1.000  H
  H152     1.0000 0.44110  0.00880  0.32280  Biso   1.000  H
  O25      1.0000 0.69410  0.28310  0.96000  Biso   1.000  O
  O26      1.0000 0.71690  0.19410  0.46000  Biso   1.000  O
  O27      1.0000 0.78310  0.30590  0.46000  Biso   1.000  O
  O28      1.0000 0.80590  0.21690  0.96000  Biso   1.000  O
  O29      1.0000 0.30590  0.71690  0.04000  Biso   1.000  O
  O30      1.0000 0.28310  0.80590  0.54000  Biso   1.000  O
  O31      1.0000 0.21690  0.69410  0.54000  Biso   1.000  O
  O32      1.0000 0.19410  0.78310  0.04000  Biso   1.000  O
  O33      1.0000 0.71800  0.20780  0.03600  Biso   1.000  O
  O34      1.0000 0.79220  0.21800  0.53600  Biso   1.000  O
  O35      1.0000 0.70780  0.28200  0.53600  Biso   1.000  O
  O36      1.0000 0.78200  0.29220  0.03600  Biso   1.000  O
  O37      1.0000 0.28200  0.79220  0.96400  Biso   1.000  O
  O38      1.0000 0.20780  0.78200  0.46400  Biso   1.000  O
  O39      1.0000 0.29220  0.71800  0.46400  Biso   1.000  O
  O40      1.0000 0.21800  0.70780  0.96400  Biso   1.000  O
  O41      1.0000 0.75000  0.75000  0.64500  Biso   1.000  O
  O42      1.0000 0.25000  0.25000  0.14500  Biso   1.000  O
  O43      1.0000 0.25000  0.25000  0.35500  Biso   1.000  O
  O44      1.0000 0.75000  0.75000  0.85500  Biso   1.000  O
