data_image0
_cell_length_a       16.354
_cell_length_b       10.4444
_cell_length_c       24.6627
_cell_angle_alpha    90
_cell_angle_beta     112.921
_cell_angle_gamma    90

_symmetry_space_group_name_H-M    "P 1"
_symmetry_int_tables_number       1

loop_
  _symmetry_equiv_pos_as_xyz
  'x, y, z'

loop_
  _atom_site_label
  _atom_site_occupancy
  _atom_site_fract_x
  _atom_site_fract_y
  _atom_site_fract_z
  _atom_site_thermal_displace_type
  _atom_site_B_iso_or_equiv
  _atom_site_type_symbol
  Cu1      1.0000 0.87914  0.31071  0.18059  Biso   1.000  Cu
  Cu2      1.0000 0.37914  0.81071  0.18059  Biso   1.000  Cu
  Cu3      1.0000 0.12086  0.31071  0.31941  Biso   1.000  Cu
  Cu4      1.0000 0.62086  0.81071  0.31941  Biso   1.000  Cu
  Cu5      1.0000 0.12086  0.68929  0.81941  Biso   1.000  Cu
  Cu6      1.0000 0.62086  0.18929  0.81941  Biso   1.000  Cu
  Cu7      1.0000 0.87914  0.68929  0.68059  Biso   1.000  Cu
  Cu8      1.0000 0.37914  0.18929  0.68059  Biso   1.000  Cu
  Mn1      1.0000 0.00000  0.08143  0.25000  Biso   1.000  Mn
  Mn2      1.0000 0.50000  0.58143  0.25000  Biso   1.000  Mn
  Mn3      1.0000 0.00000  0.91857  0.75000  Biso   1.000  Mn
  Mn4      1.0000 0.50000  0.41857  0.75000  Biso   1.000  Mn
  N1       1.0000 0.07130  0.93240  0.22520  Biso   1.000  N
  N2       1.0000 0.57130  0.43240  0.22520  Biso   1.000  N
  N3       1.0000 0.92870  0.93240  0.27480  Biso   1.000  N
  N4       1.0000 0.42870  0.43240  0.27480  Biso   1.000  N
  N5       1.0000 0.92870  0.06760  0.77480  Biso   1.000  N
  N6       1.0000 0.42870  0.56760  0.77480  Biso   1.000  N
  N7       1.0000 0.07130  0.06760  0.72520  Biso   1.000  N
  N8       1.0000 0.57130  0.56760  0.72520  Biso   1.000  N
  N9       1.0000 0.10830  0.76510  0.17020  Biso   1.000  N
  N10      1.0000 0.60830  0.26510  0.17020  Biso   1.000  N
  N11      1.0000 0.89170  0.76510  0.32980  Biso   1.000  N
  N12      1.0000 0.39170  0.26510  0.32980  Biso   1.000  N
  N13      1.0000 0.89170  0.23490  0.82980  Biso   1.000  N
  N14      1.0000 0.39170  0.73490  0.82980  Biso   1.000  N
  N15      1.0000 0.10830  0.23490  0.67020  Biso   1.000  N
  N16      1.0000 0.60830  0.73490  0.67020  Biso   1.000  N
  N17      1.0000 0.22830  0.76680  0.13370  Biso   1.000  N
  N18      1.0000 0.72830  0.26680  0.13370  Biso   1.000  N
  N19      1.0000 0.77170  0.76680  0.36630  Biso   1.000  N
  N20      1.0000 0.27170  0.26680  0.36630  Biso   1.000  N
  N21      1.0000 0.77170  0.23320  0.86630  Biso   1.000  N
  N22      1.0000 0.27170  0.73320  0.86630  Biso   1.000  N
  N23      1.0000 0.22830  0.23320  0.63370  Biso   1.000  N
  N24      1.0000 0.72830  0.73320  0.63370  Biso   1.000  N
  C1       1.0000 0.09130  0.85710  0.19890  Biso   1.000  C
  C2       1.0000 0.59130  0.35710  0.19890  Biso   1.000  C
  C3       1.0000 0.90870  0.85710  0.30110  Biso   1.000  C
  C4       1.0000 0.40870  0.35710  0.30110  Biso   1.000  C
  C5       1.0000 0.90870  0.14290  0.80110  Biso   1.000  C
  C6       1.0000 0.40870  0.64290  0.80110  Biso   1.000  C
  C7       1.0000 0.09130  0.14290  0.69890  Biso   1.000  C
  C8       1.0000 0.59130  0.64290  0.69890  Biso   1.000  C
  C9       1.0000 0.17220  0.77300  0.15100  Biso   1.000  C
  C10      1.0000 0.67220  0.27300  0.15100  Biso   1.000  C
  C11      1.0000 0.82780  0.77300  0.34900  Biso   1.000  C
  C12      1.0000 0.32780  0.27300  0.34900  Biso   1.000  C
  C13      1.0000 0.82780  0.22700  0.84900  Biso   1.000  C
  C14      1.0000 0.32780  0.72700  0.84900  Biso   1.000  C
  C15      1.0000 0.17220  0.22700  0.65100  Biso   1.000  C
  C16      1.0000 0.67220  0.72700  0.65100  Biso   1.000  C
  O1       1.0000 0.91380  0.14220  0.16440  Biso   1.000  O
  O2       1.0000 0.41380  0.64220  0.16440  Biso   1.000  O
  O3       1.0000 0.08620  0.14220  0.33560  Biso   1.000  O
  O4       1.0000 0.58620  0.64220  0.33560  Biso   1.000  O
  O5       1.0000 0.08620  0.85780  0.83560  Biso   1.000  O
  O6       1.0000 0.58620  0.35780  0.83560  Biso   1.000  O
  O7       1.0000 0.91380  0.85780  0.66440  Biso   1.000  O
  O8       1.0000 0.41380  0.35780  0.66440  Biso   1.000  O
  C17      1.0000 0.88370  0.09240  0.11140  Biso   1.000  C
  C18      1.0000 0.38370  0.59240  0.11140  Biso   1.000  C
  C19      1.0000 0.11630  0.09240  0.38860  Biso   1.000  C
  C20      1.0000 0.61630  0.59240  0.38860  Biso   1.000  C
  C21      1.0000 0.11630  0.90760  0.88860  Biso   1.000  C
  C22      1.0000 0.61630  0.40760  0.88860  Biso   1.000  C
  C23      1.0000 0.88370  0.90760  0.61140  Biso   1.000  C
  C24      1.0000 0.38370  0.40760  0.61140  Biso   1.000  C
  C25      1.0000 0.87130  0.96110  0.10480  Biso   1.000  C
  C26      1.0000 0.37130  0.46110  0.10480  Biso   1.000  C
  C27      1.0000 0.12870  0.96110  0.39520  Biso   1.000  C
  C28      1.0000 0.62870  0.46110  0.39520  Biso   1.000  C
  C29      1.0000 0.12870  0.03890  0.89520  Biso   1.000  C
  C30      1.0000 0.62870  0.53890  0.89520  Biso   1.000  C
  C31      1.0000 0.87130  0.03890  0.60480  Biso   1.000  C
  C32      1.0000 0.37130  0.53890  0.60480  Biso   1.000  C
  H1       1.0000 0.88497  0.91072  0.13824  Biso   1.000  H
  H2       1.0000 0.38497  0.41072  0.13824  Biso   1.000  H
  H3       1.0000 0.11503  0.91072  0.36176  Biso   1.000  H
  H4       1.0000 0.61503  0.41072  0.36176  Biso   1.000  H
  H5       1.0000 0.11503  0.08928  0.86176  Biso   1.000  H
  H6       1.0000 0.61503  0.58928  0.86176  Biso   1.000  H
  H7       1.0000 0.88497  0.08928  0.63824  Biso   1.000  H
  H8       1.0000 0.38497  0.58928  0.63824  Biso   1.000  H
  C33      1.0000 0.83950  0.90290  0.05070  Biso   1.000  C
  C34      1.0000 0.33950  0.40290  0.05070  Biso   1.000  C
  C35      1.0000 0.16050  0.90290  0.44930  Biso   1.000  C
  C36      1.0000 0.66050  0.40290  0.44930  Biso   1.000  C
  C37      1.0000 0.16050  0.09710  0.94930  Biso   1.000  C
  C38      1.0000 0.66050  0.59710  0.94930  Biso   1.000  C
  C39      1.0000 0.83950  0.09710  0.55070  Biso   1.000  C
  C40      1.0000 0.33950  0.59710  0.55070  Biso   1.000  C
  H9       1.0000 0.83220  0.81453  0.04706  Biso   1.000  H
  H10      1.0000 0.33220  0.31453  0.04706  Biso   1.000  H
  H11      1.0000 0.16780  0.81453  0.45294  Biso   1.000  H
  H12      1.0000 0.66780  0.31453  0.45294  Biso   1.000  H
  H13      1.0000 0.16780  0.18547  0.95294  Biso   1.000  H
  H14      1.0000 0.66780  0.68547  0.95294  Biso   1.000  H
  H15      1.0000 0.83220  0.18547  0.54706  Biso   1.000  H
  H16      1.0000 0.33220  0.68547  0.54706  Biso   1.000  H
  C41      1.0000 0.81830  0.98200  0.00060  Biso   1.000  C
  C42      1.0000 0.31830  0.48200  0.00060  Biso   1.000  C
  C43      1.0000 0.18170  0.98200  0.49940  Biso   1.000  C
  C44      1.0000 0.68170  0.48200  0.49940  Biso   1.000  C
  C45      1.0000 0.18170  0.01800  0.99940  Biso   1.000  C
  C46      1.0000 0.68170  0.51800  0.99940  Biso   1.000  C
  C47      1.0000 0.81830  0.01800  0.50060  Biso   1.000  C
  C48      1.0000 0.31830  0.51800  0.50060  Biso   1.000  C
  H17      1.0000 0.79401  0.94671  0.96313  Biso   1.000  H
  H18      1.0000 0.29401  0.44671  0.96313  Biso   1.000  H
  H19      1.0000 0.20599  0.94671  0.53687  Biso   1.000  H
  H20      1.0000 0.70599  0.44671  0.53687  Biso   1.000  H
  H21      1.0000 0.20599  0.05329  0.03687  Biso   1.000  H
  H22      1.0000 0.70599  0.55329  0.03687  Biso   1.000  H
  H23      1.0000 0.79401  0.05329  0.46313  Biso   1.000  H
  H24      1.0000 0.29401  0.55329  0.46313  Biso   1.000  H
  C49      1.0000 0.83310  0.10900  0.00690  Biso   1.000  C
  C50      1.0000 0.33310  0.60900  0.00690  Biso   1.000  C
  C51      1.0000 0.16690  0.10900  0.49310  Biso   1.000  C
  C52      1.0000 0.66690  0.60900  0.49310  Biso   1.000  C
  C53      1.0000 0.16690  0.89100  0.99310  Biso   1.000  C
  C54      1.0000 0.66690  0.39100  0.99310  Biso   1.000  C
  C55      1.0000 0.83310  0.89100  0.50690  Biso   1.000  C
  C56      1.0000 0.33310  0.39100  0.50690  Biso   1.000  C
  H25      1.0000 0.81995  0.15749  0.97291  Biso   1.000  H
  H26      1.0000 0.31995  0.65749  0.97291  Biso   1.000  H
  H27      1.0000 0.18005  0.15749  0.52709  Biso   1.000  H
  H28      1.0000 0.68005  0.65749  0.52709  Biso   1.000  H
  H29      1.0000 0.18005  0.84251  0.02709  Biso   1.000  H
  H30      1.0000 0.68005  0.34251  0.02709  Biso   1.000  H
  H31      1.0000 0.81995  0.84251  0.47291  Biso   1.000  H
  H32      1.0000 0.31995  0.34251  0.47291  Biso   1.000  H
  C57      1.0000 0.86680  0.17200  0.06060  Biso   1.000  C
  C58      1.0000 0.36680  0.67200  0.06060  Biso   1.000  C
  C59      1.0000 0.13320  0.17200  0.43940  Biso   1.000  C
  C60      1.0000 0.63320  0.67200  0.43940  Biso   1.000  C
  C61      1.0000 0.13320  0.82800  0.93940  Biso   1.000  C
  C62      1.0000 0.63320  0.32800  0.93940  Biso   1.000  C
  C63      1.0000 0.86680  0.82800  0.56060  Biso   1.000  C
  C64      1.0000 0.36680  0.32800  0.56060  Biso   1.000  C
  C65      1.0000 0.88780  0.31070  0.06440  Biso   1.000  C
  C66      1.0000 0.38780  0.81070  0.06440  Biso   1.000  C
  C67      1.0000 0.11220  0.31070  0.43560  Biso   1.000  C
  C68      1.0000 0.61220  0.81070  0.43560  Biso   1.000  C
  C69      1.0000 0.11220  0.68930  0.93560  Biso   1.000  C
  C70      1.0000 0.61220  0.18930  0.93560  Biso   1.000  C
  C71      1.0000 0.88780  0.68930  0.56440  Biso   1.000  C
  C72      1.0000 0.38780  0.18930  0.56440  Biso   1.000  C
  C73      1.0000 0.90550  0.36620  0.01260  Biso   1.000  C
  C74      1.0000 0.40550  0.86620  0.01260  Biso   1.000  C
  C75      1.0000 0.09450  0.36620  0.48740  Biso   1.000  C
  C76      1.0000 0.59450  0.86620  0.48740  Biso   1.000  C
  C77      1.0000 0.09450  0.63380  0.98740  Biso   1.000  C
  C78      1.0000 0.59450  0.13380  0.98740  Biso   1.000  C
  C79      1.0000 0.90550  0.63380  0.51260  Biso   1.000  C
  C80      1.0000 0.40550  0.13380  0.51260  Biso   1.000  C
  H33      1.0000 0.85243  0.40592  0.98537  Biso   1.000  H
  H34      1.0000 0.35243  0.90592  0.98537  Biso   1.000  H
  H35      1.0000 0.14757  0.40592  0.51463  Biso   1.000  H
  H36      1.0000 0.64757  0.90592  0.51463  Biso   1.000  H
  H37      1.0000 0.14757  0.59408  0.01463  Biso   1.000  H
  H38      1.0000 0.64757  0.09408  0.01463  Biso   1.000  H
  H39      1.0000 0.85243  0.59408  0.48537  Biso   1.000  H
  H40      1.0000 0.35243  0.09408  0.48537  Biso   1.000  H
  H41      1.0000 0.92312  0.29866  0.99300  Biso   1.000  H
  H42      1.0000 0.42312  0.79866  0.99300  Biso   1.000  H
  H43      1.0000 0.07688  0.29866  0.50700  Biso   1.000  H
  H44      1.0000 0.57688  0.79866  0.50700  Biso   1.000  H
  H45      1.0000 0.07688  0.70134  0.00700  Biso   1.000  H
  H46      1.0000 0.57688  0.20134  0.00700  Biso   1.000  H
  H47      1.0000 0.92312  0.70134  0.49300  Biso   1.000  H
  H48      1.0000 0.42312  0.20134  0.49300  Biso   1.000  H
  H49      1.0000 0.95202  0.42877  0.02680  Biso   1.000  H
  H50      1.0000 0.45202  0.92877  0.02680  Biso   1.000  H
  H51      1.0000 0.04798  0.42877  0.47320  Biso   1.000  H
  H52      1.0000 0.54798  0.92877  0.47320  Biso   1.000  H
  H53      1.0000 0.04798  0.57123  0.97320  Biso   1.000  H
  H54      1.0000 0.54798  0.07123  0.97320  Biso   1.000  H
  H55      1.0000 0.95202  0.57123  0.52680  Biso   1.000  H
  H56      1.0000 0.45202  0.07123  0.52680  Biso   1.000  H
  N25      1.0000 0.89800  0.37870  0.11000  Biso   1.000  N
  N26      1.0000 0.39800  0.87870  0.11000  Biso   1.000  N
  N27      1.0000 0.10200  0.37870  0.39000  Biso   1.000  N
  N28      1.0000 0.60200  0.87870  0.39000  Biso   1.000  N
  N29      1.0000 0.10200  0.62130  0.89000  Biso   1.000  N
  N30      1.0000 0.60200  0.12130  0.89000  Biso   1.000  N
  N31      1.0000 0.89800  0.62130  0.61000  Biso   1.000  N
  N32      1.0000 0.39800  0.12130  0.61000  Biso   1.000  N
  C81      1.0000 0.92320  0.51580  0.10730  Biso   1.000  C
  C82      1.0000 0.42320  0.01580  0.10730  Biso   1.000  C
  C83      1.0000 0.07680  0.51580  0.39270  Biso   1.000  C
  C84      1.0000 0.57680  0.01580  0.39270  Biso   1.000  C
  C85      1.0000 0.07680  0.48420  0.89270  Biso   1.000  C
  C86      1.0000 0.57680  0.98420  0.89270  Biso   1.000  C
  C87      1.0000 0.92320  0.48420  0.60730  Biso   1.000  C
  C88      1.0000 0.42320  0.98420  0.60730  Biso   1.000  C
  H57      1.0000 0.98199  0.51914  0.10649  Biso   1.000  H
  H58      1.0000 0.48199  0.01914  0.10649  Biso   1.000  H
  H59      1.0000 0.01801  0.51914  0.39351  Biso   1.000  H
  H60      1.0000 0.51801  0.01914  0.39351  Biso   1.000  H
  H61      1.0000 0.01801  0.48086  0.89351  Biso   1.000  H
  H62      1.0000 0.51801  0.98086  0.89351  Biso   1.000  H
  H63      1.0000 0.98199  0.48086  0.60649  Biso   1.000  H
  H64      1.0000 0.48199  0.98086  0.60649  Biso   1.000  H
  H65      1.0000 0.88193  0.55380  0.07108  Biso   1.000  H
  H66      1.0000 0.38193  0.05380  0.07108  Biso   1.000  H
  H67      1.0000 0.11807  0.55380  0.42892  Biso   1.000  H
  H68      1.0000 0.61807  0.05380  0.42892  Biso   1.000  H
  H69      1.0000 0.11807  0.44620  0.92892  Biso   1.000  H
  H70      1.0000 0.61807  0.94620  0.92892  Biso   1.000  H
  H71      1.0000 0.88193  0.44620  0.57108  Biso   1.000  H
  H72      1.0000 0.38193  0.94620  0.57108  Biso   1.000  H
  C89      1.0000 0.92280  0.59080  0.15730  Biso   1.000  C
  C90      1.0000 0.42280  0.09080  0.15730  Biso   1.000  C
  C91      1.0000 0.07720  0.59080  0.34270  Biso   1.000  C
  C92      1.0000 0.57720  0.09080  0.34270  Biso   1.000  C
  C93      1.0000 0.07720  0.40920  0.84270  Biso   1.000  C
  C94      1.0000 0.57720  0.90920  0.84270  Biso   1.000  C
  C95      1.0000 0.92280  0.40920  0.65730  Biso   1.000  C
  C96      1.0000 0.42280  0.90920  0.65730  Biso   1.000  C
  H73      1.0000 0.93204  0.67973  0.14991  Biso   1.000  H
  H74      1.0000 0.43204  0.17973  0.14991  Biso   1.000  H
  H75      1.0000 0.06796  0.67973  0.35009  Biso   1.000  H
  H76      1.0000 0.56796  0.17973  0.35009  Biso   1.000  H
  H77      1.0000 0.06796  0.32027  0.85009  Biso   1.000  H
  H78      1.0000 0.56796  0.82027  0.85009  Biso   1.000  H
  H79      1.0000 0.93204  0.32027  0.64991  Biso   1.000  H
  H80      1.0000 0.43204  0.82027  0.64991  Biso   1.000  H
  H81      1.0000 0.97386  0.56445  0.19175  Biso   1.000  H
  H82      1.0000 0.47386  0.06445  0.19175  Biso   1.000  H
  H83      1.0000 0.02614  0.56445  0.30825  Biso   1.000  H
  H84      1.0000 0.52614  0.06445  0.30825  Biso   1.000  H
  H85      1.0000 0.02614  0.43555  0.80825  Biso   1.000  H
  H86      1.0000 0.52614  0.93555  0.80825  Biso   1.000  H
  H87      1.0000 0.97386  0.43555  0.69175  Biso   1.000  H
  H88      1.0000 0.47386  0.93555  0.69175  Biso   1.000  H
  C97      1.0000 0.84140  0.58490  0.17330  Biso   1.000  C
  C98      1.0000 0.34140  0.08490  0.17330  Biso   1.000  C
  C99      1.0000 0.15860  0.58490  0.32670  Biso   1.000  C
  C100     1.0000 0.65860  0.08490  0.32670  Biso   1.000  C
  C101     1.0000 0.15860  0.41510  0.82670  Biso   1.000  C
  C102     1.0000 0.65860  0.91510  0.82670  Biso   1.000  C
  C103     1.0000 0.84140  0.41510  0.67330  Biso   1.000  C
  C104     1.0000 0.34140  0.91510  0.67330  Biso   1.000  C
  H89      1.0000 0.83876  0.66168  0.19473  Biso   1.000  H
  H90      1.0000 0.33876  0.16168  0.19473  Biso   1.000  H
  H91      1.0000 0.16124  0.66168  0.30527  Biso   1.000  H
  H92      1.0000 0.66124  0.16168  0.30527  Biso   1.000  H
  H93      1.0000 0.16124  0.33832  0.80527  Biso   1.000  H
  H94      1.0000 0.66124  0.83832  0.80527  Biso   1.000  H
  H95      1.0000 0.83876  0.33832  0.69473  Biso   1.000  H
  H96      1.0000 0.33876  0.83832  0.69473  Biso   1.000  H
  H97      1.0000 0.78795  0.58120  0.13766  Biso   1.000  H
  H98      1.0000 0.28795  0.08120  0.13766  Biso   1.000  H
  H99      1.0000 0.21205  0.58120  0.36234  Biso   1.000  H
  H100     1.0000 0.71205  0.08120  0.36234  Biso   1.000  H
  H101     1.0000 0.21205  0.41880  0.86234  Biso   1.000  H
  H102     1.0000 0.71205  0.91880  0.86234  Biso   1.000  H
  H103     1.0000 0.78795  0.41880  0.63766  Biso   1.000  H
  H104     1.0000 0.28795  0.91880  0.63766  Biso   1.000  H
  N33      1.0000 0.84590  0.47430  0.20890  Biso   1.000  N
  N34      1.0000 0.34590  0.97430  0.20890  Biso   1.000  N
  N35      1.0000 0.15410  0.47430  0.29110  Biso   1.000  N
  N36      1.0000 0.65410  0.97430  0.29110  Biso   1.000  N
  N37      1.0000 0.15410  0.52570  0.79110  Biso   1.000  N
  N38      1.0000 0.65410  0.02570  0.79110  Biso   1.000  N
  N39      1.0000 0.84590  0.52570  0.70890  Biso   1.000  N
  N40      1.0000 0.34590  0.02570  0.70890  Biso   1.000  N
  C105     1.0000 0.82910  0.47830  0.25500  Biso   1.000  C
  C106     1.0000 0.32910  0.97830  0.25500  Biso   1.000  C
  C107     1.0000 0.17090  0.47830  0.24500  Biso   1.000  C
  C108     1.0000 0.67090  0.97830  0.24500  Biso   1.000  C
  C109     1.0000 0.17090  0.52170  0.74500  Biso   1.000  C
  C110     1.0000 0.67090  0.02170  0.74500  Biso   1.000  C
  C111     1.0000 0.82910  0.52170  0.75500  Biso   1.000  C
  C112     1.0000 0.32910  0.02170  0.75500  Biso   1.000  C
  H105     1.0000 0.80495  0.55551  0.26034  Biso   1.000  H
  H106     1.0000 0.30495  0.05551  0.26034  Biso   1.000  H
  H107     1.0000 0.19505  0.55551  0.23966  Biso   1.000  H
  H108     1.0000 0.69505  0.05551  0.23966  Biso   1.000  H
  H109     1.0000 0.19505  0.44449  0.73966  Biso   1.000  H
  H110     1.0000 0.69505  0.94449  0.73966  Biso   1.000  H
  H111     1.0000 0.80495  0.44449  0.76034  Biso   1.000  H
  H112     1.0000 0.30495  0.94449  0.76034  Biso   1.000  H
  C113     1.0000 0.84040  0.38790  0.29920  Biso   1.000  C
  C114     1.0000 0.34040  0.88790  0.29920  Biso   1.000  C
  C115     1.0000 0.15960  0.38790  0.20080  Biso   1.000  C
  C116     1.0000 0.65960  0.88790  0.20080  Biso   1.000  C
  C117     1.0000 0.15960  0.61210  0.70080  Biso   1.000  C
  C118     1.0000 0.65960  0.11210  0.70080  Biso   1.000  C
  C119     1.0000 0.84040  0.61210  0.79920  Biso   1.000  C
  C120     1.0000 0.34040  0.11210  0.79920  Biso   1.000  C
  C121     1.0000 0.81590  0.42330  0.34550  Biso   1.000  C
  C122     1.0000 0.31590  0.92330  0.34550  Biso   1.000  C
  C123     1.0000 0.18410  0.42330  0.15450  Biso   1.000  C
  C124     1.0000 0.68410  0.92330  0.15450  Biso   1.000  C
  C125     1.0000 0.18410  0.57670  0.65450  Biso   1.000  C
  C126     1.0000 0.68410  0.07670  0.65450  Biso   1.000  C
  C127     1.0000 0.81590  0.57670  0.84550  Biso   1.000  C
  C128     1.0000 0.31590  0.07670  0.84550  Biso   1.000  C
  H113     1.0000 0.78593  0.49990  0.34376  Biso   1.000  H
  H114     1.0000 0.28593  0.99990  0.34376  Biso   1.000  H
  H115     1.0000 0.21407  0.49990  0.15624  Biso   1.000  H
  H116     1.0000 0.71407  0.99990  0.15624  Biso   1.000  H
  H117     1.0000 0.21407  0.50010  0.65624  Biso   1.000  H
  H118     1.0000 0.71407  0.00010  0.65624  Biso   1.000  H
  H119     1.0000 0.78593  0.50010  0.84376  Biso   1.000  H
  H120     1.0000 0.28593  0.00010  0.84376  Biso   1.000  H
  C129     1.0000 0.83680  0.34270  0.39470  Biso   1.000  C
  C130     1.0000 0.33680  0.84270  0.39470  Biso   1.000  C
  C131     1.0000 0.16320  0.34270  0.10530  Biso   1.000  C
  C132     1.0000 0.66320  0.84270  0.10530  Biso   1.000  C
  C133     1.0000 0.16320  0.65730  0.60530  Biso   1.000  C
  C134     1.0000 0.66320  0.15730  0.60530  Biso   1.000  C
  C135     1.0000 0.83680  0.65730  0.89470  Biso   1.000  C
  C136     1.0000 0.33680  0.15730  0.89470  Biso   1.000  C
  H121     1.0000 0.82088  0.36596  0.42566  Biso   1.000  H
  H122     1.0000 0.32088  0.86596  0.42566  Biso   1.000  H
  H123     1.0000 0.17912  0.36596  0.07434  Biso   1.000  H
  H124     1.0000 0.67912  0.86596  0.07434  Biso   1.000  H
  H125     1.0000 0.17912  0.63404  0.57434  Biso   1.000  H
  H126     1.0000 0.67912  0.13404  0.57434  Biso   1.000  H
  H127     1.0000 0.82088  0.63404  0.92566  Biso   1.000  H
  H128     1.0000 0.32088  0.13404  0.92566  Biso   1.000  H
  C137     1.0000 0.88070  0.22950  0.39700  Biso   1.000  C
  C138     1.0000 0.38070  0.72950  0.39700  Biso   1.000  C
  C139     1.0000 0.11930  0.22950  0.10300  Biso   1.000  C
  C140     1.0000 0.61930  0.72950  0.10300  Biso   1.000  C
  C141     1.0000 0.11930  0.77050  0.60300  Biso   1.000  C
  C142     1.0000 0.61930  0.27050  0.60300  Biso   1.000  C
  C143     1.0000 0.88070  0.77050  0.89700  Biso   1.000  C
  C144     1.0000 0.38070  0.27050  0.89700  Biso   1.000  C
  H129     1.0000 0.89584  0.17795  0.43025  Biso   1.000  H
  H130     1.0000 0.39584  0.67795  0.43025  Biso   1.000  H
  H131     1.0000 0.10416  0.17795  0.06975  Biso   1.000  H
  H132     1.0000 0.60416  0.67795  0.06975  Biso   1.000  H
  H133     1.0000 0.10416  0.82205  0.56975  Biso   1.000  H
  H134     1.0000 0.60416  0.32205  0.56975  Biso   1.000  H
  H135     1.0000 0.89584  0.82205  0.93025  Biso   1.000  H
  H136     1.0000 0.39584  0.32205  0.93025  Biso   1.000  H
  C145     1.0000 0.90300  0.19080  0.35090  Biso   1.000  C
  C146     1.0000 0.40300  0.69080  0.35090  Biso   1.000  C
  C147     1.0000 0.09700  0.19080  0.14910  Biso   1.000  C
  C148     1.0000 0.59700  0.69080  0.14910  Biso   1.000  C
  C149     1.0000 0.09700  0.80920  0.64910  Biso   1.000  C
  C150     1.0000 0.59700  0.30920  0.64910  Biso   1.000  C
  C151     1.0000 0.90300  0.80920  0.85090  Biso   1.000  C
  C152     1.0000 0.40300  0.30920  0.85090  Biso   1.000  C
  H137     1.0000 0.93090  0.11246  0.35253  Biso   1.000  H
  H138     1.0000 0.43090  0.61246  0.35253  Biso   1.000  H
  H139     1.0000 0.06910  0.11246  0.14747  Biso   1.000  H
  H140     1.0000 0.56910  0.61246  0.14747  Biso   1.000  H
  H141     1.0000 0.06910  0.88754  0.64747  Biso   1.000  H
  H142     1.0000 0.56910  0.38754  0.64747  Biso   1.000  H
  H143     1.0000 0.93090  0.88754  0.85253  Biso   1.000  H
  H144     1.0000 0.43090  0.38754  0.85253  Biso   1.000  H
  C153     1.0000 0.88350  0.26950  0.30200  Biso   1.000  C
  C154     1.0000 0.38350  0.76950  0.30200  Biso   1.000  C
  C155     1.0000 0.11650  0.26950  0.19800  Biso   1.000  C
  C156     1.0000 0.61650  0.76950  0.19800  Biso   1.000  C
  C157     1.0000 0.11650  0.73050  0.69800  Biso   1.000  C
  C158     1.0000 0.61650  0.23050  0.69800  Biso   1.000  C
  C159     1.0000 0.88350  0.73050  0.80200  Biso   1.000  C
  C160     1.0000 0.38350  0.23050  0.80200  Biso   1.000  C
  O9       1.0000 0.90990  0.23380  0.25810  Biso   1.000  O
  O10      1.0000 0.40990  0.73380  0.25810  Biso   1.000  O
  O11      1.0000 0.09010  0.23380  0.24190  Biso   1.000  O
  O12      1.0000 0.59010  0.73380  0.24190  Biso   1.000  O
  O13      1.0000 0.09010  0.76620  0.74190  Biso   1.000  O
  O14      1.0000 0.59010  0.26620  0.74190  Biso   1.000  O
  O15      1.0000 0.90990  0.76620  0.75810  Biso   1.000  O
  O16      1.0000 0.40990  0.26620  0.75810  Biso   1.000  O
