data_image0
_cell_length_a       6.836
_cell_length_b       9.705
_cell_length_c       11.504
_cell_angle_alpha    107.7
_cell_angle_beta     103.57
_cell_angle_gamma    99.8

_symmetry_space_group_name_H-M    "P 1"
_symmetry_int_tables_number       1

loop_
  _symmetry_equiv_pos_as_xyz
  'x, y, z'

loop_
  _atom_site_label
  _atom_site_occupancy
  _atom_site_fract_x
  _atom_site_fract_y
  _atom_site_fract_z
  _atom_site_thermal_displace_type
  _atom_site_B_iso_or_equiv
  _atom_site_type_symbol
  Cu1      1.0000 0.00000  0.00000  0.00000  Biso   1.000  Cu
  O1       1.0000 0.09920  0.06520  0.21870  Biso   1.000  O
  O2       1.0000 0.90080  0.93480  0.78130  Biso   1.000  O
  O3       1.0000 0.28630  0.81730  0.61070  Biso   1.000  O
  O4       1.0000 0.71370  0.18270  0.38930  Biso   1.000  O
  O5       1.0000 0.11570  0.84970  0.23900  Biso   1.000  O
  O6       1.0000 0.88430  0.15030  0.76100  Biso   1.000  O
  O7       1.0000 0.19240  0.74640  0.40280  Biso   1.000  O
  O8       1.0000 0.80760  0.25360  0.59720  Biso   1.000  O
  O9       1.0000 0.06900  0.21470  0.01510  Biso   1.000  O
  O10      1.0000 0.93100  0.78530  0.98490  Biso   1.000  O
  O11      1.0000 0.36360  0.47610  0.85750  Biso   1.000  O
  O12      1.0000 0.63640  0.52390  0.14250  Biso   1.000  O
  O13      1.0000 0.53200  0.31700  0.90790  Biso   1.000  O
  O14      1.0000 0.46800  0.68300  0.09210  Biso   1.000  O
  O15      1.0000 0.21450  0.53040  0.57460  Biso   1.000  O
  O16      1.0000 0.78550  0.46960  0.42540  Biso   1.000  O
  O17      1.0000 0.54620  0.56960  0.67620  Biso   1.000  O
  O18      1.0000 0.45380  0.43040  0.32380  Biso   1.000  O
  C1       1.0000 0.25270  0.22710  0.46700  Biso   1.000  C
  C2       1.0000 0.74730  0.77290  0.53300  Biso   1.000  C
  C3       1.0000 0.36430  0.26340  0.68940  Biso   1.000  C
  C4       1.0000 0.63570  0.73660  0.31060  Biso   1.000  C
  C5       1.0000 0.22110  0.07230  0.43130  Biso   1.000  C
  C6       1.0000 0.77890  0.92770  0.56870  Biso   1.000  C
  C7       1.0000 0.32600  0.32390  0.59390  Biso   1.000  C
  C8       1.0000 0.67400  0.67610  0.40610  Biso   1.000  C
  C9       1.0000 0.13900  0.99050  0.28560  Biso   1.000  C
  C10      1.0000 0.86100  0.00950  0.71440  Biso   1.000  C
  C11      1.0000 0.37440  0.48870  0.62110  Biso   1.000  C
  C12      1.0000 0.62560  0.51130  0.37890  Biso   1.000  C
  C13      1.0000 0.42130  0.36210  0.82630  Biso   1.000  C
  C14      1.0000 0.57870  0.63790  0.17370  Biso   1.000  C
  C15      1.0000 0.26660  0.01180  0.52840  Biso   1.000  C
  C16      1.0000 0.73340  0.98820  0.47160  Biso   1.000  C
  C17      1.0000 0.24720  0.84890  0.51440  Biso   1.000  C
  C18      1.0000 0.75280  0.15110  0.48560  Biso   1.000  C
  C19      1.0000 0.33570  0.11010  0.65580  Biso   1.000  C
  C20      1.0000 0.66430  0.88990  0.34420  Biso   1.000  C
  N1       1.0000 0.70260  0.00070  0.00030  Biso   1.000  N
  N2       1.0000 0.29740  0.99930  0.99970  Biso   1.000  N
  C21      1.0000 0.66150  0.10050  0.09430  Biso   1.000  C
  C22      1.0000 0.33850  0.89950  0.90570  Biso   1.000  C
  C23      1.0000 0.54110  0.90070  0.90640  Biso   1.000  C
  C24      1.0000 0.45890  0.09930  0.09360  Biso   1.000  C
  H1       1.0000 0.56540  0.83330  0.84120  Biso   1.000  H
  H2       1.0000 0.43460  0.16670  0.15880  Biso   1.000  H
  H3       1.0000 0.77380  0.16950  0.15850  Biso   1.000  H
  H4       1.0000 0.22620  0.83050  0.84150  Biso   1.000  H
  H5       1.0000 0.35730  0.06730  0.71520  Biso   1.000  H
  H6       1.0000 0.64270  0.93270  0.28480  Biso   1.000  H
  H7       1.0000 0.22620  0.26690  0.40810  Biso   1.000  H
  H8       1.0000 0.77380  0.73310  0.59190  Biso   1.000  H
  H9       1.0000 0.01940  0.22290  0.94910  Biso   1.000  H
  H10      1.0000 0.98060  0.77710  0.05090  Biso   1.000  H
  H11      1.0000 0.24200  0.60640  0.57730  Biso   1.000  H
  H12      1.0000 0.75800  0.39360  0.42270  Biso   1.000  H
  H13      1.0000 0.05660  0.28550  0.07620  Biso   1.000  H
  H14      1.0000 0.94340  0.71450  0.92380  Biso   1.000  H
  H15      1.0000 0.15870  0.78500  0.32830  Biso   1.000  H
  H16      1.0000 0.84130  0.21500  0.67170  Biso   1.000  H
  H17      1.0000 0.56030  0.37910  0.97910  Biso   1.000  H
  H18      1.0000 0.43970  0.62090  0.02090  Biso   1.000  H
  O19      1.0000 0.04170  0.42900  0.21280  Biso   1.000  O
  O20      1.0000 0.95830  0.57100  0.78720  Biso   1.000  O
  H19      1.0000 0.08170  0.48210  0.17330  Biso   1.000  H
  H20      1.0000 0.91830  0.51790  0.82670  Biso   1.000  H
  H21      1.0000 0.16600  0.48100  0.28660  Biso   1.000  H
  H22      1.0000 0.83400  0.51900  0.71340  Biso   1.000  H
