data_image0
_cell_length_a       11.315
_cell_length_b       5.702
_cell_length_c       22.599
_cell_angle_alpha    90
_cell_angle_beta     95.8
_cell_angle_gamma    90

_symmetry_space_group_name_H-M    "P 1"
_symmetry_int_tables_number       1

loop_
  _symmetry_equiv_pos_as_xyz
  'x, y, z'

loop_
  _atom_site_label
  _atom_site_occupancy
  _atom_site_fract_x
  _atom_site_fract_y
  _atom_site_fract_z
  _atom_site_thermal_displace_type
  _atom_site_B_iso_or_equiv
  _atom_site_type_symbol
  Cu1      1.0000 0.00000  0.00000  0.00000  Biso   1.000  Cu
  Cu2      1.0000 0.50000  0.50000  0.50000  Biso   1.000  Cu
  S1       1.0000 0.99338  0.43972  0.09135  Biso   1.000  S
  S2       1.0000 0.49338  0.06028  0.59135  Biso   1.000  S
  S3       1.0000 0.00662  0.56028  0.90865  Biso   1.000  S
  S4       1.0000 0.50662  0.93972  0.40865  Biso   1.000  S
  O1       1.0000 0.86607  0.42050  0.07903  Biso   1.000  O
  O2       1.0000 0.36607  0.07950  0.57903  Biso   1.000  O
  O3       1.0000 0.13393  0.57950  0.92097  Biso   1.000  O
  O4       1.0000 0.63393  0.92050  0.42097  Biso   1.000  O
  O5       1.0000 0.04360  0.65360  0.07052  Biso   1.000  O
  O6       1.0000 0.54360  0.84640  0.57052  Biso   1.000  O
  O7       1.0000 0.95640  0.34640  0.92948  Biso   1.000  O
  O8       1.0000 0.45640  0.15360  0.42948  Biso   1.000  O
  N1       1.0000 0.17013  0.00730  0.98686  Biso   1.000  N
  N2       1.0000 0.67013  0.49270  0.48686  Biso   1.000  N
  N3       1.0000 0.82987  0.99270  0.01314  Biso   1.000  N
  N4       1.0000 0.32987  0.50730  0.51314  Biso   1.000  N
  H1       1.0000 0.19130  0.87130  0.97070  Biso   1.000  H
  H2       1.0000 0.69130  0.62870  0.47070  Biso   1.000  H
  H3       1.0000 0.80870  0.12870  0.02930  Biso   1.000  H
  H4       1.0000 0.30870  0.37130  0.52930  Biso   1.000  H
  H5       1.0000 0.18420  0.12500  0.96200  Biso   1.000  H
  H6       1.0000 0.68420  0.37500  0.46200  Biso   1.000  H
  H7       1.0000 0.81580  0.87500  0.03800  Biso   1.000  H
  H8       1.0000 0.31580  0.62500  0.53800  Biso   1.000  H
  N5       1.0000 0.05349  0.21250  0.06955  Biso   1.000  N
  N6       1.0000 0.55349  0.28750  0.56955  Biso   1.000  N
  N7       1.0000 0.94651  0.78750  0.93045  Biso   1.000  N
  N8       1.0000 0.44651  0.71250  0.43045  Biso   1.000  N
  C1       1.0000 0.23760  0.04270  0.04440  Biso   1.000  C
  C2       1.0000 0.73760  0.45730  0.54440  Biso   1.000  C
  C3       1.0000 0.76240  0.95730  0.95560  Biso   1.000  C
  C4       1.0000 0.26240  0.54270  0.45560  Biso   1.000  C
  H9       1.0000 0.32050  0.07210  0.03930  Biso   1.000  H
  H10      1.0000 0.82050  0.42790  0.53930  Biso   1.000  H
  H11      1.0000 0.67950  0.92790  0.96070  Biso   1.000  H
  H12      1.0000 0.17950  0.57210  0.46070  Biso   1.000  H
  H13      1.0000 0.23300  0.90420  0.06900  Biso   1.000  H
  H14      1.0000 0.73300  0.59580  0.56900  Biso   1.000  H
  H15      1.0000 0.76700  0.09580  0.93100  Biso   1.000  H
  H16      1.0000 0.26700  0.40420  0.43100  Biso   1.000  H
  C5       1.0000 0.18480  0.25060  0.07330  Biso   1.000  C
  C6       1.0000 0.68480  0.24940  0.57330  Biso   1.000  C
  C7       1.0000 0.81520  0.74940  0.92670  Biso   1.000  C
  C8       1.0000 0.31520  0.75060  0.42670  Biso   1.000  C
  H17      1.0000 0.21760  0.26340  0.11460  Biso   1.000  H
  H18      1.0000 0.71760  0.23660  0.61460  Biso   1.000  H
  H19      1.0000 0.78240  0.73660  0.88540  Biso   1.000  H
  H20      1.0000 0.28240  0.76340  0.38540  Biso   1.000  H
  H21      1.0000 0.20250  0.39400  0.05290  Biso   1.000  H
  H22      1.0000 0.70250  0.10600  0.55290  Biso   1.000  H
  H23      1.0000 0.79750  0.60600  0.94710  Biso   1.000  H
  H24      1.0000 0.29750  0.89400  0.44710  Biso   1.000  H
  C9       1.0000 0.23990  0.16800  0.03000  Biso   1.000  C
  C10      1.0000 0.73990  0.33200  0.53000  Biso   1.000  C
  C11      1.0000 0.76010  0.83200  0.97000  Biso   1.000  C
  C12      1.0000 0.26010  0.66800  0.47000  Biso   1.000  C
  H25      1.0000 0.32140  0.11350  0.03720  Biso   1.000  H
  H26      1.0000 0.82140  0.38650  0.53720  Biso   1.000  H
  H27      1.0000 0.67860  0.88650  0.96280  Biso   1.000  H
  H28      1.0000 0.17860  0.61350  0.46280  Biso   1.000  H
  H29      1.0000 0.24050  0.32540  0.01390  Biso   1.000  H
  H30      1.0000 0.74050  0.17460  0.51390  Biso   1.000  H
  H31      1.0000 0.75950  0.67460  0.98610  Biso   1.000  H
  H32      1.0000 0.25950  0.82540  0.48610  Biso   1.000  H
  C13      1.0000 0.18200  0.16700  0.08670  Biso   1.000  C
  C14      1.0000 0.68200  0.33300  0.58670  Biso   1.000  C
  C15      1.0000 0.81800  0.83300  0.91330  Biso   1.000  C
  C16      1.0000 0.31800  0.66700  0.41330  Biso   1.000  C
  H33      1.0000 0.19290  0.01630  0.10650  Biso   1.000  H
  H34      1.0000 0.69290  0.48370  0.60650  Biso   1.000  H
  H35      1.0000 0.80710  0.98370  0.89350  Biso   1.000  H
  H36      1.0000 0.30710  0.51630  0.39350  Biso   1.000  H
  H37      1.0000 0.21580  0.28810  0.11340  Biso   1.000  H
  H38      1.0000 0.71580  0.21190  0.61340  Biso   1.000  H
  H39      1.0000 0.78420  0.71190  0.88660  Biso   1.000  H
  H40      1.0000 0.28420  0.78810  0.38660  Biso   1.000  H
  C17      1.0000 0.02730  0.44900  0.17044  Biso   1.000  C
  C18      1.0000 0.52730  0.05100  0.67044  Biso   1.000  C
  C19      1.0000 0.97270  0.55100  0.82956  Biso   1.000  C
  C20      1.0000 0.47270  0.94900  0.32956  Biso   1.000  C
  C21      1.0000 0.10400  0.62120  0.19292  Biso   1.000  C
  C22      1.0000 0.60400  0.87880  0.69292  Biso   1.000  C
  C23      1.0000 0.89600  0.37880  0.80708  Biso   1.000  C
  C24      1.0000 0.39600  0.12120  0.30708  Biso   1.000  C
  H41      1.0000 0.13460  0.72730  0.16720  Biso   1.000  H
  H42      1.0000 0.63460  0.77270  0.66720  Biso   1.000  H
  H43      1.0000 0.86540  0.27270  0.83280  Biso   1.000  H
  H44      1.0000 0.36540  0.22730  0.33280  Biso   1.000  H
  C25      1.0000 0.13680  0.63890  0.25441  Biso   1.000  C
  C26      1.0000 0.63680  0.86110  0.75441  Biso   1.000  C
  C27      1.0000 0.86320  0.36110  0.74559  Biso   1.000  C
  C28      1.0000 0.36320  0.13890  0.24559  Biso   1.000  C
  H45      1.0000 0.19090  0.75290  0.26900  Biso   1.000  H
  H46      1.0000 0.69090  0.74710  0.76900  Biso   1.000  H
  H47      1.0000 0.80910  0.24710  0.73100  Biso   1.000  H
  H48      1.0000 0.30910  0.25290  0.23100  Biso   1.000  H
  C29      1.0000 0.08990  0.49090  0.29236  Biso   1.000  C
  C30      1.0000 0.58990  0.00910  0.79236  Biso   1.000  C
  C31      1.0000 0.91010  0.50910  0.70764  Biso   1.000  C
  C32      1.0000 0.41010  0.99090  0.20764  Biso   1.000  C
  H49      1.0000 0.11170  0.50580  0.33300  Biso   1.000  H
  H50      1.0000 0.61170  0.99420  0.83300  Biso   1.000  H
  H51      1.0000 0.88830  0.49420  0.66700  Biso   1.000  H
  H52      1.0000 0.38830  0.00580  0.16700  Biso   1.000  H
  C33      1.0000 0.00814  0.31330  0.27174  Biso   1.000  C
  C34      1.0000 0.50814  0.18670  0.77174  Biso   1.000  C
  C35      1.0000 0.99186  0.68670  0.72826  Biso   1.000  C
  C36      1.0000 0.49186  0.81330  0.22826  Biso   1.000  C
  C37      1.0000 0.97830  0.28490  0.20908  Biso   1.000  C
  C38      1.0000 0.47830  0.21510  0.70908  Biso   1.000  C
  C39      1.0000 0.02170  0.71510  0.79092  Biso   1.000  C
  C40      1.0000 0.52170  0.78490  0.29092  Biso   1.000  C
  C41      1.0000 0.90310  0.09720  0.18900  Biso   1.000  C
  C42      1.0000 0.40310  0.40280  0.68900  Biso   1.000  C
  C43      1.0000 0.09690  0.90280  0.81100  Biso   1.000  C
  C44      1.0000 0.59690  0.59720  0.31100  Biso   1.000  C
  H53      1.0000 0.88490  0.07220  0.14840  Biso   1.000  H
  H54      1.0000 0.38490  0.42780  0.64840  Biso   1.000  H
  H55      1.0000 0.11510  0.92780  0.85160  Biso   1.000  H
  H56      1.0000 0.61510  0.57220  0.35160  Biso   1.000  H
  C45      1.0000 0.85700  0.95280  0.22881  Biso   1.000  C
  C46      1.0000 0.35700  0.54720  0.72881  Biso   1.000  C
  C47      1.0000 0.14300  0.04720  0.77119  Biso   1.000  C
  C48      1.0000 0.64300  0.45280  0.27119  Biso   1.000  C
  H57      1.0000 0.80810  0.82930  0.21490  Biso   1.000  H
  H58      1.0000 0.30810  0.67070  0.71490  Biso   1.000  H
  H59      1.0000 0.19190  0.17070  0.78510  Biso   1.000  H
  H60      1.0000 0.69190  0.32930  0.28510  Biso   1.000  H
  C49      1.0000 0.88170  0.98610  0.29019  Biso   1.000  C
  C50      1.0000 0.38170  0.51390  0.79019  Biso   1.000  C
  C51      1.0000 0.11830  0.01390  0.70981  Biso   1.000  C
  C52      1.0000 0.61830  0.48610  0.20981  Biso   1.000  C
  H61      1.0000 0.84740  0.88730  0.31640  Biso   1.000  H
  H62      1.0000 0.34740  0.61270  0.81640  Biso   1.000  H
  H63      1.0000 0.15260  0.11270  0.68360  Biso   1.000  H
  H64      1.0000 0.65260  0.38730  0.18360  Biso   1.000  H
  C53      1.0000 0.95530  0.16170  0.31192  Biso   1.000  C
  C54      1.0000 0.45530  0.33830  0.81192  Biso   1.000  C
  C55      1.0000 0.04470  0.83830  0.68808  Biso   1.000  C
  C56      1.0000 0.54470  0.66170  0.18808  Biso   1.000  C
  N9       1.0000 0.98420  0.20560  0.37413  Biso   1.000  N
  N10      1.0000 0.48420  0.29440  0.87413  Biso   1.000  N
  N11      1.0000 0.01580  0.79440  0.62587  Biso   1.000  N
  N12      1.0000 0.51580  0.70560  0.12587  Biso   1.000  N
  C57      1.0000 0.91020  0.36970  0.39790  Biso   1.000  C
  C58      1.0000 0.41020  0.13030  0.89790  Biso   1.000  C
  C59      1.0000 0.08980  0.63030  0.60210  Biso   1.000  C
  C60      1.0000 0.58980  0.86970  0.10210  Biso   1.000  C
  H65      1.0000 0.93710  0.39600  0.43900  Biso   1.000  H
  H66      1.0000 0.43710  0.10400  0.93900  Biso   1.000  H
  H67      1.0000 0.06290  0.60400  0.56100  Biso   1.000  H
  H68      1.0000 0.56290  0.89600  0.06100  Biso   1.000  H
  H69      1.0000 0.83030  0.31120  0.39460  Biso   1.000  H
  H70      1.0000 0.33030  0.18880  0.89460  Biso   1.000  H
  H71      1.0000 0.16970  0.68880  0.60540  Biso   1.000  H
  H72      1.0000 0.66970  0.81120  0.10540  Biso   1.000  H
  H73      1.0000 0.91250  0.51450  0.37640  Biso   1.000  H
  H74      1.0000 0.41250  0.98550  0.87640  Biso   1.000  H
  H75      1.0000 0.08750  0.48550  0.62360  Biso   1.000  H
  H76      1.0000 0.58750  0.01450  0.12360  Biso   1.000  H
  C61      1.0000 0.98540  0.98210  0.41120  Biso   1.000  C
  C62      1.0000 0.48540  0.51790  0.91120  Biso   1.000  C
  C63      1.0000 0.01460  0.01790  0.58880  Biso   1.000  C
  C64      1.0000 0.51460  0.48210  0.08880  Biso   1.000  C
  H77      1.0000 0.01790  0.01550  0.45120  Biso   1.000  H
  H78      1.0000 0.51790  0.48450  0.95120  Biso   1.000  H
  H79      1.0000 0.98210  0.98450  0.54880  Biso   1.000  H
  H80      1.0000 0.48210  0.51550  0.04880  Biso   1.000  H
  H81      1.0000 0.03330  0.86580  0.39430  Biso   1.000  H
  H82      1.0000 0.53330  0.63420  0.89430  Biso   1.000  H
  H83      1.0000 0.96670  0.13420  0.60570  Biso   1.000  H
  H84      1.0000 0.46670  0.36580  0.10570  Biso   1.000  H
  H85      1.0000 0.90570  0.92440  0.41140  Biso   1.000  H
  H86      1.0000 0.40570  0.57560  0.91140  Biso   1.000  H
  H87      1.0000 0.09430  0.07560  0.58860  Biso   1.000  H
  H88      1.0000 0.59430  0.42440  0.08860  Biso   1.000  H
  C65      1.0000 0.88650  0.24700  0.40710  Biso   1.000  C
  C66      1.0000 0.38650  0.25300  0.90710  Biso   1.000  C
  C67      1.0000 0.11350  0.75300  0.59290  Biso   1.000  C
  C68      1.0000 0.61350  0.74700  0.09290  Biso   1.000  C
  H89      1.0000 0.91490  0.28330  0.44750  Biso   1.000  H
  H90      1.0000 0.41490  0.21670  0.94750  Biso   1.000  H
  H91      1.0000 0.08510  0.71670  0.55250  Biso   1.000  H
  H92      1.0000 0.58510  0.78330  0.05250  Biso   1.000  H
  H93      1.0000 0.83780  0.10860  0.40630  Biso   1.000  H
  H94      1.0000 0.33780  0.39140  0.90630  Biso   1.000  H
  H95      1.0000 0.16220  0.89140  0.59370  Biso   1.000  H
  H96      1.0000 0.66220  0.60860  0.09370  Biso   1.000  H
  H97      1.0000 0.84060  0.37550  0.38990  Biso   1.000  H
  H98      1.0000 0.34060  0.12450  0.88990  Biso   1.000  H
  H99      1.0000 0.15940  0.62450  0.61010  Biso   1.000  H
  H100     1.0000 0.65940  0.87550  0.11010  Biso   1.000  H
  C69      1.0000 0.07730  0.09000  0.40070  Biso   1.000  C
  C70      1.0000 0.57730  0.41000  0.90070  Biso   1.000  C
  C71      1.0000 0.92270  0.91000  0.59930  Biso   1.000  C
  C72      1.0000 0.42270  0.59000  0.09930  Biso   1.000  C
  H101     1.0000 0.08540  0.12410  0.44250  Biso   1.000  H
  H102     1.0000 0.58540  0.37590  0.94250  Biso   1.000  H
  H103     1.0000 0.91460  0.87590  0.55750  Biso   1.000  H
  H104     1.0000 0.41460  0.62410  0.05750  Biso   1.000  H
  H105     1.0000 0.14810  0.13700  0.38380  Biso   1.000  H
  H106     1.0000 0.64810  0.36300  0.88380  Biso   1.000  H
  H107     1.0000 0.85190  0.86300  0.61620  Biso   1.000  H
  H108     1.0000 0.35190  0.63700  0.11620  Biso   1.000  H
  H109     1.0000 0.06550  0.92410  0.39500  Biso   1.000  H
  H110     1.0000 0.56550  0.57590  0.89500  Biso   1.000  H
  H111     1.0000 0.93450  0.07590  0.60500  Biso   1.000  H
  H112     1.0000 0.43450  0.42410  0.10500  Biso   1.000  H
