data_image0
_cell_length_a       11.0433
_cell_length_b       9.5065
_cell_length_c       32.266
_cell_angle_alpha    90
_cell_angle_beta     96.365
_cell_angle_gamma    90

_symmetry_space_group_name_H-M    "P 1"
_symmetry_int_tables_number       1

loop_
  _symmetry_equiv_pos_as_xyz
  'x, y, z'

loop_
  _atom_site_label
  _atom_site_occupancy
  _atom_site_fract_x
  _atom_site_fract_y
  _atom_site_fract_z
  _atom_site_thermal_displace_type
  _atom_site_B_iso_or_equiv
  _atom_site_type_symbol
  Cu1      1.0000 0.01146  0.20442  0.12515  Biso   1.000  Cu
  Cu2      1.0000 0.98854  0.70442  0.37485  Biso   1.000  Cu
  Cu3      1.0000 0.98854  0.79558  0.87485  Biso   1.000  Cu
  Cu4      1.0000 0.01146  0.29558  0.62515  Biso   1.000  Cu
  C1       1.0000 0.38500  0.18590  0.10860  Biso   1.000  C
  C2       1.0000 0.61500  0.68590  0.39140  Biso   1.000  C
  C3       1.0000 0.61500  0.81410  0.89140  Biso   1.000  C
  C4       1.0000 0.38500  0.31410  0.60860  Biso   1.000  C
  C5       1.0000 0.42730  0.17590  0.15078  Biso   1.000  C
  C6       1.0000 0.57270  0.67590  0.34922  Biso   1.000  C
  C7       1.0000 0.57270  0.82410  0.84922  Biso   1.000  C
  C8       1.0000 0.42730  0.32410  0.65078  Biso   1.000  C
  H1       1.0000 0.37050  0.16100  0.17040  Biso   1.000  H
  H2       1.0000 0.62950  0.66100  0.32960  Biso   1.000  H
  H3       1.0000 0.62950  0.83900  0.82960  Biso   1.000  H
  H4       1.0000 0.37050  0.33900  0.67040  Biso   1.000  H
  C9       1.0000 0.55060  0.18700  0.16493  Biso   1.000  C
  C10      1.0000 0.44940  0.68700  0.33507  Biso   1.000  C
  C11      1.0000 0.44940  0.81300  0.83507  Biso   1.000  C
  C12      1.0000 0.55060  0.31300  0.66493  Biso   1.000  C
  C13      1.0000 0.63370  0.21200  0.13608  Biso   1.000  C
  C14      1.0000 0.36630  0.71200  0.36392  Biso   1.000  C
  C15      1.0000 0.36630  0.78800  0.86392  Biso   1.000  C
  C16      1.0000 0.63370  0.28800  0.63608  Biso   1.000  C
  C17      1.0000 0.59100  0.22310  0.09371  Biso   1.000  C
  C18      1.0000 0.40900  0.72310  0.40629  Biso   1.000  C
  C19      1.0000 0.40900  0.77690  0.90629  Biso   1.000  C
  C20      1.0000 0.59100  0.27690  0.59371  Biso   1.000  C
  H5       1.0000 0.64760  0.23870  0.07410  Biso   1.000  H
  H6       1.0000 0.35240  0.73870  0.42590  Biso   1.000  H
  H7       1.0000 0.35240  0.76130  0.92590  Biso   1.000  H
  H8       1.0000 0.64760  0.26130  0.57410  Biso   1.000  H
  C21      1.0000 0.46730  0.21190  0.07962  Biso   1.000  C
  C22      1.0000 0.53270  0.71190  0.42038  Biso   1.000  C
  C23      1.0000 0.53270  0.78810  0.92038  Biso   1.000  C
  C24      1.0000 0.46730  0.28810  0.57962  Biso   1.000  C
  O1       1.0000 0.18596  0.22120  0.12310  Biso   1.000  O
  O2       1.0000 0.81404  0.72120  0.37690  Biso   1.000  O
  O3       1.0000 0.81404  0.77880  0.87690  Biso   1.000  O
  O4       1.0000 0.18596  0.27880  0.62310  Biso   1.000  O
  C25      1.0000 0.24950  0.17070  0.09657  Biso   1.000  C
  C26      1.0000 0.75050  0.67070  0.40343  Biso   1.000  C
  C27      1.0000 0.75050  0.82930  0.90343  Biso   1.000  C
  C28      1.0000 0.24950  0.32930  0.59657  Biso   1.000  C
  N1       1.0000 0.90570  0.73650  0.01813  Biso   1.000  N
  N2       1.0000 0.09430  0.23650  0.48187  Biso   1.000  N
  N3       1.0000 0.09430  0.26350  0.98187  Biso   1.000  N
  N4       1.0000 0.90570  0.76350  0.51813  Biso   1.000  N
  H9       1.0000 0.85120  0.73400  0.99610  Biso   1.000  H
  H10      1.0000 0.14880  0.23400  0.50390  Biso   1.000  H
  H11      1.0000 0.14880  0.26600  0.00390  Biso   1.000  H
  H12      1.0000 0.85120  0.76600  0.49610  Biso   1.000  H
  H13      1.0000 0.94250  0.81610  0.02570  Biso   1.000  H
  H14      1.0000 0.05750  0.31610  0.47430  Biso   1.000  H
  H15      1.0000 0.05750  0.18390  0.97430  Biso   1.000  H
  H16      1.0000 0.94250  0.68390  0.52570  Biso   1.000  H
  O5       1.0000 0.21142  0.10810  0.06330  Biso   1.000  O
  O6       1.0000 0.78858  0.60810  0.43670  Biso   1.000  O
  O7       1.0000 0.78858  0.89190  0.93670  Biso   1.000  O
  O8       1.0000 0.21142  0.39190  0.56330  Biso   1.000  O
  N5       1.0000 0.98203  0.37300  0.08897  Biso   1.000  N
  N6       1.0000 0.01797  0.87300  0.41103  Biso   1.000  N
  N7       1.0000 0.01797  0.62700  0.91103  Biso   1.000  N
  N8       1.0000 0.98203  0.12700  0.58897  Biso   1.000  N
  C29      1.0000 0.04140  0.49470  0.09842  Biso   1.000  C
  C30      1.0000 0.95860  0.99470  0.40158  Biso   1.000  C
  C31      1.0000 0.95860  0.50530  0.90158  Biso   1.000  C
  C32      1.0000 0.04140  0.00530  0.59842  Biso   1.000  C
  H17      1.0000 0.10140  0.49640  0.12190  Biso   1.000  H
  H18      1.0000 0.89860  0.99640  0.37810  Biso   1.000  H
  H19      1.0000 0.89860  0.50360  0.87810  Biso   1.000  H
  H20      1.0000 0.10140  0.00360  0.62190  Biso   1.000  H
  C33      1.0000 0.01950  0.61700  0.07576  Biso   1.000  C
  C34      1.0000 0.98050  0.11700  0.42424  Biso   1.000  C
  C35      1.0000 0.98050  0.38300  0.92424  Biso   1.000  C
  C36      1.0000 0.01950  0.88300  0.57576  Biso   1.000  C
  H21      1.0000 0.06320  0.70030  0.08410  Biso   1.000  H
  H22      1.0000 0.93680  0.20030  0.41590  Biso   1.000  H
  H23      1.0000 0.93680  0.29970  0.91590  Biso   1.000  H
  H24      1.0000 0.06320  0.79970  0.58410  Biso   1.000  H
  C37      1.0000 0.93280  0.61850  0.04039  Biso   1.000  C
  C38      1.0000 0.06720  0.11850  0.45961  Biso   1.000  C
  C39      1.0000 0.06720  0.38150  0.95961  Biso   1.000  C
  C40      1.0000 0.93280  0.88150  0.54039  Biso   1.000  C
  C41      1.0000 0.87630  0.48910  0.02953  Biso   1.000  C
  C42      1.0000 0.12370  0.98910  0.47047  Biso   1.000  C
  C43      1.0000 0.12370  0.51090  0.97047  Biso   1.000  C
  C44      1.0000 0.87630  0.01090  0.52953  Biso   1.000  C
  H25      1.0000 0.82080  0.48200  0.00490  Biso   1.000  H
  H26      1.0000 0.17920  0.98200  0.49510  Biso   1.000  H
  H27      1.0000 0.17920  0.51800  0.99510  Biso   1.000  H
  H28      1.0000 0.82080  0.01800  0.50490  Biso   1.000  H
  C45      1.0000 0.90100  0.37350  0.05416  Biso   1.000  C
  C46      1.0000 0.09900  0.87350  0.44584  Biso   1.000  C
  C47      1.0000 0.09900  0.62650  0.94584  Biso   1.000  C
  C48      1.0000 0.90100  0.12650  0.55416  Biso   1.000  C
  H29      1.0000 0.85900  0.28870  0.04650  Biso   1.000  H
  H30      1.0000 0.14100  0.78870  0.45350  Biso   1.000  H
  H31      1.0000 0.14100  0.71130  0.95350  Biso   1.000  H
  H32      1.0000 0.85900  0.21130  0.54650  Biso   1.000  H
  O9       1.0000 0.53383  0.23850  0.23580  Biso   1.000  O
  O10      1.0000 0.46617  0.73850  0.26420  Biso   1.000  O
  O11      1.0000 0.46617  0.76150  0.76420  Biso   1.000  O
  O12      1.0000 0.53383  0.26150  0.73580  Biso   1.000  O
  C49      1.0000 0.58970  0.16540  0.21111  Biso   1.000  C
  C50      1.0000 0.41030  0.66540  0.28889  Biso   1.000  C
  C51      1.0000 0.41030  0.83460  0.78889  Biso   1.000  C
  C52      1.0000 0.58970  0.33460  0.71111  Biso   1.000  C
  N9       1.0000 0.09780  0.66230  0.22977  Biso   1.000  N
  N10      1.0000 0.90220  0.16230  0.27023  Biso   1.000  N
  N11      1.0000 0.90220  0.33770  0.77023  Biso   1.000  N
  N12      1.0000 0.09780  0.83770  0.72977  Biso   1.000  N
  H33      1.0000 0.05650  0.58600  0.22180  Biso   1.000  H
  H34      1.0000 0.94350  0.08600  0.27820  Biso   1.000  H
  H35      1.0000 0.94350  0.41400  0.77820  Biso   1.000  H
  H36      1.0000 0.05650  0.91400  0.72180  Biso   1.000  H
  H37      1.0000 0.15080  0.66030  0.25220  Biso   1.000  H
  H38      1.0000 0.84920  0.16030  0.24780  Biso   1.000  H
  H39      1.0000 0.84920  0.33970  0.74780  Biso   1.000  H
  H40      1.0000 0.15080  0.83970  0.75220  Biso   1.000  H
  O13      1.0000 0.67025  0.07630  0.22124  Biso   1.000  O
  O14      1.0000 0.32975  0.57630  0.27876  Biso   1.000  O
  O15      1.0000 0.32975  0.92370  0.77876  Biso   1.000  O
  O16      1.0000 0.67025  0.42370  0.72124  Biso   1.000  O
  N13      1.0000 0.04037  0.03270  0.16050  Biso   1.000  N
  N14      1.0000 0.95963  0.53270  0.33950  Biso   1.000  N
  N15      1.0000 0.95963  0.96730  0.83950  Biso   1.000  N
  N16      1.0000 0.04037  0.46730  0.66050  Biso   1.000  N
  C53      1.0000 0.12140  0.02620  0.19517  Biso   1.000  C
  C54      1.0000 0.87860  0.52620  0.30483  Biso   1.000  C
  C55      1.0000 0.87860  0.97380  0.80483  Biso   1.000  C
  C56      1.0000 0.12140  0.47380  0.69517  Biso   1.000  C
  H41      1.0000 0.16580  0.10890  0.20350  Biso   1.000  H
  H42      1.0000 0.83420  0.60890  0.29650  Biso   1.000  H
  H43      1.0000 0.83420  0.89110  0.79650  Biso   1.000  H
  H44      1.0000 0.16580  0.39110  0.70350  Biso   1.000  H
  C57      1.0000 0.14330  0.90730  0.21913  Biso   1.000  C
  C58      1.0000 0.85670  0.40730  0.28087  Biso   1.000  C
  C59      1.0000 0.85670  0.09270  0.78087  Biso   1.000  C
  C60      1.0000 0.14330  0.59270  0.71913  Biso   1.000  C
  H45      1.0000 0.20080  0.90950  0.24330  Biso   1.000  H
  H46      1.0000 0.79920  0.40950  0.25670  Biso   1.000  H
  H47      1.0000 0.79920  0.09050  0.75670  Biso   1.000  H
  H48      1.0000 0.20080  0.59050  0.74330  Biso   1.000  H
  C61      1.0000 0.07980  0.78250  0.20756  Biso   1.000  C
  C62      1.0000 0.92020  0.28250  0.29244  Biso   1.000  C
  C63      1.0000 0.92020  0.21750  0.79244  Biso   1.000  C
  C64      1.0000 0.07980  0.71750  0.70756  Biso   1.000  C
  C65      1.0000 0.99580  0.78880  0.17158  Biso   1.000  C
  C66      1.0000 0.00420  0.28880  0.32842  Biso   1.000  C
  C67      1.0000 0.00420  0.21120  0.82842  Biso   1.000  C
  C68      1.0000 0.99580  0.71120  0.67158  Biso   1.000  C
  H49      1.0000 0.95070  0.70750  0.16230  Biso   1.000  H
  H50      1.0000 0.04930  0.20750  0.33770  Biso   1.000  H
  H51      1.0000 0.04930  0.29250  0.83770  Biso   1.000  H
  H52      1.0000 0.95070  0.79250  0.66230  Biso   1.000  H
  C69      1.0000 0.97910  0.91280  0.14990  Biso   1.000  C
  C70      1.0000 0.02090  0.41280  0.35010  Biso   1.000  C
  C71      1.0000 0.02090  0.08720  0.85010  Biso   1.000  C
  C72      1.0000 0.97910  0.58720  0.64990  Biso   1.000  C
  H53      1.0000 0.92070  0.91430  0.12590  Biso   1.000  H
  H54      1.0000 0.07930  0.41430  0.37410  Biso   1.000  H
  H55      1.0000 0.07930  0.08570  0.87410  Biso   1.000  H
  H56      1.0000 0.92070  0.58570  0.62590  Biso   1.000  H
  N17      1.0000 0.27100  0.38940  0.81380  Biso   1.000  N
  N18      1.0000 0.72900  0.88940  0.68620  Biso   1.000  N
  N19      1.0000 0.72900  0.61060  0.18620  Biso   1.000  N
  N20      1.0000 0.27100  0.11060  0.31380  Biso   1.000  N
  H57      1.0000 0.27200  0.33800  0.79240  Biso   1.000  H
  H58      1.0000 0.72800  0.83800  0.70760  Biso   1.000  H
  H59      1.0000 0.72800  0.66200  0.20760  Biso   1.000  H
  H60      1.0000 0.27200  0.16200  0.29240  Biso   1.000  H
  H61      1.0000 0.25600  0.48300  0.81080  Biso   1.000  H
  H62      1.0000 0.74400  0.98300  0.68920  Biso   1.000  H
  H63      1.0000 0.74400  0.51700  0.18920  Biso   1.000  H
  H64      1.0000 0.25600  0.01700  0.31080  Biso   1.000  H
  C73      1.0000 0.30380  0.33450  0.85158  Biso   1.000  C
  C74      1.0000 0.69620  0.83450  0.64842  Biso   1.000  C
  C75      1.0000 0.69620  0.66550  0.14842  Biso   1.000  C
  C76      1.0000 0.30380  0.16550  0.35158  Biso   1.000  C
  C77      1.0000 0.33350  0.19200  0.85733  Biso   1.000  C
  C78      1.0000 0.66650  0.69200  0.64267  Biso   1.000  C
  C79      1.0000 0.66650  0.80800  0.14267  Biso   1.000  C
  C80      1.0000 0.33350  0.30800  0.35733  Biso   1.000  C
  H65      1.0000 0.32750  0.12980  0.83410  Biso   1.000  H
  H66      1.0000 0.67250  0.62980  0.66590  Biso   1.000  H
  H67      1.0000 0.67250  0.87020  0.16590  Biso   1.000  H
  H68      1.0000 0.32750  0.37020  0.33410  Biso   1.000  H
  C81      1.0000 0.37120  0.14260  0.89670  Biso   1.000  C
  C82      1.0000 0.62880  0.64260  0.60330  Biso   1.000  C
  C83      1.0000 0.62880  0.85740  0.10330  Biso   1.000  C
  C84      1.0000 0.37120  0.35740  0.39670  Biso   1.000  C
  H69      1.0000 0.39230  0.04610  0.90040  Biso   1.000  H
  H70      1.0000 0.60770  0.54610  0.59960  Biso   1.000  H
  H71      1.0000 0.60770  0.95390  0.09960  Biso   1.000  H
  H72      1.0000 0.39230  0.45390  0.40040  Biso   1.000  H
  N21      1.0000 0.37900  0.22780  0.93003  Biso   1.000  N
  N22      1.0000 0.62100  0.72780  0.56997  Biso   1.000  N
  N23      1.0000 0.62100  0.77220  0.06997  Biso   1.000  N
  N24      1.0000 0.37900  0.27220  0.43003  Biso   1.000  N
  H73      1.0000 0.39900  0.20500  0.95150  Biso   1.000  H
  H74      1.0000 0.60100  0.70500  0.54850  Biso   1.000  H
  H75      1.0000 0.60100  0.79500  0.04850  Biso   1.000  H
  H76      1.0000 0.39900  0.29500  0.45150  Biso   1.000  H
  C85      1.0000 0.34810  0.36370  0.92590  Biso   1.000  C
  C86      1.0000 0.65190  0.86370  0.57410  Biso   1.000  C
  C87      1.0000 0.65190  0.63630  0.07410  Biso   1.000  C
  C88      1.0000 0.34810  0.13630  0.42590  Biso   1.000  C
  H77      1.0000 0.35390  0.42230  0.94990  Biso   1.000  H
  H78      1.0000 0.64610  0.92230  0.55010  Biso   1.000  H
  H79      1.0000 0.64610  0.57770  0.05010  Biso   1.000  H
  H80      1.0000 0.35390  0.07770  0.44990  Biso   1.000  H
  C89      1.0000 0.30860  0.41920  0.88786  Biso   1.000  C
  C90      1.0000 0.69140  0.91920  0.61214  Biso   1.000  C
  C91      1.0000 0.69140  0.58080  0.11214  Biso   1.000  C
  C92      1.0000 0.30860  0.08080  0.38786  Biso   1.000  C
  H81      1.0000 0.28430  0.51500  0.88570  Biso   1.000  H
  H82      1.0000 0.71570  0.01500  0.61430  Biso   1.000  H
  H83      1.0000 0.71570  0.48500  0.11430  Biso   1.000  H
  H84      1.0000 0.28430  0.98500  0.38570  Biso   1.000  H
  O17      1.0000 0.46953  0.16030  0.00776  Biso   1.000  O
  O18      1.0000 0.53047  0.66030  0.49224  Biso   1.000  O
  O19      1.0000 0.53047  0.83970  0.99224  Biso   1.000  O
  O20      1.0000 0.46953  0.33970  0.50776  Biso   1.000  O
  C93      1.0000 0.42680  0.24120  0.03401  Biso   1.000  C
  C94      1.0000 0.57320  0.74120  0.46599  Biso   1.000  C
  C95      1.0000 0.57320  0.75880  0.96599  Biso   1.000  C
  C96      1.0000 0.42680  0.25880  0.53401  Biso   1.000  C
  N25      1.0000 0.66600  0.13100  0.44276  Biso   1.000  N
  N26      1.0000 0.33400  0.63100  0.05724  Biso   1.000  N
  N27      1.0000 0.33400  0.86900  0.55724  Biso   1.000  N
  N28      1.0000 0.66600  0.36900  0.94276  Biso   1.000  N
  H85      1.0000 0.68630  0.20120  0.45990  Biso   1.000  H
  H86      1.0000 0.31370  0.70120  0.04010  Biso   1.000  H
  H87      1.0000 0.31370  0.79880  0.54010  Biso   1.000  H
  H88      1.0000 0.68630  0.29880  0.95990  Biso   1.000  H
  H89      1.0000 0.65610  0.04600  0.45270  Biso   1.000  H
  H90      1.0000 0.34390  0.54600  0.04730  Biso   1.000  H
  H91      1.0000 0.34390  0.95400  0.54730  Biso   1.000  H
  H92      1.0000 0.65610  0.45400  0.95270  Biso   1.000  H
  O21      1.0000 0.35769  0.34350  0.02533  Biso   1.000  O
  O22      1.0000 0.64231  0.84350  0.47467  Biso   1.000  O
  O23      1.0000 0.64231  0.65650  0.97467  Biso   1.000  O
  O24      1.0000 0.35769  0.15650  0.52533  Biso   1.000  O
  C97      1.0000 0.65020  0.15360  0.40163  Biso   1.000  C
  C98      1.0000 0.34980  0.65360  0.09837  Biso   1.000  C
  C99      1.0000 0.34980  0.84640  0.59837  Biso   1.000  C
  C100     1.0000 0.65020  0.34640  0.90163  Biso   1.000  C
  C101     1.0000 0.61620  0.04260  0.37342  Biso   1.000  C
  C102     1.0000 0.38380  0.54260  0.12658  Biso   1.000  C
  C103     1.0000 0.38380  0.95740  0.62658  Biso   1.000  C
  C104     1.0000 0.61620  0.45740  0.87342  Biso   1.000  C
  H93      1.0000 0.60770  0.94990  0.38370  Biso   1.000  H
  H94      1.0000 0.39230  0.44990  0.11630  Biso   1.000  H
  H95      1.0000 0.39230  0.05010  0.61630  Biso   1.000  H
  H96      1.0000 0.60770  0.55010  0.88370  Biso   1.000  H
  C105     1.0000 0.59560  0.06800  0.33166  Biso   1.000  C
  C106     1.0000 0.40440  0.56800  0.16834  Biso   1.000  C
  C107     1.0000 0.40440  0.93200  0.66834  Biso   1.000  C
  C108     1.0000 0.59560  0.43200  0.83166  Biso   1.000  C
  H97      1.0000 0.57310  0.99260  0.31300  Biso   1.000  H
  H98      1.0000 0.42690  0.49260  0.18700  Biso   1.000  H
  H99      1.0000 0.42690  0.00740  0.68700  Biso   1.000  H
  H100     1.0000 0.57310  0.50740  0.81300  Biso   1.000  H
  N29      1.0000 0.60680  0.19840  0.31658  Biso   1.000  N
  N30      1.0000 0.39320  0.69840  0.18342  Biso   1.000  N
  N31      1.0000 0.39320  0.80160  0.68342  Biso   1.000  N
  N32      1.0000 0.60680  0.30160  0.81658  Biso   1.000  N
  H101     1.0000 0.59070  0.21370  0.28960  Biso   1.000  H
  H102     1.0000 0.40930  0.71370  0.21040  Biso   1.000  H
  H103     1.0000 0.40930  0.78630  0.71040  Biso   1.000  H
  H104     1.0000 0.59070  0.28630  0.78960  Biso   1.000  H
  C109     1.0000 0.64200  0.30490  0.34185  Biso   1.000  C
  C110     1.0000 0.35800  0.80490  0.15815  Biso   1.000  C
  C111     1.0000 0.35800  0.69510  0.65815  Biso   1.000  C
  C112     1.0000 0.64200  0.19510  0.84185  Biso   1.000  C
  H105     1.0000 0.65150  0.39550  0.33020  Biso   1.000  H
  H106     1.0000 0.34850  0.89550  0.16980  Biso   1.000  H
  H107     1.0000 0.34850  0.60450  0.66980  Biso   1.000  H
  H108     1.0000 0.65150  0.10450  0.83020  Biso   1.000  H
  C113     1.0000 0.66490  0.28810  0.38421  Biso   1.000  C
  C114     1.0000 0.33510  0.78810  0.11579  Biso   1.000  C
  C115     1.0000 0.33510  0.71190  0.61579  Biso   1.000  C
  C116     1.0000 0.66490  0.21190  0.88421  Biso   1.000  C
  H109     1.0000 0.69040  0.36570  0.40160  Biso   1.000  H
  H110     1.0000 0.30960  0.86570  0.09840  Biso   1.000  H
  H111     1.0000 0.30960  0.63430  0.59840  Biso   1.000  H
  H112     1.0000 0.69040  0.13430  0.90160  Biso   1.000  H
  O25      1.0000 0.71166  0.81090  0.25629  Biso   1.000  O
  O26      1.0000 0.28834  0.31090  0.24371  Biso   1.000  O
  O27      1.0000 0.28834  0.18910  0.74371  Biso   1.000  O
  O28      1.0000 0.71166  0.68910  0.75629  Biso   1.000  O
  H113     1.0000 0.63500  0.79200  0.26020  Biso   1.000  H
  H114     1.0000 0.36500  0.29200  0.23980  Biso   1.000  H
  H115     1.0000 0.36500  0.20800  0.73980  Biso   1.000  H
  H116     1.0000 0.63500  0.70800  0.76020  Biso   1.000  H
  H117     1.0000 0.69900  0.89100  0.24530  Biso   1.000  H
  H118     1.0000 0.30100  0.39100  0.25470  Biso   1.000  H
  H119     1.0000 0.30100  0.10900  0.75470  Biso   1.000  H
  H120     1.0000 0.69900  0.60900  0.74530  Biso   1.000  H
  O29      1.0000 0.04590  0.37230  0.19029  Biso   1.000  O
  O30      1.0000 0.95410  0.87230  0.30971  Biso   1.000  O
  O31      1.0000 0.95410  0.62770  0.80971  Biso   1.000  O
  O32      1.0000 0.04590  0.12770  0.69029  Biso   1.000  O
  H121     1.0000 0.09800  0.34000  0.20730  Biso   1.000  H
  H122     1.0000 0.90200  0.84000  0.29270  Biso   1.000  H
  H123     1.0000 0.90200  0.66000  0.79270  Biso   1.000  H
  H124     1.0000 0.09800  0.16000  0.70730  Biso   1.000  H
  H125     1.0000 0.97100  0.34600  0.19930  Biso   1.000  H
  H126     1.0000 0.02900  0.84600  0.30070  Biso   1.000  H
  H127     1.0000 0.02900  0.65400  0.80070  Biso   1.000  H
  H128     1.0000 0.97100  0.15400  0.69930  Biso   1.000  H
  O33      1.0000 0.27910  0.89600  0.00587  Biso   1.000  O
  O34      1.0000 0.72090  0.39600  0.49413  Biso   1.000  O
  O35      1.0000 0.72090  0.10400  0.99413  Biso   1.000  O
  O36      1.0000 0.27910  0.60400  0.50587  Biso   1.000  O
  H129     1.0000 0.35800  0.88600  0.00370  Biso   1.000  H
  H130     1.0000 0.64200  0.38600  0.49630  Biso   1.000  H
  H131     1.0000 0.64200  0.11400  0.99630  Biso   1.000  H
  H132     1.0000 0.35800  0.61400  0.50370  Biso   1.000  H
  H133     1.0000 0.27000  0.96200  0.02210  Biso   1.000  H
  H134     1.0000 0.73000  0.46200  0.47790  Biso   1.000  H
  H135     1.0000 0.73000  0.03800  0.97790  Biso   1.000  H
  H136     1.0000 0.27000  0.53800  0.52210  Biso   1.000  H
  O37      1.0000 0.96990  0.02140  0.05301  Biso   1.000  O
  O38      1.0000 0.03010  0.52140  0.44699  Biso   1.000  O
  O39      1.0000 0.03010  0.97860  0.94699  Biso   1.000  O
  O40      1.0000 0.96990  0.47860  0.55301  Biso   1.000  O
  H137     1.0000 0.04500  0.05500  0.05290  Biso   1.000  H
  H138     1.0000 0.95500  0.55500  0.44710  Biso   1.000  H
  H139     1.0000 0.95500  0.94500  0.94710  Biso   1.000  H
  H140     1.0000 0.04500  0.44500  0.55290  Biso   1.000  H
  H141     1.0000 0.91500  0.07100  0.03800  Biso   1.000  H
  H142     1.0000 0.08500  0.57100  0.46200  Biso   1.000  H
  H143     1.0000 0.08500  0.92900  0.96200  Biso   1.000  H
  H144     1.0000 0.91500  0.42900  0.53800  Biso   1.000  H
  O41      1.0000 0.83614  0.17720  0.12414  Biso   1.000  O
  O42      1.0000 0.16386  0.67720  0.37586  Biso   1.000  O
  O43      1.0000 0.16386  0.82280  0.87586  Biso   1.000  O
  O44      1.0000 0.83614  0.32280  0.62414  Biso   1.000  O
  C117     1.0000 0.76830  0.23260  0.14890  Biso   1.000  C
  C118     1.0000 0.23170  0.73260  0.35110  Biso   1.000  C
  C119     1.0000 0.23170  0.76740  0.85110  Biso   1.000  C
  C120     1.0000 0.76830  0.26740  0.64890  Biso   1.000  C
  O45      1.0000 0.80153  0.30590  0.18026  Biso   1.000  O
  O46      1.0000 0.19847  0.80590  0.31974  Biso   1.000  O
  O47      1.0000 0.19847  0.69410  0.81974  Biso   1.000  O
  O48      1.0000 0.80153  0.19410  0.68026  Biso   1.000  O
