data_image0
_cell_length_a       21.7689
_cell_length_b       7.07867
_cell_length_c       21.7756
_cell_angle_alpha    90
_cell_angle_beta     119.564
_cell_angle_gamma    90

_symmetry_space_group_name_H-M    "P 1"
_symmetry_int_tables_number       1

loop_
  _symmetry_equiv_pos_as_xyz
  'x, y, z'

loop_
  _atom_site_label
  _atom_site_occupancy
  _atom_site_fract_x
  _atom_site_fract_y
  _atom_site_fract_z
  _atom_site_thermal_displace_type
  _atom_site_B_iso_or_equiv
  _atom_site_type_symbol
  N1       1.0000 0.66130  0.00100  0.91050  Biso   1.000  N
  N2       1.0000 0.33870  0.00100  0.58950  Biso   1.000  N
  N3       1.0000 0.16130  0.50100  0.91050  Biso   1.000  N
  N4       1.0000 0.83870  0.50100  0.58950  Biso   1.000  N
  N5       1.0000 0.33870  0.99900  0.08950  Biso   1.000  N
  N6       1.0000 0.66130  0.99900  0.41050  Biso   1.000  N
  N7       1.0000 0.83870  0.49900  0.08950  Biso   1.000  N
  N8       1.0000 0.16130  0.49900  0.41050  Biso   1.000  N
  C1       1.0000 0.65750  0.06030  0.85090  Biso   1.000  C
  C2       1.0000 0.34250  0.06030  0.64910  Biso   1.000  C
  C3       1.0000 0.15750  0.56030  0.85090  Biso   1.000  C
  C4       1.0000 0.84250  0.56030  0.64910  Biso   1.000  C
  C5       1.0000 0.34250  0.93970  0.14910  Biso   1.000  C
  C6       1.0000 0.65750  0.93970  0.35090  Biso   1.000  C
  C7       1.0000 0.84250  0.43970  0.14910  Biso   1.000  C
  C8       1.0000 0.15750  0.43970  0.35090  Biso   1.000  C
  H1       1.0000 0.69950  0.10420  0.85240  Biso   1.000  H
  H2       1.0000 0.30050  0.10420  0.64760  Biso   1.000  H
  H3       1.0000 0.19950  0.60420  0.85240  Biso   1.000  H
  H4       1.0000 0.80050  0.60420  0.64760  Biso   1.000  H
  H5       1.0000 0.30050  0.89580  0.14760  Biso   1.000  H
  H6       1.0000 0.69950  0.89580  0.35240  Biso   1.000  H
  H7       1.0000 0.80050  0.39580  0.14760  Biso   1.000  H
  H8       1.0000 0.19950  0.39580  0.35240  Biso   1.000  H
  C9       1.0000 0.59580  0.06130  0.78690  Biso   1.000  C
  C10      1.0000 0.40420  0.06130  0.71310  Biso   1.000  C
  C11      1.0000 0.09580  0.56130  0.78690  Biso   1.000  C
  C12      1.0000 0.90420  0.56130  0.71310  Biso   1.000  C
  C13      1.0000 0.40420  0.93870  0.21310  Biso   1.000  C
  C14      1.0000 0.59580  0.93870  0.28690  Biso   1.000  C
  C15      1.0000 0.90420  0.43870  0.21310  Biso   1.000  C
  C16      1.0000 0.09580  0.43870  0.28690  Biso   1.000  C
  H9       1.0000 0.59580  0.10300  0.74550  Biso   1.000  H
  H10      1.0000 0.40420  0.10300  0.75450  Biso   1.000  H
  H11      1.0000 0.09580  0.60300  0.74550  Biso   1.000  H
  H12      1.0000 0.90420  0.60300  0.75450  Biso   1.000  H
  H13      1.0000 0.40420  0.89700  0.25450  Biso   1.000  H
  H14      1.0000 0.59580  0.89700  0.24550  Biso   1.000  H
  H15      1.0000 0.90420  0.39700  0.25450  Biso   1.000  H
  H16      1.0000 0.09580  0.39700  0.24550  Biso   1.000  H
  C17      1.0000 0.53360  0.00100  0.78367  Biso   1.000  C
  C18      1.0000 0.46640  0.00100  0.71633  Biso   1.000  C
  C19      1.0000 0.03360  0.50100  0.78367  Biso   1.000  C
  C20      1.0000 0.96640  0.50100  0.71633  Biso   1.000  C
  C21      1.0000 0.46640  0.99900  0.21633  Biso   1.000  C
  C22      1.0000 0.53360  0.99900  0.28367  Biso   1.000  C
  C23      1.0000 0.96640  0.49900  0.21633  Biso   1.000  C
  C24      1.0000 0.03360  0.49900  0.28367  Biso   1.000  C
  C25      1.0000 0.53740  0.93790  0.84590  Biso   1.000  C
  C26      1.0000 0.46260  0.93790  0.65410  Biso   1.000  C
  C27      1.0000 0.03740  0.43790  0.84590  Biso   1.000  C
  C28      1.0000 0.96260  0.43790  0.65410  Biso   1.000  C
  C29      1.0000 0.46260  0.06210  0.15410  Biso   1.000  C
  C30      1.0000 0.53740  0.06210  0.34590  Biso   1.000  C
  C31      1.0000 0.96260  0.56210  0.15410  Biso   1.000  C
  C32      1.0000 0.03740  0.56210  0.34590  Biso   1.000  C
  H17      1.0000 0.49620  0.89410  0.84600  Biso   1.000  H
  H18      1.0000 0.50380  0.89410  0.65400  Biso   1.000  H
  H19      1.0000 0.99620  0.39410  0.84600  Biso   1.000  H
  H20      1.0000 0.00380  0.39410  0.65400  Biso   1.000  H
  H21      1.0000 0.50380  0.10590  0.15400  Biso   1.000  H
  H22      1.0000 0.49620  0.10590  0.34600  Biso   1.000  H
  H23      1.0000 0.00380  0.60590  0.15400  Biso   1.000  H
  H24      1.0000 0.99620  0.60590  0.34600  Biso   1.000  H
  C33      1.0000 0.60170  0.93930  0.90780  Biso   1.000  C
  C34      1.0000 0.39830  0.93930  0.59220  Biso   1.000  C
  C35      1.0000 0.10170  0.43930  0.90780  Biso   1.000  C
  C36      1.0000 0.89830  0.43930  0.59220  Biso   1.000  C
  C37      1.0000 0.39830  0.06070  0.09220  Biso   1.000  C
  C38      1.0000 0.60170  0.06070  0.40780  Biso   1.000  C
  C39      1.0000 0.89830  0.56070  0.09220  Biso   1.000  C
  C40      1.0000 0.10170  0.56070  0.40780  Biso   1.000  C
  H25      1.0000 0.60380  0.89480  0.94990  Biso   1.000  H
  H26      1.0000 0.39620  0.89480  0.55010  Biso   1.000  H
  H27      1.0000 0.10380  0.39480  0.94990  Biso   1.000  H
  H28      1.0000 0.89620  0.39480  0.55010  Biso   1.000  H
  H29      1.0000 0.39620  0.10520  0.05010  Biso   1.000  H
  H30      1.0000 0.60380  0.10520  0.44990  Biso   1.000  H
  H31      1.0000 0.89620  0.60520  0.05010  Biso   1.000  H
  H32      1.0000 0.10380  0.60520  0.44990  Biso   1.000  H
  Cu1      1.0000 0.75070  0.99810  0.00510  Biso   1.000  Cu
  Cu2      1.0000 0.24930  0.99810  0.49490  Biso   1.000  Cu
  Cu3      1.0000 0.25070  0.49810  0.00510  Biso   1.000  Cu
  Cu4      1.0000 0.74930  0.49810  0.49490  Biso   1.000  Cu
  Cu5      1.0000 0.24930  0.00190  0.99490  Biso   1.000  Cu
  Cu6      1.0000 0.75070  0.00190  0.50510  Biso   1.000  Cu
  Cu7      1.0000 0.74930  0.50190  0.99490  Biso   1.000  Cu
  Cu8      1.0000 0.25070  0.50190  0.50510  Biso   1.000  Cu
  O1       1.0000 0.71130  0.83800  0.04910  Biso   1.000  O
  O2       1.0000 0.28870  0.83800  0.45090  Biso   1.000  O
  O3       1.0000 0.21130  0.33800  0.04910  Biso   1.000  O
  O4       1.0000 0.78870  0.33800  0.45090  Biso   1.000  O
  O5       1.0000 0.28870  0.16200  0.95090  Biso   1.000  O
  O6       1.0000 0.71130  0.16200  0.54910  Biso   1.000  O
  O7       1.0000 0.78870  0.66200  0.95090  Biso   1.000  O
  O8       1.0000 0.21130  0.66200  0.54910  Biso   1.000  O
  C41      1.0000 0.75340  0.83800  0.11990  Biso   1.000  C
  C42      1.0000 0.24660  0.83800  0.38010  Biso   1.000  C
  C43      1.0000 0.25340  0.33800  0.11990  Biso   1.000  C
  C44      1.0000 0.74660  0.33800  0.38010  Biso   1.000  C
  C45      1.0000 0.24660  0.16200  0.88010  Biso   1.000  C
  C46      1.0000 0.75340  0.16200  0.61990  Biso   1.000  C
  C47      1.0000 0.74660  0.66200  0.88010  Biso   1.000  C
  C48      1.0000 0.25340  0.66200  0.61990  Biso   1.000  C
  C49      1.0000 0.73210  0.75350  0.16560  Biso   1.000  C
  C50      1.0000 0.26790  0.75350  0.33440  Biso   1.000  C
  C51      1.0000 0.23210  0.25350  0.16560  Biso   1.000  C
  C52      1.0000 0.76790  0.25350  0.33440  Biso   1.000  C
  C53      1.0000 0.26790  0.24650  0.83440  Biso   1.000  C
  C54      1.0000 0.73210  0.24650  0.66560  Biso   1.000  C
  C55      1.0000 0.76790  0.74650  0.83440  Biso   1.000  C
  C56      1.0000 0.23210  0.74650  0.66560  Biso   1.000  C
  H33      1.0000 0.68690  0.69590  0.14630  Biso   1.000  H
  H34      1.0000 0.31310  0.69590  0.35370  Biso   1.000  H
  H35      1.0000 0.18690  0.19590  0.14630  Biso   1.000  H
  H36      1.0000 0.81310  0.19590  0.35370  Biso   1.000  H
  H37      1.0000 0.31310  0.30410  0.85370  Biso   1.000  H
  H38      1.0000 0.68690  0.30410  0.64630  Biso   1.000  H
  H39      1.0000 0.81310  0.80410  0.85370  Biso   1.000  H
  H40      1.0000 0.18690  0.80410  0.64630  Biso   1.000  H
  C57      1.0000 0.77650  0.75460  0.23780  Biso   1.000  C
  C58      1.0000 0.22350  0.75460  0.26220  Biso   1.000  C
  C59      1.0000 0.27650  0.25460  0.23780  Biso   1.000  C
  C60      1.0000 0.72350  0.25460  0.26220  Biso   1.000  C
  C61      1.0000 0.22350  0.24540  0.76220  Biso   1.000  C
  C62      1.0000 0.77650  0.24540  0.73780  Biso   1.000  C
  C63      1.0000 0.72350  0.74540  0.76220  Biso   1.000  C
  C64      1.0000 0.27650  0.74540  0.73780  Biso   1.000  C
  H41      1.0000 0.76200  0.69830  0.26820  Biso   1.000  H
  H42      1.0000 0.23800  0.69830  0.23180  Biso   1.000  H
  H43      1.0000 0.26200  0.19830  0.26820  Biso   1.000  H
  H44      1.0000 0.73800  0.19830  0.23180  Biso   1.000  H
  H45      1.0000 0.23800  0.30170  0.73180  Biso   1.000  H
  H46      1.0000 0.76200  0.30170  0.76820  Biso   1.000  H
  H47      1.0000 0.73800  0.80170  0.73180  Biso   1.000  H
  H48      1.0000 0.26200  0.80170  0.76820  Biso   1.000  H
  C65      1.0000 0.84290  0.83900  0.26580  Biso   1.000  C
  C66      1.0000 0.15710  0.83900  0.23420  Biso   1.000  C
  C67      1.0000 0.34290  0.33900  0.26580  Biso   1.000  C
  C68      1.0000 0.65710  0.33900  0.23420  Biso   1.000  C
  C69      1.0000 0.15710  0.16100  0.73420  Biso   1.000  C
  C70      1.0000 0.84290  0.16100  0.76580  Biso   1.000  C
  C71      1.0000 0.65710  0.66100  0.73420  Biso   1.000  C
  C72      1.0000 0.34290  0.66100  0.76580  Biso   1.000  C
  H49      1.0000 0.87350  0.84130  0.31540  Biso   1.000  H
  H50      1.0000 0.12650  0.84130  0.18460  Biso   1.000  H
  H51      1.0000 0.37350  0.34130  0.31540  Biso   1.000  H
  H52      1.0000 0.62650  0.34130  0.18460  Biso   1.000  H
  H53      1.0000 0.12650  0.15870  0.68460  Biso   1.000  H
  H54      1.0000 0.87350  0.15870  0.81540  Biso   1.000  H
  H55      1.0000 0.62650  0.65870  0.68460  Biso   1.000  H
  H56      1.0000 0.37350  0.65870  0.81540  Biso   1.000  H
  C73      1.0000 0.86420  0.91930  0.22150  Biso   1.000  C
  C74      1.0000 0.13580  0.91930  0.27850  Biso   1.000  C
  C75      1.0000 0.36420  0.41930  0.22150  Biso   1.000  C
  C76      1.0000 0.63580  0.41930  0.27850  Biso   1.000  C
  C77      1.0000 0.13580  0.08070  0.77850  Biso   1.000  C
  C78      1.0000 0.86420  0.08070  0.72150  Biso   1.000  C
  C79      1.0000 0.63580  0.58070  0.77850  Biso   1.000  C
  C80      1.0000 0.36420  0.58070  0.72150  Biso   1.000  C
  H57      1.0000 0.90930  0.97780  0.24090  Biso   1.000  H
  H58      1.0000 0.09070  0.97780  0.25910  Biso   1.000  H
  H59      1.0000 0.40930  0.47780  0.24090  Biso   1.000  H
  H60      1.0000 0.59070  0.47780  0.25910  Biso   1.000  H
  H61      1.0000 0.09070  0.02220  0.75910  Biso   1.000  H
  H62      1.0000 0.90930  0.02220  0.74090  Biso   1.000  H
  H63      1.0000 0.59070  0.52220  0.75910  Biso   1.000  H
  H64      1.0000 0.40930  0.52220  0.74090  Biso   1.000  H
  C81      1.0000 0.82090  0.91500  0.14980  Biso   1.000  C
  C82      1.0000 0.17910  0.91500  0.35020  Biso   1.000  C
  C83      1.0000 0.32090  0.41500  0.14980  Biso   1.000  C
  C84      1.0000 0.67910  0.41500  0.35020  Biso   1.000  C
  C85      1.0000 0.17910  0.08500  0.85020  Biso   1.000  C
  C86      1.0000 0.82090  0.08500  0.64980  Biso   1.000  C
  C87      1.0000 0.67910  0.58500  0.85020  Biso   1.000  C
  C88      1.0000 0.32090  0.58500  0.64980  Biso   1.000  C
  N9       1.0000 0.83520  0.99080  0.09850  Biso   1.000  N
  N10      1.0000 0.16480  0.99080  0.40150  Biso   1.000  N
  N11      1.0000 0.33520  0.49080  0.09850  Biso   1.000  N
  N12      1.0000 0.66480  0.49080  0.40150  Biso   1.000  N
  N13      1.0000 0.16480  0.00920  0.90150  Biso   1.000  N
  N14      1.0000 0.83520  0.00920  0.59850  Biso   1.000  N
  N15      1.0000 0.66480  0.50920  0.90150  Biso   1.000  N
  N16      1.0000 0.33520  0.50920  0.59850  Biso   1.000  N
  C89      1.0000 0.89780  0.03010  0.10980  Biso   1.000  C
  C90      1.0000 0.10220  0.03010  0.39020  Biso   1.000  C
  C91      1.0000 0.39780  0.53010  0.10980  Biso   1.000  C
  C92      1.0000 0.60220  0.53010  0.39020  Biso   1.000  C
  C93      1.0000 0.10220  0.96990  0.89020  Biso   1.000  C
  C94      1.0000 0.89780  0.96990  0.60980  Biso   1.000  C
  C95      1.0000 0.60220  0.46990  0.89020  Biso   1.000  C
  C96      1.0000 0.39780  0.46990  0.60980  Biso   1.000  C
  H65      1.0000 0.93620  0.00390  0.15550  Biso   1.000  H
  H66      1.0000 0.06380  0.00390  0.34450  Biso   1.000  H
  H67      1.0000 0.43620  0.50390  0.15550  Biso   1.000  H
  H68      1.0000 0.56380  0.50390  0.34450  Biso   1.000  H
  H69      1.0000 0.06380  0.99610  0.84450  Biso   1.000  H
  H70      1.0000 0.93620  0.99610  0.65550  Biso   1.000  H
  H71      1.0000 0.56380  0.49610  0.84450  Biso   1.000  H
  H72      1.0000 0.43620  0.49610  0.65550  Biso   1.000  H
  C97      1.0000 0.91420  0.11100  0.05890  Biso   1.000  C
  C98      1.0000 0.08580  0.11100  0.44110  Biso   1.000  C
  C99      1.0000 0.41420  0.61100  0.05890  Biso   1.000  C
  C100     1.0000 0.58580  0.61100  0.44110  Biso   1.000  C
  C101     1.0000 0.08580  0.88900  0.94110  Biso   1.000  C
  C102     1.0000 0.91420  0.88900  0.55890  Biso   1.000  C
  C103     1.0000 0.58580  0.38900  0.94110  Biso   1.000  C
  C104     1.0000 0.41420  0.38900  0.55890  Biso   1.000  C
  C105     1.0000 0.98620  0.13690  0.08110  Biso   1.000  C
  C106     1.0000 0.01380  0.13690  0.41890  Biso   1.000  C
  C107     1.0000 0.48620  0.63690  0.08110  Biso   1.000  C
  C108     1.0000 0.51380  0.63690  0.41890  Biso   1.000  C
  C109     1.0000 0.01380  0.86310  0.91890  Biso   1.000  C
  C110     1.0000 0.98620  0.86310  0.58110  Biso   1.000  C
  C111     1.0000 0.51380  0.36310  0.91890  Biso   1.000  C
  C112     1.0000 0.48620  0.36310  0.58110  Biso   1.000  C
  H73      1.0000 0.02090  0.09460  0.12660  Biso   1.000  H
  H74      1.0000 0.97910  0.09460  0.37340  Biso   1.000  H
  H75      1.0000 0.52090  0.59460  0.12660  Biso   1.000  H
  H76      1.0000 0.47910  0.59460  0.37340  Biso   1.000  H
  H77      1.0000 0.97910  0.90540  0.87340  Biso   1.000  H
  H78      1.0000 0.02090  0.90540  0.62660  Biso   1.000  H
  H79      1.0000 0.47910  0.40540  0.87340  Biso   1.000  H
  H80      1.0000 0.52090  0.40540  0.62660  Biso   1.000  H
  C113     1.0000 0.00620  0.22110  0.03880  Biso   1.000  C
  C114     1.0000 0.99380  0.22110  0.46120  Biso   1.000  C
  C115     1.0000 0.50620  0.72110  0.03880  Biso   1.000  C
  C116     1.0000 0.49380  0.72110  0.46120  Biso   1.000  C
  C117     1.0000 0.99380  0.77890  0.96120  Biso   1.000  C
  C118     1.0000 0.00620  0.77890  0.53880  Biso   1.000  C
  C119     1.0000 0.49380  0.27890  0.96120  Biso   1.000  C
  C120     1.0000 0.50620  0.27890  0.53880  Biso   1.000  C
  H81      1.0000 0.05500  0.23320  0.05330  Biso   1.000  H
  H82      1.0000 0.94500  0.23320  0.44670  Biso   1.000  H
  H83      1.0000 0.55500  0.73320  0.05330  Biso   1.000  H
  H84      1.0000 0.44500  0.73320  0.44670  Biso   1.000  H
  H85      1.0000 0.94500  0.76680  0.94670  Biso   1.000  H
  H86      1.0000 0.05500  0.76680  0.55330  Biso   1.000  H
  H87      1.0000 0.44500  0.26680  0.94670  Biso   1.000  H
  H88      1.0000 0.55500  0.26680  0.55330  Biso   1.000  H
  C121     1.0000 0.95490  0.29170  0.97280  Biso   1.000  C
  C122     1.0000 0.04510  0.29170  0.52720  Biso   1.000  C
  C123     1.0000 0.45490  0.79170  0.97280  Biso   1.000  C
  C124     1.0000 0.54510  0.79170  0.52720  Biso   1.000  C
  C125     1.0000 0.04510  0.70830  0.02720  Biso   1.000  C
  C126     1.0000 0.95490  0.70830  0.47280  Biso   1.000  C
  C127     1.0000 0.54510  0.20830  0.02720  Biso   1.000  C
  C128     1.0000 0.45490  0.20830  0.47280  Biso   1.000  C
  H89      1.0000 0.96910  0.35310  0.94310  Biso   1.000  H
  H90      1.0000 0.03090  0.35310  0.55690  Biso   1.000  H
  H91      1.0000 0.46910  0.85310  0.94310  Biso   1.000  H
  H92      1.0000 0.53090  0.85310  0.55690  Biso   1.000  H
  H93      1.0000 0.03090  0.64690  0.05690  Biso   1.000  H
  H94      1.0000 0.96910  0.64690  0.44310  Biso   1.000  H
  H95      1.0000 0.53090  0.14690  0.05690  Biso   1.000  H
  H96      1.0000 0.46910  0.14690  0.44310  Biso   1.000  H
  C129     1.0000 0.88520  0.27260  0.95140  Biso   1.000  C
  C130     1.0000 0.11480  0.27260  0.54860  Biso   1.000  C
  C131     1.0000 0.38520  0.77260  0.95140  Biso   1.000  C
  C132     1.0000 0.61480  0.77260  0.54860  Biso   1.000  C
  C133     1.0000 0.11480  0.72740  0.04860  Biso   1.000  C
  C134     1.0000 0.88520  0.72740  0.45140  Biso   1.000  C
  C135     1.0000 0.61480  0.22740  0.04860  Biso   1.000  C
  C136     1.0000 0.38520  0.22740  0.45140  Biso   1.000  C
  H97      1.0000 0.85150  0.32370  0.90700  Biso   1.000  H
  H98      1.0000 0.14850  0.32370  0.59300  Biso   1.000  H
  H99      1.0000 0.35150  0.82370  0.90700  Biso   1.000  H
  H100     1.0000 0.64850  0.82370  0.59300  Biso   1.000  H
  H101     1.0000 0.14850  0.67630  0.09300  Biso   1.000  H
  H102     1.0000 0.85150  0.67630  0.40700  Biso   1.000  H
  H103     1.0000 0.64850  0.17630  0.09300  Biso   1.000  H
  H104     1.0000 0.35150  0.17630  0.40700  Biso   1.000  H
  C137     1.0000 0.86120  0.18100  0.99200  Biso   1.000  C
  C138     1.0000 0.13880  0.18100  0.50800  Biso   1.000  C
  C139     1.0000 0.36120  0.68100  0.99200  Biso   1.000  C
  C140     1.0000 0.63880  0.68100  0.50800  Biso   1.000  C
  C141     1.0000 0.13880  0.81900  0.00800  Biso   1.000  C
  C142     1.0000 0.86120  0.81900  0.49200  Biso   1.000  C
  C143     1.0000 0.63880  0.31900  0.00800  Biso   1.000  C
  C144     1.0000 0.36120  0.31900  0.49200  Biso   1.000  C
  O9       1.0000 0.79380  0.16500  0.96900  Biso   1.000  O
  O10      1.0000 0.20620  0.16500  0.53100  Biso   1.000  O
  O11      1.0000 0.29380  0.66500  0.96900  Biso   1.000  O
  O12      1.0000 0.70620  0.66500  0.53100  Biso   1.000  O
  O13      1.0000 0.20620  0.83500  0.03100  Biso   1.000  O
  O14      1.0000 0.79380  0.83500  0.46900  Biso   1.000  O
  O15      1.0000 0.70620  0.33500  0.03100  Biso   1.000  O
  O16      1.0000 0.29380  0.33500  0.46900  Biso   1.000  O
  Cu9      1.0000 0.75700  0.00900  0.99690  Biso   1.000  Cu
  Cu10     1.0000 0.24300  0.00900  0.50310  Biso   1.000  Cu
  Cu11     1.0000 0.25700  0.50900  0.99690  Biso   1.000  Cu
  Cu12     1.0000 0.74300  0.50900  0.50310  Biso   1.000  Cu
  Cu13     1.0000 0.24300  0.99100  0.00310  Biso   1.000  Cu
  Cu14     1.0000 0.75700  0.99100  0.49690  Biso   1.000  Cu
  Cu15     1.0000 0.74300  0.49100  0.00310  Biso   1.000  Cu
  Cu16     1.0000 0.25700  0.49100  0.49690  Biso   1.000  Cu
  O17      1.0000 0.79680  0.16900  0.95390  Biso   1.000  O
  O18      1.0000 0.20320  0.16900  0.54610  Biso   1.000  O
  O19      1.0000 0.29680  0.66900  0.95390  Biso   1.000  O
  O20      1.0000 0.70320  0.66900  0.54610  Biso   1.000  O
  O21      1.0000 0.20320  0.83100  0.04610  Biso   1.000  O
  O22      1.0000 0.79680  0.83100  0.45390  Biso   1.000  O
  O23      1.0000 0.70320  0.33100  0.04610  Biso   1.000  O
  O24      1.0000 0.29680  0.33100  0.45390  Biso   1.000  O
  C145     1.0000 0.86810  0.17300  0.99300  Biso   1.000  C
  C146     1.0000 0.13190  0.17300  0.50700  Biso   1.000  C
  C147     1.0000 0.36810  0.67300  0.99300  Biso   1.000  C
  C148     1.0000 0.63190  0.67300  0.50700  Biso   1.000  C
  C149     1.0000 0.13190  0.82700  0.00700  Biso   1.000  C
  C150     1.0000 0.86810  0.82700  0.49300  Biso   1.000  C
  C151     1.0000 0.63190  0.32700  0.00700  Biso   1.000  C
  C152     1.0000 0.36810  0.32700  0.49300  Biso   1.000  C
  C153     1.0000 0.90910  0.26200  0.96630  Biso   1.000  C
  C154     1.0000 0.09090  0.26200  0.53370  Biso   1.000  C
  C155     1.0000 0.40910  0.76200  0.96630  Biso   1.000  C
  C156     1.0000 0.59090  0.76200  0.53370  Biso   1.000  C
  C157     1.0000 0.09090  0.73800  0.03370  Biso   1.000  C
  C158     1.0000 0.90910  0.73800  0.46630  Biso   1.000  C
  C159     1.0000 0.59090  0.23800  0.03370  Biso   1.000  C
  C160     1.0000 0.40910  0.23800  0.46630  Biso   1.000  C
  H105     1.0000 0.88680  0.32050  0.92110  Biso   1.000  H
  H106     1.0000 0.11320  0.32050  0.57890  Biso   1.000  H
  H107     1.0000 0.38680  0.82050  0.92110  Biso   1.000  H
  H108     1.0000 0.61320  0.82050  0.57890  Biso   1.000  H
  H109     1.0000 0.11320  0.67950  0.07890  Biso   1.000  H
  H110     1.0000 0.88680  0.67950  0.42110  Biso   1.000  H
  H111     1.0000 0.61320  0.17950  0.07890  Biso   1.000  H
  H112     1.0000 0.38680  0.17950  0.42110  Biso   1.000  H
  C161     1.0000 0.98140  0.26200  0.00750  Biso   1.000  C
  C162     1.0000 0.01860  0.26200  0.49250  Biso   1.000  C
  C163     1.0000 0.48140  0.76200  0.00750  Biso   1.000  C
  C164     1.0000 0.51860  0.76200  0.49250  Biso   1.000  C
  C165     1.0000 0.01860  0.73800  0.99250  Biso   1.000  C
  C166     1.0000 0.98140  0.73800  0.50750  Biso   1.000  C
  C167     1.0000 0.51860  0.23800  0.99250  Biso   1.000  C
  C168     1.0000 0.48140  0.23800  0.50750  Biso   1.000  C
  H113     1.0000 0.00960  0.32120  0.99080  Biso   1.000  H
  H114     1.0000 0.99040  0.32120  0.50920  Biso   1.000  H
  H115     1.0000 0.50960  0.82120  0.99080  Biso   1.000  H
  H116     1.0000 0.49040  0.82120  0.50920  Biso   1.000  H
  H117     1.0000 0.99040  0.67880  0.00920  Biso   1.000  H
  H118     1.0000 0.00960  0.67880  0.49080  Biso   1.000  H
  H119     1.0000 0.49040  0.17880  0.00920  Biso   1.000  H
  H120     1.0000 0.50960  0.17880  0.49080  Biso   1.000  H
  C169     1.0000 0.01330  0.17700  0.07330  Biso   1.000  C
  C170     1.0000 0.98670  0.17700  0.42670  Biso   1.000  C
  C171     1.0000 0.51330  0.67700  0.07330  Biso   1.000  C
  C172     1.0000 0.48670  0.67700  0.42670  Biso   1.000  C
  C173     1.0000 0.98670  0.82300  0.92670  Biso   1.000  C
  C174     1.0000 0.01330  0.82300  0.57330  Biso   1.000  C
  C175     1.0000 0.48670  0.32300  0.92670  Biso   1.000  C
  C176     1.0000 0.51330  0.32300  0.57330  Biso   1.000  C
  H121     1.0000 0.06340  0.17780  0.10110  Biso   1.000  H
  H122     1.0000 0.93660  0.17780  0.39890  Biso   1.000  H
  H123     1.0000 0.56340  0.67780  0.10110  Biso   1.000  H
  H124     1.0000 0.43660  0.67780  0.39890  Biso   1.000  H
  H125     1.0000 0.93660  0.82220  0.89890  Biso   1.000  H
  H126     1.0000 0.06340  0.82220  0.60110  Biso   1.000  H
  H127     1.0000 0.43660  0.32220  0.89890  Biso   1.000  H
  H128     1.0000 0.56340  0.32220  0.60110  Biso   1.000  H
  C177     1.0000 0.97360  0.09100  0.09920  Biso   1.000  C
  C178     1.0000 0.02640  0.09100  0.40080  Biso   1.000  C
  C179     1.0000 0.47360  0.59100  0.09920  Biso   1.000  C
  C180     1.0000 0.52640  0.59100  0.40080  Biso   1.000  C
  C181     1.0000 0.02640  0.90900  0.90080  Biso   1.000  C
  C182     1.0000 0.97360  0.90900  0.59920  Biso   1.000  C
  C183     1.0000 0.52640  0.40900  0.90080  Biso   1.000  C
  C184     1.0000 0.47360  0.40900  0.59920  Biso   1.000  C
  H129     1.0000 0.99600  0.02610  0.14310  Biso   1.000  H
  H130     1.0000 0.00400  0.02610  0.35690  Biso   1.000  H
  H131     1.0000 0.49600  0.52610  0.14310  Biso   1.000  H
  H132     1.0000 0.50400  0.52610  0.35690  Biso   1.000  H
  H133     1.0000 0.00400  0.97390  0.85690  Biso   1.000  H
  H134     1.0000 0.99600  0.97390  0.64310  Biso   1.000  H
  H135     1.0000 0.50400  0.47390  0.85690  Biso   1.000  H
  H136     1.0000 0.49600  0.47390  0.64310  Biso   1.000  H
  C185     1.0000 0.90150  0.10100  0.06050  Biso   1.000  C
  C186     1.0000 0.09850  0.10100  0.43950  Biso   1.000  C
  C187     1.0000 0.40150  0.60100  0.06050  Biso   1.000  C
  C188     1.0000 0.59850  0.60100  0.43950  Biso   1.000  C
  C189     1.0000 0.09850  0.89900  0.93950  Biso   1.000  C
  C190     1.0000 0.90150  0.89900  0.56050  Biso   1.000  C
  C191     1.0000 0.59850  0.39900  0.93950  Biso   1.000  C
  C192     1.0000 0.40150  0.39900  0.56050  Biso   1.000  C
  N17      1.0000 0.85270  0.01910  0.07680  Biso   1.000  N
  N18      1.0000 0.14730  0.01910  0.42320  Biso   1.000  N
  N19      1.0000 0.35270  0.51910  0.07680  Biso   1.000  N
  N20      1.0000 0.64730  0.51910  0.42320  Biso   1.000  N
  N21      1.0000 0.14730  0.98090  0.92320  Biso   1.000  N
  N22      1.0000 0.85270  0.98090  0.57680  Biso   1.000  N
  N23      1.0000 0.64730  0.48090  0.92320  Biso   1.000  N
  N24      1.0000 0.35270  0.48090  0.57680  Biso   1.000  N
  C193     1.0000 0.86680  0.98030  0.14040  Biso   1.000  C
  C194     1.0000 0.13320  0.98030  0.35960  Biso   1.000  C
  C195     1.0000 0.36680  0.48030  0.14040  Biso   1.000  C
  C196     1.0000 0.63320  0.48030  0.35960  Biso   1.000  C
  C197     1.0000 0.13320  0.01970  0.85960  Biso   1.000  C
  C198     1.0000 0.86680  0.01970  0.64040  Biso   1.000  C
  C199     1.0000 0.63320  0.51970  0.85960  Biso   1.000  C
  C200     1.0000 0.36680  0.51970  0.64040  Biso   1.000  C
  H137     1.0000 0.91400  0.00120  0.17690  Biso   1.000  H
  H138     1.0000 0.08600  0.00120  0.32310  Biso   1.000  H
  H139     1.0000 0.41400  0.50120  0.17690  Biso   1.000  H
  H140     1.0000 0.58600  0.50120  0.32310  Biso   1.000  H
  H141     1.0000 0.08600  0.99880  0.82310  Biso   1.000  H
  H142     1.0000 0.91400  0.99880  0.67690  Biso   1.000  H
  H143     1.0000 0.58600  0.49880  0.82310  Biso   1.000  H
  H144     1.0000 0.41400  0.49880  0.67690  Biso   1.000  H
  C201     1.0000 0.81840  0.90900  0.16110  Biso   1.000  C
  C202     1.0000 0.18160  0.90900  0.33890  Biso   1.000  C
  C203     1.0000 0.31840  0.40900  0.16110  Biso   1.000  C
  C204     1.0000 0.68160  0.40900  0.33890  Biso   1.000  C
  C205     1.0000 0.18160  0.09100  0.83890  Biso   1.000  C
  C206     1.0000 0.81840  0.09100  0.66110  Biso   1.000  C
  C207     1.0000 0.68160  0.59100  0.83890  Biso   1.000  C
  C208     1.0000 0.31840  0.59100  0.66110  Biso   1.000  C
  C209     1.0000 0.84510  0.89000  0.23450  Biso   1.000  C
  C210     1.0000 0.15490  0.89000  0.26550  Biso   1.000  C
  C211     1.0000 0.34510  0.39000  0.23450  Biso   1.000  C
  C212     1.0000 0.65490  0.39000  0.26550  Biso   1.000  C
  C213     1.0000 0.15490  0.11000  0.76550  Biso   1.000  C
  C214     1.0000 0.84510  0.11000  0.73450  Biso   1.000  C
  C215     1.0000 0.65490  0.61000  0.76550  Biso   1.000  C
  C216     1.0000 0.34510  0.61000  0.73450  Biso   1.000  C
  H145     1.0000 0.89140  0.93320  0.26650  Biso   1.000  H
  H146     1.0000 0.10860  0.93320  0.23350  Biso   1.000  H
  H147     1.0000 0.39140  0.43320  0.26650  Biso   1.000  H
  H148     1.0000 0.60860  0.43320  0.23350  Biso   1.000  H
  H149     1.0000 0.10860  0.06680  0.73350  Biso   1.000  H
  H150     1.0000 0.89140  0.06680  0.76650  Biso   1.000  H
  H151     1.0000 0.60860  0.56680  0.73350  Biso   1.000  H
  H152     1.0000 0.39140  0.56680  0.76650  Biso   1.000  H
  C217     1.0000 0.80610  0.81200  0.25940  Biso   1.000  C
  C218     1.0000 0.19390  0.81200  0.24060  Biso   1.000  C
  C219     1.0000 0.30610  0.31200  0.25940  Biso   1.000  C
  C220     1.0000 0.69390  0.31200  0.24060  Biso   1.000  C
  C221     1.0000 0.19390  0.18800  0.74060  Biso   1.000  C
  C222     1.0000 0.80610  0.18800  0.75940  Biso   1.000  C
  C223     1.0000 0.69390  0.68800  0.74060  Biso   1.000  C
  C224     1.0000 0.30610  0.68800  0.75940  Biso   1.000  C
  H153     1.0000 0.82260  0.80870  0.30880  Biso   1.000  H
  H154     1.0000 0.17740  0.80870  0.19120  Biso   1.000  H
  H155     1.0000 0.32260  0.30870  0.30880  Biso   1.000  H
  H156     1.0000 0.67740  0.30870  0.19120  Biso   1.000  H
  H157     1.0000 0.17740  0.19130  0.69120  Biso   1.000  H
  H158     1.0000 0.82260  0.19130  0.80880  Biso   1.000  H
  H159     1.0000 0.67740  0.69130  0.69120  Biso   1.000  H
  H160     1.0000 0.32260  0.69130  0.80880  Biso   1.000  H
  C225     1.0000 0.74080  0.73600  0.21180  Biso   1.000  C
  C226     1.0000 0.25920  0.73600  0.28820  Biso   1.000  C
  C227     1.0000 0.24080  0.23600  0.21180  Biso   1.000  C
  C228     1.0000 0.75920  0.23600  0.28820  Biso   1.000  C
  C229     1.0000 0.25920  0.26400  0.78820  Biso   1.000  C
  C230     1.0000 0.74080  0.26400  0.71180  Biso   1.000  C
  C231     1.0000 0.75920  0.76400  0.78820  Biso   1.000  C
  C232     1.0000 0.24080  0.76400  0.71180  Biso   1.000  C
  H161     1.0000 0.71420  0.67270  0.22940  Biso   1.000  H
  H162     1.0000 0.28580  0.67270  0.27060  Biso   1.000  H
  H163     1.0000 0.21420  0.17270  0.22940  Biso   1.000  H
  H164     1.0000 0.78580  0.17270  0.27060  Biso   1.000  H
  H165     1.0000 0.28580  0.32730  0.77060  Biso   1.000  H
  H166     1.0000 0.71420  0.32730  0.72940  Biso   1.000  H
  H167     1.0000 0.78580  0.82730  0.77060  Biso   1.000  H
  H168     1.0000 0.21420  0.82730  0.72940  Biso   1.000  H
  C233     1.0000 0.71380  0.74900  0.14120  Biso   1.000  C
  C234     1.0000 0.28620  0.74900  0.35880  Biso   1.000  C
  C235     1.0000 0.21380  0.24900  0.14120  Biso   1.000  C
  C236     1.0000 0.78620  0.24900  0.35880  Biso   1.000  C
  C237     1.0000 0.28620  0.25100  0.85880  Biso   1.000  C
  C238     1.0000 0.71380  0.25100  0.64120  Biso   1.000  C
  C239     1.0000 0.78620  0.75100  0.85880  Biso   1.000  C
  C240     1.0000 0.21380  0.75100  0.64120  Biso   1.000  C
  H169     1.0000 0.66790  0.70050  0.11090  Biso   1.000  H
  H170     1.0000 0.33210  0.70050  0.38910  Biso   1.000  H
  H171     1.0000 0.16790  0.20050  0.11090  Biso   1.000  H
  H172     1.0000 0.83210  0.20050  0.38910  Biso   1.000  H
  H173     1.0000 0.33210  0.29950  0.88910  Biso   1.000  H
  H174     1.0000 0.66790  0.29950  0.61090  Biso   1.000  H
  H175     1.0000 0.83210  0.79950  0.88910  Biso   1.000  H
  H176     1.0000 0.16790  0.79950  0.61090  Biso   1.000  H
  C241     1.0000 0.75000  0.83200  0.11150  Biso   1.000  C
  C242     1.0000 0.25000  0.83200  0.38850  Biso   1.000  C
  C243     1.0000 0.25000  0.33200  0.11150  Biso   1.000  C
  C244     1.0000 0.75000  0.33200  0.38850  Biso   1.000  C
  C245     1.0000 0.25000  0.16800  0.88850  Biso   1.000  C
  C246     1.0000 0.75000  0.16800  0.61150  Biso   1.000  C
  C247     1.0000 0.75000  0.66800  0.88850  Biso   1.000  C
  C248     1.0000 0.25000  0.66800  0.61150  Biso   1.000  C
  O25      1.0000 0.72430  0.84300  0.04380  Biso   1.000  O
  O26      1.0000 0.27570  0.84300  0.45620  Biso   1.000  O
  O27      1.0000 0.22430  0.34300  0.04380  Biso   1.000  O
  O28      1.0000 0.77570  0.34300  0.45620  Biso   1.000  O
  O29      1.0000 0.27570  0.15700  0.95620  Biso   1.000  O
  O30      1.0000 0.72430  0.15700  0.54380  Biso   1.000  O
  O31      1.0000 0.77570  0.65700  0.95620  Biso   1.000  O
  O32      1.0000 0.22430  0.65700  0.54380  Biso   1.000  O
