data_image0
_cell_length_a       6.8117
_cell_length_b       7.4177
_cell_length_c       8.6722
_cell_angle_alpha    109.167
_cell_angle_beta     105.528
_cell_angle_gamma    103.121

_symmetry_space_group_name_H-M    "P 1"
_symmetry_int_tables_number       1

loop_
  _symmetry_equiv_pos_as_xyz
  'x, y, z'

loop_
  _atom_site_label
  _atom_site_occupancy
  _atom_site_fract_x
  _atom_site_fract_y
  _atom_site_fract_z
  _atom_site_thermal_displace_type
  _atom_site_B_iso_or_equiv
  _atom_site_type_symbol
  Cu1      1.0000 0.00000  0.00000  0.00000  Biso   1.000  Cu
  Cu2      1.0000 0.50000  0.00000  0.00000  Biso   1.000  Cu
  Cl1      1.0000 0.58480  0.72610  0.88390  Biso   1.000  Cl
  Cl2      1.0000 0.41520  0.27390  0.11610  Biso   1.000  Cl
  Cl3      1.0000 0.93760  0.16950  0.23650  Biso   1.000  Cl
  Cl4      1.0000 0.06240  0.83050  0.76350  Biso   1.000  Cl
  N1       1.0000 0.28350  0.74410  0.32940  Biso   1.000  N
  N2       1.0000 0.71650  0.25590  0.67060  Biso   1.000  N
  N3       1.0000 0.45750  0.80190  0.28680  Biso   1.000  N
  N4       1.0000 0.54250  0.19810  0.71320  Biso   1.000  N
  N5       1.0000 0.40330  0.87200  0.16940  Biso   1.000  N
  N6       1.0000 0.59670  0.12800  0.83060  Biso   1.000  N
  N7       1.0000 0.19110  0.84960  0.13700  Biso   1.000  N
  N8       1.0000 0.80890  0.15040  0.86300  Biso   1.000  N
  C1       1.0000 0.12670  0.80530  0.25490  Biso   1.000  C
  C2       1.0000 0.87330  0.19470  0.74510  Biso   1.000  C
  C3       1.0000 0.90500  0.73260  0.25060  Biso   1.000  C
  C4       1.0000 0.09500  0.26740  0.74940  Biso   1.000  C
  H1       1.0000 0.91050  0.71400  0.35600  Biso   1.000  H
  H2       1.0000 0.08950  0.28600  0.64400  Biso   1.000  H
  H3       1.0000 0.82280  0.60540  0.15020  Biso   1.000  H
  H4       1.0000 0.17720  0.39460  0.84980  Biso   1.000  H
  H5       1.0000 0.83670  0.83090  0.24300  Biso   1.000  H
  H6       1.0000 0.16330  0.16910  0.75700  Biso   1.000  H
  C5       1.0000 0.30500  0.65190  0.45620  Biso   1.000  C
  C6       1.0000 0.69500  0.34810  0.54380  Biso   1.000  C
  H7       1.0000 0.44040  0.62780  0.48040  Biso   1.000  H
  H8       1.0000 0.55960  0.37220  0.51960  Biso   1.000  H
  H9       1.0000 0.18730  0.52520  0.40800  Biso   1.000  H
  H10      1.0000 0.81270  0.47480  0.59200  Biso   1.000  H
  H11      1.0000 0.30180  0.74230  0.56330  Biso   1.000  H
  H12      1.0000 0.69820  0.25770  0.43670  Biso   1.000  H
