data_image0
_cell_length_a       5.6035
_cell_length_b       8.9812
_cell_length_c       12.119
_cell_angle_alpha    86.31
_cell_angle_beta     77.38
_cell_angle_gamma    77.56

_symmetry_space_group_name_H-M    "P 1"
_symmetry_int_tables_number       1

loop_
  _symmetry_equiv_pos_as_xyz
  'x, y, z'

loop_
  _atom_site_label
  _atom_site_occupancy
  _atom_site_fract_x
  _atom_site_fract_y
  _atom_site_fract_z
  _atom_site_thermal_displace_type
  _atom_site_B_iso_or_equiv
  _atom_site_type_symbol
  Cu1      1.0000 0.00000  0.50000  0.00000  Biso   1.000  Cu
  Cu2      1.0000 0.55058  0.40277  0.89849  Biso   1.000  Cu
  Cu3      1.0000 0.44942  0.59723  0.10151  Biso   1.000  Cu
  O1       1.0000 0.26050  0.26015  0.00790  Biso   1.000  O
  O2       1.0000 0.73950  0.73985  0.99210  Biso   1.000  O
  O3       1.0000 0.58080  0.57428  0.23745  Biso   1.000  O
  O4       1.0000 0.41920  0.42572  0.76255  Biso   1.000  O
  O5       1.0000 0.76090  0.20455  0.84693  Biso   1.000  O
  O6       1.0000 0.23910  0.79545  0.15307  Biso   1.000  O
  O7       1.0000 0.99070  0.52533  0.16065  Biso   1.000  O
  O8       1.0000 0.00930  0.47467  0.83935  Biso   1.000  O
  O9       1.0000 0.30950  0.58101  0.96952  Biso   1.000  O
  O10      1.0000 0.69050  0.41899  0.03048  Biso   1.000  O
  C1       1.0000 0.86510  0.56280  0.35708  Biso   1.000  C
  C2       1.0000 0.13490  0.43720  0.64292  Biso   1.000  C
  C3       1.0000 0.80690  0.55212  0.24294  Biso   1.000  C
  C4       1.0000 0.19310  0.44788  0.75706  Biso   1.000  C
  H1       1.0000 0.24000  0.19900  0.96320  Biso   1.000  H
  H2       1.0000 0.76000  0.80100  0.03680  Biso   1.000  H
  H3       1.0000 0.27500  0.21700  0.07040  Biso   1.000  H
  H4       1.0000 0.72500  0.78300  0.92960  Biso   1.000  H
  H5       1.0000 0.69300  0.12800  0.84900  Biso   1.000  H
  H6       1.0000 0.30700  0.87200  0.15100  Biso   1.000  H
  H7       1.0000 0.91500  0.17400  0.84500  Biso   1.000  H
  H8       1.0000 0.08500  0.82600  0.15500  Biso   1.000  H
  H9       1.0000 0.29000  0.65990  0.93090  Biso   1.000  H
  H10      1.0000 0.71000  0.34010  0.06910  Biso   1.000  H
  H11      1.0000 0.86860  0.66650  0.37010  Biso   1.000  H
  H12      1.0000 0.13140  0.33350  0.62990  Biso   1.000  H
  H13      1.0000 0.02510  0.49900  0.35960  Biso   1.000  H
  H14      1.0000 0.97490  0.50100  0.64040  Biso   1.000  H
  H15      1.0000 0.73890  0.52960  0.41450  Biso   1.000  H
  H16      1.0000 0.26110  0.47040  0.58550  Biso   1.000  H
  S1       1.0000 0.62943  0.05016  0.21041  Biso   1.000  S
  S2       1.0000 0.37057  0.94984  0.78959  Biso   1.000  S
  O11      1.0000 0.74300  0.89063  0.18383  Biso   1.000  O
  O12      1.0000 0.25700  0.10937  0.81617  Biso   1.000  O
  O13      1.0000 0.77750  0.15290  0.14736  Biso   1.000  O
  O14      1.0000 0.22250  0.84710  0.85264  Biso   1.000  O
  O15      1.0000 0.37020  0.08289  0.19848  Biso   1.000  O
  O16      1.0000 0.62980  0.91711  0.80152  Biso   1.000  O
  C5       1.0000 0.49260  0.98910  0.44311  Biso   1.000  C
  C6       1.0000 0.50740  0.01090  0.55689  Biso   1.000  C
  C7       1.0000 0.34370  0.88930  0.42213  Biso   1.000  C
  C8       1.0000 0.65630  0.11070  0.57787  Biso   1.000  C
  C9       1.0000 0.21200  0.81720  0.50936  Biso   1.000  C
  C10      1.0000 0.78800  0.18280  0.49064  Biso   1.000  C
  C11      1.0000 0.77760  0.16220  0.37827  Biso   1.000  C
  C12      1.0000 0.22240  0.83780  0.62173  Biso   1.000  C
  C13      1.0000 0.63170  0.06955  0.35512  Biso   1.000  C
  C14      1.0000 0.36830  0.93045  0.64488  Biso   1.000  C
  H17      1.0000 0.33570  0.87290  0.34820  Biso   1.000  H
  H18      1.0000 0.66430  0.12710  0.65180  Biso   1.000  H
  H19      1.0000 0.11360  0.75320  0.49400  Biso   1.000  H
  H20      1.0000 0.88640  0.24680  0.50600  Biso   1.000  H
  H21      1.0000 0.86980  0.21150  0.31970  Biso   1.000  H
  H22      1.0000 0.13020  0.78850  0.68030  Biso   1.000  H
