data_image0
_cell_length_a       9.3161
_cell_length_b       15.9239
_cell_length_c       10.1922
_cell_angle_alpha    90
_cell_angle_beta     91.854
_cell_angle_gamma    90

_symmetry_space_group_name_H-M    "P 1"
_symmetry_int_tables_number       1

loop_
  _symmetry_equiv_pos_as_xyz
  'x, y, z'

loop_
  _atom_site_label
  _atom_site_occupancy
  _atom_site_fract_x
  _atom_site_fract_y
  _atom_site_fract_z
  _atom_site_thermal_displace_type
  _atom_site_B_iso_or_equiv
  _atom_site_type_symbol
  Cu1      1.0000 0.97266  0.24201  0.29978  Biso   1.000  Cu
  Cu2      1.0000 0.47266  0.25799  0.79978  Biso   1.000  Cu
  Cu3      1.0000 0.02734  0.75799  0.70022  Biso   1.000  Cu
  Cu4      1.0000 0.52734  0.74201  0.20022  Biso   1.000  Cu
  O1       1.0000 0.06740  0.32177  0.17860  Biso   1.000  O
  O2       1.0000 0.56740  0.17823  0.67860  Biso   1.000  O
  O3       1.0000 0.93260  0.67823  0.82140  Biso   1.000  O
  O4       1.0000 0.43260  0.82177  0.32140  Biso   1.000  O
  H1       1.0000 0.02410  0.36672  0.17840  Biso   1.000  H
  H2       1.0000 0.52410  0.13328  0.67840  Biso   1.000  H
  H3       1.0000 0.97590  0.63328  0.82160  Biso   1.000  H
  H4       1.0000 0.47590  0.86672  0.32160  Biso   1.000  H
  H5       1.0000 0.06010  0.30892  0.10610  Biso   1.000  H
  H6       1.0000 0.56010  0.19108  0.60610  Biso   1.000  H
  H7       1.0000 0.93990  0.69108  0.89390  Biso   1.000  H
  H8       1.0000 0.43990  0.80892  0.39390  Biso   1.000  H
  O5       1.0000 0.11770  0.13797  0.22010  Biso   1.000  O
  O6       1.0000 0.61770  0.36203  0.72010  Biso   1.000  O
  O7       1.0000 0.88230  0.86203  0.77990  Biso   1.000  O
  O8       1.0000 0.38230  0.63797  0.27990  Biso   1.000  O
  H9       1.0000 0.11840  0.09030  0.25080  Biso   1.000  H
  H10      1.0000 0.61840  0.40970  0.75080  Biso   1.000  H
  H11      1.0000 0.88160  0.90970  0.74920  Biso   1.000  H
  H12      1.0000 0.38160  0.59030  0.24920  Biso   1.000  H
  H13      1.0000 0.18740  0.15974  0.22470  Biso   1.000  H
  H14      1.0000 0.68740  0.34026  0.72470  Biso   1.000  H
  H15      1.0000 0.81260  0.84026  0.77530  Biso   1.000  H
  H16      1.0000 0.31260  0.65974  0.27530  Biso   1.000  H
  O9       1.0000 0.55120  0.22730  0.42080  Biso   1.000  O
  O10      1.0000 0.05120  0.27270  0.92080  Biso   1.000  O
  O11      1.0000 0.44880  0.77270  0.57920  Biso   1.000  O
  O12      1.0000 0.94880  0.72730  0.07920  Biso   1.000  O
  O13      1.0000 0.39310  0.22420  0.25840  Biso   1.000  O
  O14      1.0000 0.89310  0.27580  0.75840  Biso   1.000  O
  O15      1.0000 0.60690  0.77580  0.74160  Biso   1.000  O
  O16      1.0000 0.10690  0.72420  0.24160  Biso   1.000  O
  O17      1.0000 0.37490  0.13877  0.42270  Biso   1.000  O
  O18      1.0000 0.87490  0.36123  0.92270  Biso   1.000  O
  O19      1.0000 0.62510  0.86123  0.57730  Biso   1.000  O
  O20      1.0000 0.12510  0.63877  0.07730  Biso   1.000  O
  O21      1.0000 0.10610  0.49390  0.32370  Biso   1.000  O
  O22      1.0000 0.60610  0.00610  0.82370  Biso   1.000  O
  O23      1.0000 0.89390  0.50610  0.67630  Biso   1.000  O
  O24      1.0000 0.39390  0.99390  0.17630  Biso   1.000  O
  O25      1.0000 0.92090  0.57590  0.32070  Biso   1.000  O
  O26      1.0000 0.42090  0.92410  0.82070  Biso   1.000  O
  O27      1.0000 0.07910  0.42410  0.67930  Biso   1.000  O
  O28      1.0000 0.57910  0.07590  0.17930  Biso   1.000  O
  O29      1.0000 0.93210  0.47191  0.18390  Biso   1.000  O
  O30      1.0000 0.43210  0.02809  0.68390  Biso   1.000  O
  O31      1.0000 0.06790  0.52809  0.81610  Biso   1.000  O
  O32      1.0000 0.56790  0.97191  0.31610  Biso   1.000  O
  N1       1.0000 0.91050  0.15412  0.43630  Biso   1.000  N
  N2       1.0000 0.41050  0.34588  0.93630  Biso   1.000  N
  N3       1.0000 0.08950  0.84588  0.56370  Biso   1.000  N
  N4       1.0000 0.58950  0.65412  0.06370  Biso   1.000  N
  N5       1.0000 0.11740  0.27153  0.44670  Biso   1.000  N
  N6       1.0000 0.61740  0.22847  0.94670  Biso   1.000  N
  N7       1.0000 0.88260  0.72847  0.55330  Biso   1.000  N
  N8       1.0000 0.38260  0.77153  0.05330  Biso   1.000  N
  N9       1.0000 0.31590  0.27860  0.65850  Biso   1.000  N
  N10      1.0000 0.81590  0.22140  0.15850  Biso   1.000  N
  N11      1.0000 0.68410  0.72140  0.34150  Biso   1.000  N
  N12      1.0000 0.18410  0.77860  0.84150  Biso   1.000  N
  N13      1.0000 0.30240  0.16300  0.85550  Biso   1.000  N
  N14      1.0000 0.80240  0.33700  0.35550  Biso   1.000  N
  N15      1.0000 0.69760  0.83700  0.14450  Biso   1.000  N
  N16      1.0000 0.19760  0.66300  0.64450  Biso   1.000  N
  N17      1.0000 0.08010  0.04310  0.85630  Biso   1.000  N
  N18      1.0000 0.58010  0.45690  0.35630  Biso   1.000  N
  N19      1.0000 0.91990  0.95690  0.14370  Biso   1.000  N
  N20      1.0000 0.41990  0.54310  0.64370  Biso   1.000  N
  N21      1.0000 0.88580  0.03410  0.63850  Biso   1.000  N
  N22      1.0000 0.38580  0.46590  0.13850  Biso   1.000  N
  N23      1.0000 0.11420  0.96590  0.36150  Biso   1.000  N
  N24      1.0000 0.61420  0.53410  0.86150  Biso   1.000  N
  N25      1.0000 0.43990  0.19580  0.36610  Biso   1.000  N
  N26      1.0000 0.93990  0.30420  0.86610  Biso   1.000  N
  N27      1.0000 0.56010  0.80420  0.63390  Biso   1.000  N
  N28      1.0000 0.06010  0.69580  0.13390  Biso   1.000  N
  N29      1.0000 0.98660  0.51440  0.27710  Biso   1.000  N
  N30      1.0000 0.48660  0.98560  0.77710  Biso   1.000  N
  N31      1.0000 0.01340  0.48560  0.72290  Biso   1.000  N
  N32      1.0000 0.51340  0.01440  0.22290  Biso   1.000  N
  C1       1.0000 0.80780  0.09630  0.43170  Biso   1.000  C
  C2       1.0000 0.30780  0.40370  0.93170  Biso   1.000  C
  C3       1.0000 0.19220  0.90370  0.56830  Biso   1.000  C
  C4       1.0000 0.69220  0.59630  0.06830  Biso   1.000  C
  H17      1.0000 0.74150  0.09470  0.35890  Biso   1.000  H
  H18      1.0000 0.24150  0.40530  0.85890  Biso   1.000  H
  H19      1.0000 0.25850  0.90530  0.64110  Biso   1.000  H
  H20      1.0000 0.75850  0.59470  0.14110  Biso   1.000  H
  C5       1.0000 0.79620  0.03670  0.53440  Biso   1.000  C
  C6       1.0000 0.29620  0.46330  0.03440  Biso   1.000  C
  C7       1.0000 0.20380  0.96330  0.46560  Biso   1.000  C
  C8       1.0000 0.70380  0.53670  0.96560  Biso   1.000  C
  H21      1.0000 0.72050  0.99680  0.52850  Biso   1.000  H
  H22      1.0000 0.22050  0.50320  0.02850  Biso   1.000  H
  H23      1.0000 0.27950  0.00320  0.47150  Biso   1.000  H
  H24      1.0000 0.77950  0.49680  0.97150  Biso   1.000  H
  C9       1.0000 0.98850  0.09490  0.64490  Biso   1.000  C
  C10      1.0000 0.48850  0.40510  0.14490  Biso   1.000  C
  C11      1.0000 0.01150  0.90510  0.35510  Biso   1.000  C
  C12      1.0000 0.51150  0.59490  0.85510  Biso   1.000  C
  C13      1.0000 0.99950  0.15440  0.54420  Biso   1.000  C
  C14      1.0000 0.49950  0.34560  0.04420  Biso   1.000  C
  C15      1.0000 0.00050  0.84560  0.45580  Biso   1.000  C
  C16      1.0000 0.50050  0.65440  0.95580  Biso   1.000  C
  C17      1.0000 0.11080  0.21760  0.54970  Biso   1.000  C
  C18      1.0000 0.61080  0.28240  0.04970  Biso   1.000  C
  C19      1.0000 0.88920  0.78240  0.45030  Biso   1.000  C
  C20      1.0000 0.38920  0.71760  0.95030  Biso   1.000  C
  C21      1.0000 0.22120  0.32920  0.45160  Biso   1.000  C
  C22      1.0000 0.72120  0.17080  0.95160  Biso   1.000  C
  C23      1.0000 0.77880  0.67080  0.54840  Biso   1.000  C
  C24      1.0000 0.27880  0.82920  0.04840  Biso   1.000  C
  H25      1.0000 0.22830  0.36860  0.38210  Biso   1.000  H
  H26      1.0000 0.72830  0.13140  0.88210  Biso   1.000  H
  H27      1.0000 0.77170  0.63140  0.61790  Biso   1.000  H
  H28      1.0000 0.27170  0.86860  0.11790  Biso   1.000  H
  C25      1.0000 0.32040  0.33230  0.55890  Biso   1.000  C
  C26      1.0000 0.82040  0.16770  0.05890  Biso   1.000  C
  C27      1.0000 0.67960  0.66770  0.44110  Biso   1.000  C
  C28      1.0000 0.17960  0.83230  0.94110  Biso   1.000  C
  H29      1.0000 0.39290  0.37430  0.56010  Biso   1.000  H
  H30      1.0000 0.89290  0.12570  0.06010  Biso   1.000  H
  H31      1.0000 0.60710  0.62570  0.43990  Biso   1.000  H
  H32      1.0000 0.10710  0.87430  0.93990  Biso   1.000  H
  C29      1.0000 0.20910  0.22040  0.65430  Biso   1.000  C
  C30      1.0000 0.70910  0.27960  0.15430  Biso   1.000  C
  C31      1.0000 0.79090  0.77960  0.34570  Biso   1.000  C
  C32      1.0000 0.29090  0.72040  0.84570  Biso   1.000  C
  C33      1.0000 0.20040  0.15870  0.75810  Biso   1.000  C
  C34      1.0000 0.70040  0.34130  0.25810  Biso   1.000  C
  C35      1.0000 0.79960  0.84130  0.24190  Biso   1.000  C
  C36      1.0000 0.29960  0.65870  0.74190  Biso   1.000  C
  C37      1.0000 0.09160  0.09830  0.75570  Biso   1.000  C
  C38      1.0000 0.59160  0.40170  0.25570  Biso   1.000  C
  C39      1.0000 0.90840  0.90170  0.24430  Biso   1.000  C
  C40      1.0000 0.40840  0.59830  0.74430  Biso   1.000  C
  C41      1.0000 0.17790  0.04980  0.95280  Biso   1.000  C
  C42      1.0000 0.67790  0.45020  0.45280  Biso   1.000  C
  C43      1.0000 0.82210  0.95020  0.04720  Biso   1.000  C
  C44      1.0000 0.32210  0.54980  0.54720  Biso   1.000  C
  H33      1.0000 0.17160  0.01320  0.02590  Biso   1.000  H
  H34      1.0000 0.67160  0.48680  0.52590  Biso   1.000  H
  H35      1.0000 0.82840  0.98680  0.97410  Biso   1.000  H
  H36      1.0000 0.32840  0.51320  0.47410  Biso   1.000  H
  C45      1.0000 0.29110  0.10870  0.95250  Biso   1.000  C
  C46      1.0000 0.79110  0.39130  0.45250  Biso   1.000  C
  C47      1.0000 0.70890  0.89130  0.04750  Biso   1.000  C
  C48      1.0000 0.20890  0.60870  0.54750  Biso   1.000  C
  H37      1.0000 0.36030  0.10920  0.02310  Biso   1.000  H
  H38      1.0000 0.86030  0.39080  0.52310  Biso   1.000  H
  H39      1.0000 0.63970  0.89080  0.97690  Biso   1.000  H
  H40      1.0000 0.13970  0.60920  0.47690  Biso   1.000  H
