data_image0
_cell_length_a       6.7729
_cell_length_b       11.7016
_cell_length_c       11.708
_cell_angle_alpha    85.725
_cell_angle_beta     78.736
_cell_angle_gamma    78.559

_symmetry_space_group_name_H-M    "P 1"
_symmetry_int_tables_number       1

loop_
  _symmetry_equiv_pos_as_xyz
  'x, y, z'

loop_
  _atom_site_label
  _atom_site_occupancy
  _atom_site_fract_x
  _atom_site_fract_y
  _atom_site_fract_z
  _atom_site_thermal_displace_type
  _atom_site_B_iso_or_equiv
  _atom_site_type_symbol
  Cu1      1.0000 0.78008  0.51825  0.11017  Biso   1.000  Cu
  Cu2      1.0000 0.21992  0.48175  0.88983  Biso   1.000  Cu
  Cu3      1.0000 0.27271  0.97833  0.44873  Biso   1.000  Cu
  Cu4      1.0000 0.72729  0.02167  0.55127  Biso   1.000  Cu
  Cl1      1.0000 0.85970  0.38356  0.24569  Biso   1.000  Cl
  Cl2      1.0000 0.14030  0.61644  0.75431  Biso   1.000  Cl
  Cl3      1.0000 0.88350  0.39128  0.96158  Biso   1.000  Cl
  Cl4      1.0000 0.11650  0.60872  0.03842  Biso   1.000  Cl
  Cl5      1.0000 0.06040  0.14522  0.51210  Biso   1.000  Cl
  Cl6      1.0000 0.93960  0.85478  0.48790  Biso   1.000  Cl
  Cl7      1.0000 0.37000  0.92738  0.62153  Biso   1.000  Cl
  Cl8      1.0000 0.63000  0.07262  0.37847  Biso   1.000  Cl
  O1       1.0000 0.22920  0.41960  0.39570  Biso   1.000  O
  O2       1.0000 0.77080  0.58040  0.60430  Biso   1.000  O
  H1       1.0000 0.18100  0.50210  0.37830  Biso   1.000  H
  H2       1.0000 0.81900  0.49790  0.62170  Biso   1.000  H
  H3       1.0000 0.12750  0.39060  0.36090  Biso   1.000  H
  H4       1.0000 0.87250  0.60940  0.63910  Biso   1.000  H
  O3       1.0000 0.13420  0.65040  0.30870  Biso   1.000  O
  O4       1.0000 0.86580  0.34960  0.69130  Biso   1.000  O
  H5       1.0000 0.09940  0.66280  0.22870  Biso   1.000  H
  H6       1.0000 0.90060  0.33720  0.77130  Biso   1.000  H
  H7       1.0000 0.05780  0.71650  0.35750  Biso   1.000  H
  H8       1.0000 0.94220  0.28350  0.64250  Biso   1.000  H
  O5       1.0000 0.12240  0.12730  0.80700  Biso   1.000  O
  O6       1.0000 0.87760  0.87270  0.19300  Biso   1.000  O
  H9       1.0000 0.18400  0.08320  0.76200  Biso   1.000  H
  H10      1.0000 0.81600  0.91680  0.23800  Biso   1.000  H
  H11      1.0000 0.17370  0.10310  0.88100  Biso   1.000  H
  H12      1.0000 0.82630  0.89690  0.11900  Biso   1.000  H
  N1       1.0000 0.62740  0.64360  0.00900  Biso   1.000  N
  N2       1.0000 0.37260  0.35640  0.99100  Biso   1.000  N
  N3       1.0000 0.64310  0.63690  0.23560  Biso   1.000  N
  N4       1.0000 0.35690  0.36310  0.76440  Biso   1.000  N
  N5       1.0000 0.43630  0.82560  0.37450  Biso   1.000  N
  N6       1.0000 0.56370  0.17440  0.62550  Biso   1.000  N
  N7       1.0000 0.22030  0.01340  0.28140  Biso   1.000  N
  N8       1.0000 0.77970  0.98660  0.71860  Biso   1.000  N
  N9       1.0000 0.20100  0.03060  0.04260  Biso   1.000  N
  N10      1.0000 0.79900  0.96940  0.95740  Biso   1.000  N
  N11      1.0000 0.40750  0.83960  0.90260  Biso   1.000  N
  N12      1.0000 0.59250  0.16040  0.09740  Biso   1.000  N
  C1       1.0000 0.61720  0.64780  0.89660  Biso   1.000  C
  C2       1.0000 0.38280  0.35220  0.10340  Biso   1.000  C
  H13      1.0000 0.68560  0.58340  0.85010  Biso   1.000  H
  H14      1.0000 0.31440  0.41660  0.14990  Biso   1.000  H
  C3       1.0000 0.50660  0.74630  0.84530  Biso   1.000  C
  C4       1.0000 0.49340  0.25370  0.15470  Biso   1.000  C
  H15      1.0000 0.50320  0.74550  0.76460  Biso   1.000  H
  H16      1.0000 0.49680  0.25450  0.23540  Biso   1.000  H
  C5       1.0000 0.41580  0.83600  0.01730  Biso   1.000  C
  C6       1.0000 0.58420  0.16400  0.98270  Biso   1.000  C
  C7       1.0000 0.52500  0.73900  0.06950  Biso   1.000  C
  C8       1.0000 0.47500  0.26100  0.93050  Biso   1.000  C
  C9       1.0000 0.53550  0.73340  0.19130  Biso   1.000  C
  C10      1.0000 0.46450  0.26660  0.80870  Biso   1.000  C
  C11      1.0000 0.64350  0.63510  0.34960  Biso   1.000  C
  C12      1.0000 0.35650  0.36490  0.65040  Biso   1.000  C
  H17      1.0000 0.71480  0.56790  0.38500  Biso   1.000  H
  H18      1.0000 0.28520  0.43210  0.61500  Biso   1.000  H
  C13      1.0000 0.54070  0.73060  0.41890  Biso   1.000  C
  C14      1.0000 0.45930  0.26940  0.58110  Biso   1.000  C
  H19      1.0000 0.54660  0.72640  0.49950  Biso   1.000  H
  H20      1.0000 0.45340  0.27360  0.50050  Biso   1.000  H
  C15      1.0000 0.43220  0.82690  0.25970  Biso   1.000  C
  C16      1.0000 0.56780  0.17310  0.74030  Biso   1.000  C
  C17      1.0000 0.31930  0.92730  0.20790  Biso   1.000  C
  C18      1.0000 0.68070  0.07270  0.79210  Biso   1.000  C
  C19      1.0000 0.30930  0.93450  0.08970  Biso   1.000  C
  C20      1.0000 0.69070  0.06550  0.91030  Biso   1.000  C
  C21      1.0000 0.10180  0.11330  0.11590  Biso   1.000  C
  C22      1.0000 0.89820  0.88670  0.88410  Biso   1.000  C
  H21      1.0000 0.02230  0.18110  0.08620  Biso   1.000  H
  H22      1.0000 0.97770  0.81890  0.91380  Biso   1.000  H
  C23      1.0000 0.10910  0.10510  0.23560  Biso   1.000  C
  C24      1.0000 0.89090  0.89490  0.76440  Biso   1.000  C
  H23      1.0000 0.03310  0.16620  0.28430  Biso   1.000  H
  H24      1.0000 0.96690  0.83380  0.71570  Biso   1.000  H
