data_image0
_cell_length_a       13.5778
_cell_length_b       9.4149
_cell_length_c       17.8842
_cell_angle_alpha    90
_cell_angle_beta     90
_cell_angle_gamma    90

_symmetry_space_group_name_H-M    "P 1"
_symmetry_int_tables_number       1

loop_
  _symmetry_equiv_pos_as_xyz
  'x, y, z'

loop_
  _atom_site_label
  _atom_site_occupancy
  _atom_site_fract_x
  _atom_site_fract_y
  _atom_site_fract_z
  _atom_site_thermal_displace_type
  _atom_site_B_iso_or_equiv
  _atom_site_type_symbol
  Cu1      1.0000 0.53267  0.49637  0.74451  Biso   1.000  Cu
  Cu2      1.0000 0.46733  0.50363  0.24451  Biso   1.000  Cu
  Cu3      1.0000 0.03267  0.50363  0.74451  Biso   1.000  Cu
  Cu4      1.0000 0.96733  0.49637  0.24451  Biso   1.000  Cu
  Cu5      1.0000 0.77397  0.97581  0.49735  Biso   1.000  Cu
  Cu6      1.0000 0.22603  0.02419  0.99735  Biso   1.000  Cu
  Cu7      1.0000 0.27397  0.02419  0.49735  Biso   1.000  Cu
  Cu8      1.0000 0.72603  0.97581  0.99735  Biso   1.000  Cu
  S1       1.0000 0.75705  0.46506  0.49043  Biso   1.000  S
  S2       1.0000 0.24295  0.53494  0.99043  Biso   1.000  S
  S3       1.0000 0.25705  0.53494  0.49043  Biso   1.000  S
  S4       1.0000 0.74295  0.46506  0.99043  Biso   1.000  S
  S5       1.0000 0.37122  0.02713  0.75748  Biso   1.000  S
  S6       1.0000 0.62878  0.97287  0.25748  Biso   1.000  S
  S7       1.0000 0.87122  0.97287  0.75748  Biso   1.000  S
  S8       1.0000 0.12878  0.02713  0.25748  Biso   1.000  S
  O1       1.0000 0.50950  0.33080  0.80720  Biso   1.000  O
  O2       1.0000 0.49050  0.66920  0.30720  Biso   1.000  O
  O3       1.0000 0.00950  0.66920  0.80720  Biso   1.000  O
  O4       1.0000 0.99050  0.33080  0.30720  Biso   1.000  O
  H1       1.0000 0.46880  0.28240  0.79760  Biso   1.000  H
  H2       1.0000 0.53120  0.71760  0.29760  Biso   1.000  H
  H3       1.0000 0.96880  0.71760  0.79760  Biso   1.000  H
  H4       1.0000 0.03120  0.28240  0.29760  Biso   1.000  H
  H5       1.0000 0.50330  0.32920  0.85190  Biso   1.000  H
  H6       1.0000 0.49670  0.67080  0.35190  Biso   1.000  H
  H7       1.0000 0.00330  0.67080  0.85190  Biso   1.000  H
  H8       1.0000 0.99670  0.32920  0.35190  Biso   1.000  H
  O5       1.0000 0.56040  0.65220  0.84270  Biso   1.000  O
  O6       1.0000 0.43960  0.34780  0.34270  Biso   1.000  O
  O7       1.0000 0.06040  0.34780  0.84270  Biso   1.000  O
  O8       1.0000 0.93960  0.65220  0.34270  Biso   1.000  O
  H9       1.0000 0.57440  0.72550  0.83230  Biso   1.000  H
  H10      1.0000 0.42560  0.27450  0.33230  Biso   1.000  H
  H11      1.0000 0.07440  0.27450  0.83230  Biso   1.000  H
  H12      1.0000 0.92560  0.72550  0.33230  Biso   1.000  H
  H13      1.0000 0.58580  0.61350  0.87100  Biso   1.000  H
  H14      1.0000 0.41420  0.38650  0.37100  Biso   1.000  H
  H15      1.0000 0.08580  0.38650  0.87100  Biso   1.000  H
  H16      1.0000 0.91420  0.61350  0.37100  Biso   1.000  H
  O9       1.0000 0.74940  0.82320  0.42200  Biso   1.000  O
  O10      1.0000 0.25060  0.17680  0.92200  Biso   1.000  O
  O11      1.0000 0.24940  0.17680  0.42200  Biso   1.000  O
  O12      1.0000 0.75060  0.82320  0.92200  Biso   1.000  O
  H17      1.0000 0.74100  0.73250  0.43700  Biso   1.000  H
  H18      1.0000 0.25900  0.26750  0.93700  Biso   1.000  H
  H19      1.0000 0.24100  0.26750  0.43700  Biso   1.000  H
  H20      1.0000 0.75900  0.73250  0.93700  Biso   1.000  H
  H21      1.0000 0.71750  0.84660  0.37990  Biso   1.000  H
  H22      1.0000 0.28250  0.15340  0.87990  Biso   1.000  H
  H23      1.0000 0.21750  0.15340  0.37990  Biso   1.000  H
  H24      1.0000 0.78250  0.84660  0.87990  Biso   1.000  H
  O13      1.0000 0.67310  0.10040  0.45610  Biso   1.000  O
  O14      1.0000 0.32690  0.89960  0.95610  Biso   1.000  O
  O15      1.0000 0.17310  0.89960  0.45610  Biso   1.000  O
  O16      1.0000 0.82690  0.10040  0.95610  Biso   1.000  O
  H25      1.0000 0.68330  0.17420  0.45310  Biso   1.000  H
  H26      1.0000 0.31670  0.82580  0.95310  Biso   1.000  H
  H27      1.0000 0.18330  0.82580  0.45310  Biso   1.000  H
  H28      1.0000 0.81670  0.17420  0.95310  Biso   1.000  H
  H29      1.0000 0.66270  0.07690  0.41280  Biso   1.000  H
  H30      1.0000 0.33730  0.92310  0.91280  Biso   1.000  H
  H31      1.0000 0.16270  0.92310  0.41280  Biso   1.000  H
  H32      1.0000 0.83730  0.07690  0.91280  Biso   1.000  H
  O17      1.0000 0.80630  0.12030  0.57560  Biso   1.000  O
  O18      1.0000 0.19370  0.87970  0.07560  Biso   1.000  O
  O19      1.0000 0.30630  0.87970  0.57560  Biso   1.000  O
  O20      1.0000 0.69370  0.12030  0.07560  Biso   1.000  O
  H33      1.0000 0.79800  0.10690  0.62470  Biso   1.000  H
  H34      1.0000 0.20200  0.89310  0.12470  Biso   1.000  H
  H35      1.0000 0.29800  0.89310  0.62470  Biso   1.000  H
  H36      1.0000 0.70200  0.10690  0.12470  Biso   1.000  H
  H37      1.0000 0.78110  0.18540  0.57440  Biso   1.000  H
  H38      1.0000 0.21890  0.81460  0.07440  Biso   1.000  H
  H39      1.0000 0.28110  0.81460  0.57440  Biso   1.000  H
  H40      1.0000 0.71890  0.18540  0.07440  Biso   1.000  H
  O21      1.0000 0.90320  0.05450  0.43010  Biso   1.000  O
  O22      1.0000 0.09680  0.94550  0.93010  Biso   1.000  O
  O23      1.0000 0.40320  0.94550  0.43010  Biso   1.000  O
  O24      1.0000 0.59680  0.05450  0.93010  Biso   1.000  O
  H41      1.0000 0.93600  0.12280  0.43620  Biso   1.000  H
  H42      1.0000 0.06400  0.87720  0.93620  Biso   1.000  H
  H43      1.0000 0.43600  0.87720  0.43620  Biso   1.000  H
  H44      1.0000 0.56400  0.12280  0.93620  Biso   1.000  H
  H45      1.0000 0.90340  0.03130  0.38790  Biso   1.000  H
  H46      1.0000 0.09660  0.96870  0.88790  Biso   1.000  H
  H47      1.0000 0.40340  0.96870  0.38790  Biso   1.000  H
  H48      1.0000 0.59660  0.03130  0.88790  Biso   1.000  H
  O25      1.0000 0.50370  0.33970  0.95250  Biso   1.000  O
  O26      1.0000 0.49630  0.66030  0.45250  Biso   1.000  O
  O27      1.0000 0.00370  0.66030  0.95250  Biso   1.000  O
  O28      1.0000 0.99630  0.33970  0.45250  Biso   1.000  O
  H49      1.0000 0.44750  0.35610  0.96380  Biso   1.000  H
  H50      1.0000 0.55250  0.64390  0.46380  Biso   1.000  H
  H51      1.0000 0.94750  0.64390  0.96380  Biso   1.000  H
  H52      1.0000 0.05250  0.35610  0.46380  Biso   1.000  H
  H53      1.0000 0.55770  0.39160  0.96580  Biso   1.000  H
  H54      1.0000 0.44230  0.60840  0.46580  Biso   1.000  H
  H55      1.0000 0.05770  0.60840  0.96580  Biso   1.000  H
  H56      1.0000 0.94230  0.39160  0.46580  Biso   1.000  H
  O29      1.0000 0.61210  0.93300  0.78840  Biso   1.000  O
  O30      1.0000 0.38790  0.06700  0.28840  Biso   1.000  O
  O31      1.0000 0.11210  0.06700  0.78840  Biso   1.000  O
  O32      1.0000 0.88790  0.93300  0.28840  Biso   1.000  O
  H57      1.0000 0.66510  0.96440  0.77040  Biso   1.000  H
  H58      1.0000 0.33490  0.03560  0.27040  Biso   1.000  H
  H59      1.0000 0.16510  0.03560  0.77040  Biso   1.000  H
  H60      1.0000 0.83490  0.96440  0.27040  Biso   1.000  H
  H61      1.0000 0.57360  0.97240  0.76820  Biso   1.000  H
  H62      1.0000 0.42640  0.02760  0.26820  Biso   1.000  H
  H63      1.0000 0.07360  0.02760  0.76820  Biso   1.000  H
  H64      1.0000 0.92640  0.97240  0.26820  Biso   1.000  H
  O33      1.0000 0.85550  0.52680  0.47790  Biso   1.000  O
  O34      1.0000 0.14450  0.47320  0.97790  Biso   1.000  O
  O35      1.0000 0.35550  0.47320  0.47790  Biso   1.000  O
  O36      1.0000 0.64450  0.52680  0.97790  Biso   1.000  O
  O37      1.0000 0.75330  0.39630  0.56410  Biso   1.000  O
  O38      1.0000 0.24670  0.60370  0.06410  Biso   1.000  O
  O39      1.0000 0.25330  0.60370  0.56410  Biso   1.000  O
  O40      1.0000 0.74670  0.39630  0.06410  Biso   1.000  O
  O41      1.0000 0.68480  0.58290  0.48740  Biso   1.000  O
  O42      1.0000 0.31520  0.41710  0.98740  Biso   1.000  O
  O43      1.0000 0.18480  0.41710  0.48740  Biso   1.000  O
  O44      1.0000 0.81520  0.58290  0.98740  Biso   1.000  O
  O45      1.0000 0.73560  0.35950  0.43270  Biso   1.000  O
  O46      1.0000 0.26440  0.64050  0.93270  Biso   1.000  O
  O47      1.0000 0.23560  0.64050  0.43270  Biso   1.000  O
  O48      1.0000 0.76440  0.35950  0.93270  Biso   1.000  O
  O49      1.0000 0.45440  0.03910  0.70610  Biso   1.000  O
  O50      1.0000 0.54560  0.96090  0.20610  Biso   1.000  O
  O51      1.0000 0.95440  0.96090  0.70610  Biso   1.000  O
  O52      1.0000 0.04560  0.03910  0.20610  Biso   1.000  O
  O53      1.0000 0.34510  0.17070  0.78690  Biso   1.000  O
  O54      1.0000 0.65490  0.82930  0.28690  Biso   1.000  O
  O55      1.0000 0.84510  0.82930  0.78690  Biso   1.000  O
  O56      1.0000 0.15490  0.17070  0.28690  Biso   1.000  O
  O57      1.0000 0.39770  0.93480  0.82090  Biso   1.000  O
  O58      1.0000 0.60230  0.06520  0.32090  Biso   1.000  O
  O59      1.0000 0.89770  0.06520  0.82090  Biso   1.000  O
  O60      1.0000 0.10230  0.93480  0.32090  Biso   1.000  O
  O61      1.0000 0.28500  0.96730  0.71760  Biso   1.000  O
  O62      1.0000 0.71500  0.03270  0.21760  Biso   1.000  O
  O63      1.0000 0.78500  0.03270  0.71760  Biso   1.000  O
  O64      1.0000 0.21500  0.96730  0.21760  Biso   1.000  O
  N1       1.0000 0.57310  0.65580  0.67410  Biso   1.000  N
  N2       1.0000 0.42690  0.34420  0.17410  Biso   1.000  N
  N3       1.0000 0.07310  0.34420  0.67410  Biso   1.000  N
  N4       1.0000 0.92690  0.65580  0.17410  Biso   1.000  N
  N5       1.0000 0.68050  0.45800  0.74440  Biso   1.000  N
  N6       1.0000 0.31950  0.54200  0.24440  Biso   1.000  N
  N7       1.0000 0.18050  0.54200  0.74440  Biso   1.000  N
  N8       1.0000 0.81950  0.45800  0.24440  Biso   1.000  N
  N9       1.0000 0.88570  0.46350  0.73850  Biso   1.000  N
  N10      1.0000 0.11430  0.53650  0.23850  Biso   1.000  N
  N11      1.0000 0.38570  0.53650  0.73850  Biso   1.000  N
  N12      1.0000 0.61430  0.46350  0.23850  Biso   1.000  N
  N13      1.0000 0.97650  0.64290  0.63730  Biso   1.000  N
  N14      1.0000 0.02350  0.35710  0.13730  Biso   1.000  N
  N15      1.0000 0.47650  0.35710  0.63730  Biso   1.000  N
  N16      1.0000 0.52350  0.64290  0.13730  Biso   1.000  N
  N17      1.0000 0.86280  0.83400  0.55300  Biso   1.000  N
  N18      1.0000 0.13720  0.16600  0.05300  Biso   1.000  N
  N19      1.0000 0.36280  0.16600  0.55300  Biso   1.000  N
  N20      1.0000 0.63720  0.83400  0.05300  Biso   1.000  N
  N21      1.0000 0.66200  0.85650  0.58040  Biso   1.000  N
  N22      1.0000 0.33800  0.14350  0.08040  Biso   1.000  N
  N23      1.0000 0.16200  0.14350  0.58040  Biso   1.000  N
  N24      1.0000 0.83800  0.85650  0.08040  Biso   1.000  N
  C1       1.0000 0.52030  0.74920  0.63680  Biso   1.000  C
  C2       1.0000 0.47970  0.25080  0.13680  Biso   1.000  C
  C3       1.0000 0.02030  0.25080  0.63680  Biso   1.000  C
  C4       1.0000 0.97970  0.74920  0.13680  Biso   1.000  C
  H65      1.0000 0.45060  0.74810  0.64130  Biso   1.000  H
  H66      1.0000 0.54940  0.25190  0.14130  Biso   1.000  H
  H67      1.0000 0.95060  0.25190  0.64130  Biso   1.000  H
  H68      1.0000 0.04940  0.74810  0.14130  Biso   1.000  H
  C5       1.0000 0.56590  0.85130  0.59010  Biso   1.000  C
  C6       1.0000 0.43410  0.14870  0.09010  Biso   1.000  C
  C7       1.0000 0.06590  0.14870  0.59010  Biso   1.000  C
  C8       1.0000 0.93410  0.85130  0.09010  Biso   1.000  C
  H69      1.0000 0.52570  0.91850  0.56480  Biso   1.000  H
  H70      1.0000 0.47430  0.08150  0.06480  Biso   1.000  H
  H71      1.0000 0.02570  0.08150  0.56480  Biso   1.000  H
  H72      1.0000 0.97430  0.91850  0.06480  Biso   1.000  H
  C9       1.0000 0.71600  0.75920  0.61810  Biso   1.000  C
  C10      1.0000 0.28400  0.24080  0.11810  Biso   1.000  C
  C11      1.0000 0.21600  0.24080  0.61810  Biso   1.000  C
  C12      1.0000 0.78400  0.75920  0.11810  Biso   1.000  C
  C13      1.0000 0.67140  0.66160  0.66570  Biso   1.000  C
  C14      1.0000 0.32860  0.33840  0.16570  Biso   1.000  C
  C15      1.0000 0.17140  0.33840  0.66570  Biso   1.000  C
  C16      1.0000 0.82860  0.66160  0.16570  Biso   1.000  C
  C17      1.0000 0.72960  0.55690  0.70440  Biso   1.000  C
  C18      1.0000 0.27040  0.44310  0.20440  Biso   1.000  C
  C19      1.0000 0.22960  0.44310  0.70440  Biso   1.000  C
  C20      1.0000 0.77040  0.55690  0.20440  Biso   1.000  C
  C21      1.0000 0.73410  0.35950  0.77870  Biso   1.000  C
  C22      1.0000 0.26590  0.64050  0.27870  Biso   1.000  C
  C23      1.0000 0.23410  0.64050  0.77870  Biso   1.000  C
  C24      1.0000 0.76590  0.35950  0.27870  Biso   1.000  C
  H73      1.0000 0.70240  0.28340  0.80390  Biso   1.000  H
  H74      1.0000 0.29760  0.71660  0.30390  Biso   1.000  H
  H75      1.0000 0.20240  0.71660  0.80390  Biso   1.000  H
  H76      1.0000 0.79760  0.28340  0.30390  Biso   1.000  H
  C25      1.0000 0.83740  0.36720  0.77800  Biso   1.000  C
  C26      1.0000 0.16260  0.63280  0.27800  Biso   1.000  C
  C27      1.0000 0.33740  0.63280  0.77800  Biso   1.000  C
  C28      1.0000 0.66260  0.36720  0.27800  Biso   1.000  C
  H77      1.0000 0.87390  0.30090  0.80690  Biso   1.000  H
  H78      1.0000 0.12610  0.69910  0.30690  Biso   1.000  H
  H79      1.0000 0.37390  0.69910  0.80690  Biso   1.000  H
  H80      1.0000 0.62610  0.30090  0.30690  Biso   1.000  H
  C29      1.0000 0.83100  0.55840  0.69850  Biso   1.000  C
  C30      1.0000 0.16900  0.44160  0.19850  Biso   1.000  C
  C31      1.0000 0.33100  0.44160  0.69850  Biso   1.000  C
  C32      1.0000 0.66900  0.55840  0.19850  Biso   1.000  C
  C33      1.0000 0.87900  0.65490  0.64700  Biso   1.000  C
  C34      1.0000 0.12100  0.34510  0.14700  Biso   1.000  C
  C35      1.0000 0.37900  0.34510  0.64700  Biso   1.000  C
  C36      1.0000 0.62100  0.65490  0.14700  Biso   1.000  C
  C37      1.0000 0.82080  0.75160  0.60670  Biso   1.000  C
  C38      1.0000 0.17920  0.24840  0.10670  Biso   1.000  C
  C39      1.0000 0.32080  0.24840  0.60670  Biso   1.000  C
  C40      1.0000 0.67920  0.75160  0.10670  Biso   1.000  C
  C41      1.0000 0.95800  0.81710  0.54060  Biso   1.000  C
  C42      1.0000 0.04200  0.18290  0.04060  Biso   1.000  C
  C43      1.0000 0.45800  0.18290  0.54060  Biso   1.000  C
  C44      1.0000 0.54200  0.81710  0.04060  Biso   1.000  C
  H81      1.0000 0.98870  0.86990  0.50180  Biso   1.000  H
  H82      1.0000 0.01130  0.13010  0.00180  Biso   1.000  H
  H83      1.0000 0.48870  0.13010  0.50180  Biso   1.000  H
  H84      1.0000 0.51130  0.86990  0.00180  Biso   1.000  H
  C45      1.0000 0.01540  0.72210  0.58380  Biso   1.000  C
  C46      1.0000 0.98460  0.27790  0.08380  Biso   1.000  C
  C47      1.0000 0.51540  0.27790  0.58380  Biso   1.000  C
  C48      1.0000 0.48460  0.72210  0.08380  Biso   1.000  C
  H85      1.0000 0.08400  0.71490  0.57410  Biso   1.000  H
  H86      1.0000 0.91600  0.28510  0.07410  Biso   1.000  H
  H87      1.0000 0.58400  0.28510  0.57410  Biso   1.000  H
  H88      1.0000 0.41600  0.71490  0.07410  Biso   1.000  H
