data_image0
_cell_length_a       7.6549
_cell_length_b       29.3713
_cell_length_c       9.3988
_cell_angle_alpha    90
_cell_angle_beta     114.479
_cell_angle_gamma    90

_symmetry_space_group_name_H-M    "P 1"
_symmetry_int_tables_number       1

loop_
  _symmetry_equiv_pos_as_xyz
  'x, y, z'

loop_
  _atom_site_label
  _atom_site_occupancy
  _atom_site_fract_x
  _atom_site_fract_y
  _atom_site_fract_z
  _atom_site_thermal_displace_type
  _atom_site_B_iso_or_equiv
  _atom_site_type_symbol
  C1       1.0000 0.85570  0.09752  0.63990  Biso   1.000  C
  C2       1.0000 0.14430  0.59752  0.86010  Biso   1.000  C
  C3       1.0000 0.14430  0.90248  0.36010  Biso   1.000  C
  C4       1.0000 0.85570  0.40248  0.13990  Biso   1.000  C
  H1       1.0000 0.97760  0.08590  0.64840  Biso   1.000  H
  H2       1.0000 0.02240  0.58590  0.85160  Biso   1.000  H
  H3       1.0000 0.02240  0.91410  0.35160  Biso   1.000  H
  H4       1.0000 0.97760  0.41410  0.14840  Biso   1.000  H
  H5       1.0000 0.83160  0.08730  0.72600  Biso   1.000  H
  H6       1.0000 0.16840  0.58730  0.77400  Biso   1.000  H
  H7       1.0000 0.16840  0.91270  0.27400  Biso   1.000  H
  H8       1.0000 0.83160  0.41270  0.22600  Biso   1.000  H
  H9       1.0000 0.75630  0.08660  0.54350  Biso   1.000  H
  H10      1.0000 0.24370  0.58660  0.95650  Biso   1.000  H
  H11      1.0000 0.24370  0.91340  0.45650  Biso   1.000  H
  H12      1.0000 0.75630  0.41340  0.04350  Biso   1.000  H
  C5       1.0000 0.85920  0.14875  0.63710  Biso   1.000  C
  C6       1.0000 0.14080  0.64875  0.86290  Biso   1.000  C
  C7       1.0000 0.14080  0.85125  0.36290  Biso   1.000  C
  C8       1.0000 0.85920  0.35125  0.13710  Biso   1.000  C
  C9       1.0000 0.74760  0.17431  0.69510  Biso   1.000  C
  C10      1.0000 0.25240  0.67431  0.80490  Biso   1.000  C
  C11      1.0000 0.25240  0.82569  0.30490  Biso   1.000  C
  C12      1.0000 0.74760  0.32569  0.19510  Biso   1.000  C
  H13      1.0000 0.67350  0.15920  0.73750  Biso   1.000  H
  H14      1.0000 0.32650  0.65920  0.76250  Biso   1.000  H
  H15      1.0000 0.32650  0.84080  0.26250  Biso   1.000  H
  H16      1.0000 0.67350  0.34080  0.23750  Biso   1.000  H
  C13      1.0000 0.74540  0.22094  0.69050  Biso   1.000  C
  C14      1.0000 0.25460  0.72094  0.80950  Biso   1.000  C
  C15      1.0000 0.25460  0.77906  0.30950  Biso   1.000  C
  C16      1.0000 0.74540  0.27906  0.19050  Biso   1.000  C
  H17      1.0000 0.67020  0.23750  0.72840  Biso   1.000  H
  H18      1.0000 0.32980  0.73750  0.77160  Biso   1.000  H
  H19      1.0000 0.32980  0.76250  0.27160  Biso   1.000  H
  H20      1.0000 0.67020  0.26250  0.22840  Biso   1.000  H
  C17      1.0000 0.85960  0.24331  0.62700  Biso   1.000  C
  C18      1.0000 0.14040  0.74331  0.87300  Biso   1.000  C
  C19      1.0000 0.14040  0.75669  0.37300  Biso   1.000  C
  C20      1.0000 0.85960  0.25669  0.12700  Biso   1.000  C
  C21      1.0000 0.87610  0.29213  0.61980  Biso   1.000  C
  C22      1.0000 0.12390  0.79213  0.88020  Biso   1.000  C
  C23      1.0000 0.12390  0.70787  0.38020  Biso   1.000  C
  C24      1.0000 0.87610  0.20787  0.11980  Biso   1.000  C
  H21      1.0000 0.80040  0.31060  0.65180  Biso   1.000  H
  H22      1.0000 0.19960  0.81060  0.84820  Biso   1.000  H
  H23      1.0000 0.19960  0.68940  0.34820  Biso   1.000  H
  H24      1.0000 0.80040  0.18940  0.15180  Biso   1.000  H
  C25      1.0000 0.99910  0.31175  0.56790  Biso   1.000  C
  C26      1.0000 0.00090  0.81175  0.93210  Biso   1.000  C
  C27      1.0000 0.00090  0.68825  0.43210  Biso   1.000  C
  C28      1.0000 0.99910  0.18825  0.06790  Biso   1.000  C
  H25      1.0000 0.00920  0.34330  0.56750  Biso   1.000  H
  H26      1.0000 0.99080  0.84330  0.93250  Biso   1.000  H
  H27      1.0000 0.99080  0.65670  0.43250  Biso   1.000  H
  H28      1.0000 0.00920  0.15670  0.06750  Biso   1.000  H
  C29      1.0000 0.11390  0.28416  0.51340  Biso   1.000  C
  C30      1.0000 0.88610  0.78416  0.98660  Biso   1.000  C
  C31      1.0000 0.88610  0.71584  0.48660  Biso   1.000  C
  C32      1.0000 0.11390  0.21584  0.01340  Biso   1.000  C
  C33      1.0000 0.09360  0.23676  0.51630  Biso   1.000  C
  C34      1.0000 0.90640  0.73676  0.98370  Biso   1.000  C
  C35      1.0000 0.90640  0.76324  0.48370  Biso   1.000  C
  C36      1.0000 0.09360  0.26324  0.01630  Biso   1.000  C
  C37      1.0000 0.96840  0.21576  0.57400  Biso   1.000  C
  C38      1.0000 0.03160  0.71576  0.92600  Biso   1.000  C
  C39      1.0000 0.03160  0.78424  0.42600  Biso   1.000  C
  C40      1.0000 0.96840  0.28424  0.07400  Biso   1.000  C
  C41      1.0000 0.24720  0.30045  0.45810  Biso   1.000  C
  C42      1.0000 0.75280  0.80045  0.04190  Biso   1.000  C
  C43      1.0000 0.75280  0.69955  0.54190  Biso   1.000  C
  C44      1.0000 0.24720  0.19955  0.95810  Biso   1.000  C
  H29      1.0000 0.26800  0.33160  0.45580  Biso   1.000  H
  H30      1.0000 0.73200  0.83160  0.04420  Biso   1.000  H
  H31      1.0000 0.73200  0.66840  0.54420  Biso   1.000  H
  H32      1.0000 0.26800  0.16840  0.95580  Biso   1.000  H
  C45      1.0000 0.34730  0.27018  0.40730  Biso   1.000  C
  C46      1.0000 0.65270  0.77018  0.09270  Biso   1.000  C
  C47      1.0000 0.65270  0.72982  0.59270  Biso   1.000  C
  C48      1.0000 0.34730  0.22982  0.90730  Biso   1.000  C
  H33      1.0000 0.43360  0.28090  0.36870  Biso   1.000  H
  H34      1.0000 0.56640  0.78090  0.13130  Biso   1.000  H
  H35      1.0000 0.56640  0.71910  0.63130  Biso   1.000  H
  H36      1.0000 0.43360  0.21910  0.86870  Biso   1.000  H
  C49      1.0000 0.31800  0.22343  0.41420  Biso   1.000  C
  C50      1.0000 0.68200  0.72343  0.08580  Biso   1.000  C
  C51      1.0000 0.68200  0.77657  0.58580  Biso   1.000  C
  C52      1.0000 0.31800  0.27657  0.91420  Biso   1.000  C
  C53      1.0000 0.41380  0.18487  0.36600  Biso   1.000  C
  C54      1.0000 0.58620  0.68487  0.13400  Biso   1.000  C
  C55      1.0000 0.58620  0.81513  0.63400  Biso   1.000  C
  C56      1.0000 0.41380  0.31513  0.86600  Biso   1.000  C
  C57      1.0000 0.93260  0.06611  0.25130  Biso   1.000  C
  C58      1.0000 0.06740  0.56611  0.24870  Biso   1.000  C
  C59      1.0000 0.06740  0.93389  0.74870  Biso   1.000  C
  C60      1.0000 0.93260  0.43389  0.75130  Biso   1.000  C
  C61      1.0000 0.79410  0.04873  0.09600  Biso   1.000  C
  C62      1.0000 0.20590  0.54873  0.40400  Biso   1.000  C
  C63      1.0000 0.20590  0.95127  0.90400  Biso   1.000  C
  C64      1.0000 0.79410  0.45127  0.59600  Biso   1.000  C
  C65      1.0000 0.65810  0.07847  0.99350  Biso   1.000  C
  C66      1.0000 0.34190  0.57847  0.50650  Biso   1.000  C
  C67      1.0000 0.34190  0.92153  0.00650  Biso   1.000  C
  C68      1.0000 0.65810  0.42153  0.49350  Biso   1.000  C
  H37      1.0000 0.65320  0.10850  0.02320  Biso   1.000  H
  H38      1.0000 0.34680  0.60850  0.47680  Biso   1.000  H
  H39      1.0000 0.34680  0.89150  0.97680  Biso   1.000  H
  H40      1.0000 0.65320  0.39150  0.52320  Biso   1.000  H
  C69      1.0000 0.52930  0.06344  0.84660  Biso   1.000  C
  C70      1.0000 0.47070  0.56344  0.65340  Biso   1.000  C
  C71      1.0000 0.47070  0.93656  0.15340  Biso   1.000  C
  C72      1.0000 0.52930  0.43656  0.34660  Biso   1.000  C
  C73      1.0000 0.39140  0.09726  0.73680  Biso   1.000  C
  C74      1.0000 0.60860  0.59726  0.76320  Biso   1.000  C
  C75      1.0000 0.60860  0.90274  0.26320  Biso   1.000  C
  C76      1.0000 0.39140  0.40274  0.23680  Biso   1.000  C
  C77      1.0000 0.53620  0.01846  0.80300  Biso   1.000  C
  C78      1.0000 0.46380  0.51846  0.69700  Biso   1.000  C
  C79      1.0000 0.46380  0.98154  0.19700  Biso   1.000  C
  C80      1.0000 0.53620  0.48154  0.30300  Biso   1.000  C
  H41      1.0000 0.45030  0.00830  0.70520  Biso   1.000  H
  H42      1.0000 0.54970  0.50830  0.79480  Biso   1.000  H
  H43      1.0000 0.54970  0.99170  0.29480  Biso   1.000  H
  H44      1.0000 0.45030  0.49170  0.20520  Biso   1.000  H
  C81      1.0000 0.67120  0.98859  0.90500  Biso   1.000  C
  C82      1.0000 0.32880  0.48859  0.59500  Biso   1.000  C
  C83      1.0000 0.32880  0.01141  0.09500  Biso   1.000  C
  C84      1.0000 0.67120  0.51141  0.40500  Biso   1.000  C
  C85      1.0000 0.79940  0.00365  0.05200  Biso   1.000  C
  C86      1.0000 0.20060  0.50365  0.44800  Biso   1.000  C
  C87      1.0000 0.20060  0.99635  0.94800  Biso   1.000  C
  C88      1.0000 0.79940  0.49635  0.55200  Biso   1.000  C
  H45      1.0000 0.88860  0.98360  0.12070  Biso   1.000  H
  H46      1.0000 0.11140  0.48360  0.37930  Biso   1.000  H
  H47      1.0000 0.11140  0.01640  0.87930  Biso   1.000  H
  H48      1.0000 0.88860  0.51640  0.62070  Biso   1.000  H
  C89      1.0000 0.68630  0.94024  0.86120  Biso   1.000  C
  C90      1.0000 0.31370  0.44024  0.63880  Biso   1.000  C
  C91      1.0000 0.31370  0.05976  0.13880  Biso   1.000  C
  C92      1.0000 0.68630  0.55976  0.36120  Biso   1.000  C
  Cu1      1.0000 0.17385  0.14413  0.49768  Biso   1.000  Cu
  Cu2      1.0000 0.82615  0.64413  0.00232  Biso   1.000  Cu
  Cu3      1.0000 0.82615  0.85587  0.50232  Biso   1.000  Cu
  Cu4      1.0000 0.17385  0.35587  0.99768  Biso   1.000  Cu
  N1       1.0000 0.96970  0.16904  0.57760  Biso   1.000  N
  N2       1.0000 0.03030  0.66904  0.92240  Biso   1.000  N
  N3       1.0000 0.03030  0.83096  0.42240  Biso   1.000  N
  N4       1.0000 0.96970  0.33096  0.07760  Biso   1.000  N
  N5       1.0000 0.19410  0.20817  0.46810  Biso   1.000  N
  N6       1.0000 0.80590  0.70817  0.03190  Biso   1.000  N
  N7       1.0000 0.80590  0.79183  0.53190  Biso   1.000  N
  N8       1.0000 0.19410  0.29183  0.96810  Biso   1.000  N
  O1       1.0000 0.80280  0.91387  0.94630  Biso   1.000  O
  O2       1.0000 0.19720  0.41387  0.55370  Biso   1.000  O
  O3       1.0000 0.19720  0.08613  0.05370  Biso   1.000  O
  O4       1.0000 0.80280  0.58613  0.44630  Biso   1.000  O
  O5       1.0000 0.55970  0.93004  0.71870  Biso   1.000  O
  O6       1.0000 0.44030  0.43004  0.78130  Biso   1.000  O
  O7       1.0000 0.44030  0.06996  0.28130  Biso   1.000  O
  O8       1.0000 0.55970  0.56996  0.21870  Biso   1.000  O
  H49      1.0000 0.59400  0.90690  0.68860  Biso   1.000  H
  H50      1.0000 0.40600  0.40690  0.81140  Biso   1.000  H
  H51      1.0000 0.40600  0.09310  0.31140  Biso   1.000  H
  H52      1.0000 0.59400  0.59310  0.18860  Biso   1.000  H
  O9       1.0000 0.04480  0.03426  0.34320  Biso   1.000  O
  O10      1.0000 0.95520  0.53426  0.15680  Biso   1.000  O
  O11      1.0000 0.95520  0.96574  0.65680  Biso   1.000  O
  O12      1.0000 0.04480  0.46574  0.84320  Biso   1.000  O
  H53      1.0000 0.12310  0.04590  0.42360  Biso   1.000  H
  H54      1.0000 0.87690  0.54590  0.07640  Biso   1.000  H
  H55      1.0000 0.87690  0.95410  0.57640  Biso   1.000  H
  H56      1.0000 0.12310  0.45410  0.92360  Biso   1.000  H
  O13      1.0000 0.94330  0.10603  0.28814  Biso   1.000  O
  O14      1.0000 0.05670  0.60603  0.21186  Biso   1.000  O
  O15      1.0000 0.05670  0.89397  0.71186  Biso   1.000  O
  O16      1.0000 0.94330  0.39397  0.78814  Biso   1.000  O
  O17      1.0000 0.26770  0.08360  0.60181  Biso   1.000  O
  O18      1.0000 0.73230  0.58360  0.89819  Biso   1.000  O
  O19      1.0000 0.73230  0.91640  0.39819  Biso   1.000  O
  O20      1.0000 0.26770  0.41640  0.10181  Biso   1.000  O
  O21      1.0000 0.40430  0.13769  0.77550  Biso   1.000  O
  O22      1.0000 0.59570  0.63769  0.72450  Biso   1.000  O
  O23      1.0000 0.59570  0.86231  0.22450  Biso   1.000  O
  O24      1.0000 0.40430  0.36231  0.27550  Biso   1.000  O
  O25      1.0000 0.36400  0.14467  0.39620  Biso   1.000  O
  O26      1.0000 0.63600  0.64467  0.10380  Biso   1.000  O
  O27      1.0000 0.63600  0.85533  0.60380  Biso   1.000  O
  O28      1.0000 0.36400  0.35533  0.89620  Biso   1.000  O
  O29      1.0000 0.52540  0.19248  0.30730  Biso   1.000  O
  O30      1.0000 0.47460  0.69248  0.19270  Biso   1.000  O
  O31      1.0000 0.47460  0.80752  0.69270  Biso   1.000  O
  O32      1.0000 0.52540  0.30752  0.80730  Biso   1.000  O
