data_image0
_cell_length_a       7.954
_cell_length_b       10.061
_cell_length_c       11.955
_cell_angle_alpha    92.47
_cell_angle_beta     96.64
_cell_angle_gamma    99.58

_symmetry_space_group_name_H-M    "P 1"
_symmetry_int_tables_number       1

loop_
  _symmetry_equiv_pos_as_xyz
  'x, y, z'

loop_
  _atom_site_label
  _atom_site_occupancy
  _atom_site_fract_x
  _atom_site_fract_y
  _atom_site_fract_z
  _atom_site_thermal_displace_type
  _atom_site_B_iso_or_equiv
  _atom_site_type_symbol
  Cu1      1.0000 0.10320  0.00330  0.21025  Biso   1.000  Cu
  Cu2      1.0000 0.89680  0.99670  0.78975  Biso   1.000  Cu
  O1       1.0000 0.07040  0.84730  0.10140  Biso   1.000  O
  O2       1.0000 0.92960  0.15270  0.89860  Biso   1.000  O
  O3       1.0000 0.78200  0.95550  0.22450  Biso   1.000  O
  O4       1.0000 0.21800  0.04450  0.77550  Biso   1.000  O
  O5       1.0000 0.92930  0.08990  0.11580  Biso   1.000  O
  O6       1.0000 0.07070  0.91010  0.88420  Biso   1.000  O
  N1       1.0000 0.21180  0.90490  0.33350  Biso   1.000  N
  N2       1.0000 0.78820  0.09510  0.66650  Biso   1.000  N
  N3       1.0000 0.11930  0.14030  0.33790  Biso   1.000  N
  N4       1.0000 0.88070  0.85970  0.66210  Biso   1.000  N
  N5       1.0000 0.33430  0.09550  0.13410  Biso   1.000  N
  N6       1.0000 0.66570  0.90450  0.86590  Biso   1.000  N
  C1       1.0000 0.26300  0.78450  0.32460  Biso   1.000  C
  C2       1.0000 0.73700  0.21550  0.67540  Biso   1.000  C
  C3       1.0000 0.33200  0.72590  0.41470  Biso   1.000  C
  C4       1.0000 0.66800  0.27410  0.58530  Biso   1.000  C
  C5       1.0000 0.35100  0.79000  0.51990  Biso   1.000  C
  C6       1.0000 0.64900  0.21000  0.48010  Biso   1.000  C
  C7       1.0000 0.29900  0.91400  0.52970  Biso   1.000  C
  C8       1.0000 0.70100  0.08600  0.47030  Biso   1.000  C
  C9       1.0000 0.23320  0.96810  0.43710  Biso   1.000  C
  C10      1.0000 0.76680  0.03190  0.56290  Biso   1.000  C
  C11      1.0000 0.18030  0.10290  0.43770  Biso   1.000  C
  C12      1.0000 0.81970  0.89710  0.56230  Biso   1.000  C
  C13      1.0000 0.19200  0.18650  0.53480  Biso   1.000  C
  C14      1.0000 0.80800  0.81350  0.46520  Biso   1.000  C
  C15      1.0000 0.14200  0.31000  0.52450  Biso   1.000  C
  C16      1.0000 0.85800  0.69000  0.47550  Biso   1.000  C
  C17      1.0000 0.08400  0.34900  0.42280  Biso   1.000  C
  C18      1.0000 0.91600  0.65100  0.57720  Biso   1.000  C
  C19      1.0000 0.07100  0.26140  0.32930  Biso   1.000  C
  C20      1.0000 0.92900  0.73860  0.67070  Biso   1.000  C
  C21      1.0000 0.33800  0.19940  0.07380  Biso   1.000  C
  C22      1.0000 0.66200  0.80060  0.92620  Biso   1.000  C
  C23      1.0000 0.48500  0.26460  0.03240  Biso   1.000  C
  C24      1.0000 0.51500  0.73540  0.96760  Biso   1.000  C
  C25      1.0000 0.63400  0.21500  0.05860  Biso   1.000  C
  C26      1.0000 0.36600  0.78500  0.94140  Biso   1.000  C
  C27      1.0000 0.63510  0.10480  0.12130  Biso   1.000  C
  C28      1.0000 0.36490  0.89520  0.87870  Biso   1.000  C
  C29      1.0000 0.48030  0.04670  0.15740  Biso   1.000  C
  C30      1.0000 0.51970  0.95330  0.84260  Biso   1.000  C
  C31      1.0000 0.78700  0.04320  0.15530  Biso   1.000  C
  C32      1.0000 0.21300  0.95680  0.84470  Biso   1.000  C
  O7       1.0000 0.44600  0.41420  0.30460  Biso   1.000  O
  O8       1.0000 0.55400  0.58580  0.69540  Biso   1.000  O
  O9       1.0000 0.71300  0.43370  0.28410  Biso   1.000  O
  O10      1.0000 0.28700  0.56630  0.71590  Biso   1.000  O
  O11      1.0000 0.55400  0.56030  0.20130  Biso   1.000  O
  O12      1.0000 0.44600  0.43970  0.79870  Biso   1.000  O
  N7       1.0000 0.57200  0.47200  0.26410  Biso   1.000  N
  N8       1.0000 0.42800  0.52800  0.73590  Biso   1.000  N
  O13      1.0000 0.87640  0.60510  0.10570  Biso   1.000  O
  O14      1.0000 0.12360  0.39490  0.89430  Biso   1.000  O
  O15      1.0000 0.16700  0.49170  0.12510  Biso   1.000  O
  O16      1.0000 0.83300  0.50830  0.87490  Biso   1.000  O
