data_image0
_cell_length_a       9.5561
_cell_length_b       16.1623
_cell_length_c       11.506
_cell_angle_alpha    90
_cell_angle_beta     101.398
_cell_angle_gamma    90

_symmetry_space_group_name_H-M    "P 1"
_symmetry_int_tables_number       1

loop_
  _symmetry_equiv_pos_as_xyz
  'x, y, z'

loop_
  _atom_site_label
  _atom_site_occupancy
  _atom_site_fract_x
  _atom_site_fract_y
  _atom_site_fract_z
  _atom_site_thermal_displace_type
  _atom_site_B_iso_or_equiv
  _atom_site_type_symbol
  Cu1      1.0000 0.60794  0.79766  0.10292  Biso   1.000  Cu
  Cu2      1.0000 0.89206  0.29766  0.39708  Biso   1.000  Cu
  Cu3      1.0000 0.39206  0.20234  0.89708  Biso   1.000  Cu
  Cu4      1.0000 0.10794  0.70234  0.60292  Biso   1.000  Cu
  N1       1.0000 0.57070  0.82480  0.92780  Biso   1.000  N
  N2       1.0000 0.92930  0.32480  0.57220  Biso   1.000  N
  N3       1.0000 0.42930  0.17520  0.07220  Biso   1.000  N
  N4       1.0000 0.07070  0.67520  0.42780  Biso   1.000  N
  N5       1.0000 0.32550  0.95314  0.54940  Biso   1.000  N
  N6       1.0000 0.17450  0.45314  0.95060  Biso   1.000  N
  N7       1.0000 0.67450  0.04686  0.45060  Biso   1.000  N
  N8       1.0000 0.82550  0.54686  0.04940  Biso   1.000  N
  N9       1.0000 0.98690  0.18613  0.41880  Biso   1.000  N
  N10      1.0000 0.51310  0.68613  0.08120  Biso   1.000  N
  N11      1.0000 0.01310  0.81387  0.58120  Biso   1.000  N
  N12      1.0000 0.48690  0.31387  0.91880  Biso   1.000  N
  O1       1.0000 0.57630  0.80626  0.26807  Biso   1.000  O
  O2       1.0000 0.92370  0.30626  0.23193  Biso   1.000  O
  O3       1.0000 0.42370  0.19374  0.73193  Biso   1.000  O
  O4       1.0000 0.07630  0.69374  0.76807  Biso   1.000  O
  O5       1.0000 0.39280  0.86399  0.14960  Biso   1.000  O
  O6       1.0000 0.10720  0.36399  0.35040  Biso   1.000  O
  O7       1.0000 0.60720  0.13601  0.85040  Biso   1.000  O
  O8       1.0000 0.89280  0.63601  0.64960  Biso   1.000  O
  O9       1.0000 0.72190  0.89885  0.12400  Biso   1.000  O
  O10      1.0000 0.77810  0.39885  0.37600  Biso   1.000  O
  O11      1.0000 0.27810  0.10115  0.87600  Biso   1.000  O
  O12      1.0000 0.22190  0.60115  0.62400  Biso   1.000  O
  O13      1.0000 0.86510  0.80116  0.08450  Biso   1.000  O
  O14      1.0000 0.63490  0.30116  0.41550  Biso   1.000  O
  O15      1.0000 0.13490  0.19884  0.91550  Biso   1.000  O
  O16      1.0000 0.36510  0.69884  0.58450  Biso   1.000  O
  C1       1.0000 0.62860  0.79130  0.84280  Biso   1.000  C
  C2       1.0000 0.87140  0.29130  0.65720  Biso   1.000  C
  C3       1.0000 0.37140  0.20870  0.15720  Biso   1.000  C
  C4       1.0000 0.12860  0.70870  0.34280  Biso   1.000  C
  H1       1.0000 0.69930  0.75140  0.86380  Biso   1.000  H
  H2       1.0000 0.80070  0.25140  0.63620  Biso   1.000  H
  H3       1.0000 0.30070  0.24860  0.13620  Biso   1.000  H
  H4       1.0000 0.19930  0.74860  0.36380  Biso   1.000  H
  C5       1.0000 0.58860  0.81300  0.72510  Biso   1.000  C
  C6       1.0000 0.91140  0.31300  0.77490  Biso   1.000  C
  C7       1.0000 0.41140  0.18700  0.27490  Biso   1.000  C
  C8       1.0000 0.08860  0.68700  0.22510  Biso   1.000  C
  H5       1.0000 0.63170  0.78780  0.66860  Biso   1.000  H
  H6       1.0000 0.86830  0.28780  0.83140  Biso   1.000  H
  H7       1.0000 0.36830  0.21220  0.33140  Biso   1.000  H
  H8       1.0000 0.13170  0.71220  0.16860  Biso   1.000  H
  C9       1.0000 0.48450  0.87208  0.69110  Biso   1.000  C
  C10      1.0000 0.01550  0.37208  0.80890  Biso   1.000  C
  C11      1.0000 0.51550  0.12792  0.30890  Biso   1.000  C
  C12      1.0000 0.98450  0.62792  0.19110  Biso   1.000  C
  C13      1.0000 0.43110  0.91040  0.78050  Biso   1.000  C
  C14      1.0000 0.06890  0.41040  0.71950  Biso   1.000  C
  C15      1.0000 0.56890  0.08960  0.21950  Biso   1.000  C
  C16      1.0000 0.93110  0.58960  0.28050  Biso   1.000  C
  H9       1.0000 0.36480  0.95290  0.76260  Biso   1.000  H
  H10      1.0000 0.13520  0.45290  0.73740  Biso   1.000  H
  H11      1.0000 0.63520  0.04710  0.23740  Biso   1.000  H
  H12      1.0000 0.86480  0.54710  0.26260  Biso   1.000  H
  C17      1.0000 0.47670  0.88540  0.89580  Biso   1.000  C
  C18      1.0000 0.02330  0.38540  0.60420  Biso   1.000  C
  C19      1.0000 0.52330  0.11460  0.10420  Biso   1.000  C
  C20      1.0000 0.97670  0.61460  0.39580  Biso   1.000  C
  H13      1.0000 0.43990  0.91220  0.95470  Biso   1.000  H
  H14      1.0000 0.06010  0.41220  0.54530  Biso   1.000  H
  H15      1.0000 0.56010  0.08780  0.04530  Biso   1.000  H
  H16      1.0000 0.93990  0.58780  0.45470  Biso   1.000  H
  C21      1.0000 0.42660  0.89467  0.56480  Biso   1.000  C
  C22      1.0000 0.07340  0.39467  0.93520  Biso   1.000  C
  C23      1.0000 0.57340  0.10533  0.43520  Biso   1.000  C
  C24      1.0000 0.92660  0.60533  0.06480  Biso   1.000  C
  C25      1.0000 0.47390  0.85836  0.47040  Biso   1.000  C
  C26      1.0000 0.02610  0.35836  0.02960  Biso   1.000  C
  C27      1.0000 0.52610  0.14164  0.52960  Biso   1.000  C
  C28      1.0000 0.97390  0.64164  0.97040  Biso   1.000  C
  H17      1.0000 0.54570  0.81860  0.48330  Biso   1.000  H
  H18      1.0000 0.95430  0.31860  0.01670  Biso   1.000  H
  H19      1.0000 0.45430  0.18140  0.51670  Biso   1.000  H
  H20      1.0000 0.04570  0.68140  0.98330  Biso   1.000  H
  C29      1.0000 0.41200  0.88259  0.35640  Biso   1.000  C
  C30      1.0000 0.08800  0.38259  0.14360  Biso   1.000  C
  C31      1.0000 0.58800  0.11741  0.64360  Biso   1.000  C
  C32      1.0000 0.91200  0.61741  0.85640  Biso   1.000  C
  C33      1.0000 0.30620  0.94180  0.34010  Biso   1.000  C
  C34      1.0000 0.19380  0.44180  0.15990  Biso   1.000  C
  C35      1.0000 0.69380  0.05820  0.65990  Biso   1.000  C
  C36      1.0000 0.80620  0.55820  0.84010  Biso   1.000  C
  H21      1.0000 0.26250  0.95820  0.26410  Biso   1.000  H
  H22      1.0000 0.23750  0.45820  0.23590  Biso   1.000  H
  H23      1.0000 0.73750  0.04180  0.73590  Biso   1.000  H
  H24      1.0000 0.76250  0.54180  0.76410  Biso   1.000  H
  C37      1.0000 0.26570  0.97667  0.43910  Biso   1.000  C
  C38      1.0000 0.23430  0.47667  0.06090  Biso   1.000  C
  C39      1.0000 0.73430  0.02333  0.56090  Biso   1.000  C
  C40      1.0000 0.76570  0.52333  0.93910  Biso   1.000  C
  C41      1.0000 0.98360  0.13610  0.32500  Biso   1.000  C
  C42      1.0000 0.51640  0.63610  0.17500  Biso   1.000  C
  C43      1.0000 0.01640  0.86390  0.67500  Biso   1.000  C
  C44      1.0000 0.48360  0.36390  0.82500  Biso   1.000  C
  H25      1.0000 0.92100  0.14900  0.25460  Biso   1.000  H
  H26      1.0000 0.57900  0.64900  0.24540  Biso   1.000  H
  H27      1.0000 0.07900  0.85100  0.74540  Biso   1.000  H
  H28      1.0000 0.42100  0.35100  0.75460  Biso   1.000  H
  C45      1.0000 0.06820  0.06690  0.32780  Biso   1.000  C
  C46      1.0000 0.43180  0.56690  0.17220  Biso   1.000  C
  C47      1.0000 0.93180  0.93310  0.67220  Biso   1.000  C
  C48      1.0000 0.56820  0.43310  0.82780  Biso   1.000  C
  H29      1.0000 0.06210  0.03430  0.26030  Biso   1.000  H
  H30      1.0000 0.43790  0.53430  0.23970  Biso   1.000  H
  H31      1.0000 0.93790  0.96570  0.73970  Biso   1.000  H
  H32      1.0000 0.56210  0.46570  0.76030  Biso   1.000  H
  C49      1.0000 0.16240  0.04570  0.43130  Biso   1.000  C
  C50      1.0000 0.33760  0.54570  0.06870  Biso   1.000  C
  C51      1.0000 0.83760  0.95430  0.56870  Biso   1.000  C
  C52      1.0000 0.66240  0.45430  0.93130  Biso   1.000  C
  C53      1.0000 0.16100  0.09560  0.52890  Biso   1.000  C
  C54      1.0000 0.33900  0.59560  0.97110  Biso   1.000  C
  C55      1.0000 0.83900  0.90440  0.47110  Biso   1.000  C
  C56      1.0000 0.66100  0.40440  0.02890  Biso   1.000  C
  H33      1.0000 0.21900  0.08280  0.60140  Biso   1.000  H
  H34      1.0000 0.28100  0.58280  0.89860  Biso   1.000  H
  H35      1.0000 0.78100  0.91720  0.39860  Biso   1.000  H
  H36      1.0000 0.71900  0.41720  0.10140  Biso   1.000  H
  C57      1.0000 0.07490  0.16370  0.51890  Biso   1.000  C
  C58      1.0000 0.42510  0.66370  0.98110  Biso   1.000  C
  C59      1.0000 0.92510  0.83630  0.48110  Biso   1.000  C
  C60      1.0000 0.57490  0.33630  0.01890  Biso   1.000  C
  H37      1.0000 0.07760  0.19630  0.58590  Biso   1.000  H
  H38      1.0000 0.42240  0.69630  0.91410  Biso   1.000  H
  H39      1.0000 0.92240  0.80370  0.41410  Biso   1.000  H
  H40      1.0000 0.57760  0.30370  0.08590  Biso   1.000  H
  C61      1.0000 0.46210  0.84860  0.24940  Biso   1.000  C
  C62      1.0000 0.03790  0.34860  0.25060  Biso   1.000  C
  C63      1.0000 0.53790  0.15140  0.75060  Biso   1.000  C
  C64      1.0000 0.96210  0.65140  0.74940  Biso   1.000  C
  C65      1.0000 0.83360  0.87460  0.09300  Biso   1.000  C
  C66      1.0000 0.66640  0.37460  0.40700  Biso   1.000  C
  C67      1.0000 0.16640  0.12540  0.90700  Biso   1.000  C
  C68      1.0000 0.33360  0.62540  0.59300  Biso   1.000  C
  C69      1.0000 0.92150  0.94000  0.04600  Biso   1.000  C
  C70      1.0000 0.57850  0.44000  0.45400  Biso   1.000  C
  C71      1.0000 0.07850  0.06000  0.95400  Biso   1.000  C
  C72      1.0000 0.42150  0.56000  0.54600  Biso   1.000  C
  C73      1.0000 0.86470  0.01770  0.01610  Biso   1.000  C
  C74      1.0000 0.63530  0.51770  0.48390  Biso   1.000  C
  C75      1.0000 0.13530  0.98230  0.98390  Biso   1.000  C
  C76      1.0000 0.36470  0.48230  0.51610  Biso   1.000  C
  H41      1.0000 0.77270  0.02970  0.02620  Biso   1.000  H
  H42      1.0000 0.72730  0.52970  0.47380  Biso   1.000  H
  H43      1.0000 0.22730  0.97030  0.97380  Biso   1.000  H
  H44      1.0000 0.27270  0.47030  0.52620  Biso   1.000  H
  C77      1.0000 0.94240  0.07770  0.97160  Biso   1.000  C
  C78      1.0000 0.55760  0.57770  0.52840  Biso   1.000  C
  C79      1.0000 0.05760  0.92230  0.02840  Biso   1.000  C
  C80      1.0000 0.44240  0.42230  0.47160  Biso   1.000  C
  H45      1.0000 0.90340  0.13000  0.95350  Biso   1.000  H
  H46      1.0000 0.59660  0.63000  0.54650  Biso   1.000  H
  H47      1.0000 0.09660  0.87000  0.04650  Biso   1.000  H
  H48      1.0000 0.40340  0.37000  0.45350  Biso   1.000  H
