data_image0
_cell_length_a       9.799
_cell_length_b       6.614
_cell_length_c       10.407
_cell_angle_alpha    90
_cell_angle_beta     105.02
_cell_angle_gamma    90

_symmetry_space_group_name_H-M    "P 1"
_symmetry_int_tables_number       1

loop_
  _symmetry_equiv_pos_as_xyz
  'x, y, z'

loop_
  _atom_site_label
  _atom_site_occupancy
  _atom_site_fract_x
  _atom_site_fract_y
  _atom_site_fract_z
  _atom_site_thermal_displace_type
  _atom_site_B_iso_or_equiv
  _atom_site_type_symbol
  Cu1      1.0000 0.50000  0.00000  0.50000  Biso   1.000  Cu
  Cu2      1.0000 0.50000  0.50000  0.00000  Biso   1.000  Cu
  O1       1.0000 0.59735  0.19530  0.35015  Biso   1.000  O
  O2       1.0000 0.40265  0.69530  0.14985  Biso   1.000  O
  O3       1.0000 0.40265  0.80470  0.64985  Biso   1.000  O
  O4       1.0000 0.59735  0.30470  0.85015  Biso   1.000  O
  O5       1.0000 0.53702  0.75680  0.40886  Biso   1.000  O
  O6       1.0000 0.46298  0.25680  0.09114  Biso   1.000  O
  O7       1.0000 0.46298  0.24320  0.59114  Biso   1.000  O
  O8       1.0000 0.53702  0.74320  0.90886  Biso   1.000  O
  O9       1.0000 0.23384  0.01060  0.01220  Biso   1.000  O
  O10      1.0000 0.76616  0.51060  0.48780  Biso   1.000  O
  O11      1.0000 0.76616  0.98940  0.98780  Biso   1.000  O
  O12      1.0000 0.23384  0.48940  0.51220  Biso   1.000  O
  N1       1.0000 0.30680  0.01430  0.37850  Biso   1.000  N
  N2       1.0000 0.69320  0.51430  0.12150  Biso   1.000  N
  N3       1.0000 0.69320  0.98570  0.62150  Biso   1.000  N
  N4       1.0000 0.30680  0.48570  0.87850  Biso   1.000  N
  N5       1.0000 0.85080  0.98720  0.35700  Biso   1.000  N
  N6       1.0000 0.14920  0.48720  0.14300  Biso   1.000  N
  N7       1.0000 0.14920  0.01280  0.64300  Biso   1.000  N
  N8       1.0000 0.85080  0.51280  0.85700  Biso   1.000  N
  C1       1.0000 0.19220  0.00640  0.31810  Biso   1.000  C
  C2       1.0000 0.80780  0.50640  0.18190  Biso   1.000  C
  C3       1.0000 0.80780  0.99360  0.68190  Biso   1.000  C
  C4       1.0000 0.19220  0.49360  0.81810  Biso   1.000  C
  C5       1.0000 0.05120  0.99810  0.24040  Biso   1.000  C
  C6       1.0000 0.94880  0.49810  0.25960  Biso   1.000  C
  C7       1.0000 0.94880  0.00190  0.75960  Biso   1.000  C
  C8       1.0000 0.05120  0.50190  0.74040  Biso   1.000  C
  C9       1.0000 0.02170  0.99870  0.10270  Biso   1.000  C
  C10      1.0000 0.97830  0.49870  0.39730  Biso   1.000  C
  C11      1.0000 0.97830  0.00130  0.89730  Biso   1.000  C
  C12      1.0000 0.02170  0.50130  0.60270  Biso   1.000  C
  C13      1.0000 0.10600  0.00510  0.00570  Biso   1.000  C
  C14      1.0000 0.89400  0.50510  0.49430  Biso   1.000  C
  C15      1.0000 0.89400  0.99490  0.99430  Biso   1.000  C
  C16      1.0000 0.10600  0.49490  0.50570  Biso   1.000  C
  C17      1.0000 0.94130  0.99250  0.30640  Biso   1.000  C
  C18      1.0000 0.05870  0.49250  0.19360  Biso   1.000  C
  C19      1.0000 0.05870  0.00750  0.69360  Biso   1.000  C
  C20      1.0000 0.94130  0.50750  0.80640  Biso   1.000  C
  H1       1.0000 0.62600  0.30200  0.39400  Biso   1.000  H
  H2       1.0000 0.37400  0.80200  0.10600  Biso   1.000  H
  H3       1.0000 0.37400  0.69800  0.60600  Biso   1.000  H
  H4       1.0000 0.62600  0.19800  0.89400  Biso   1.000  H
  H5       1.0000 0.67300  0.12300  0.34100  Biso   1.000  H
  H6       1.0000 0.32700  0.62300  0.15900  Biso   1.000  H
  H7       1.0000 0.32700  0.87700  0.65900  Biso   1.000  H
  H8       1.0000 0.67300  0.37700  0.84100  Biso   1.000  H
  H9       1.0000 0.61800  0.70600  0.42800  Biso   1.000  H
  H10      1.0000 0.38200  0.20600  0.07200  Biso   1.000  H
  H11      1.0000 0.38200  0.29400  0.57200  Biso   1.000  H
  H12      1.0000 0.61800  0.79400  0.92800  Biso   1.000  H
  H13      1.0000 0.50100  0.72800  0.31500  Biso   1.000  H
  H14      1.0000 0.49900  0.22800  0.18500  Biso   1.000  H
  H15      1.0000 0.49900  0.27200  0.68500  Biso   1.000  H
  H16      1.0000 0.50100  0.77200  0.81500  Biso   1.000  H
