data_image0
_cell_length_a       10.407
_cell_length_b       6.614
_cell_length_c       9.799
_cell_angle_alpha    90
_cell_angle_beta     105.02
_cell_angle_gamma    90

_symmetry_space_group_name_H-M    "P 1"
_symmetry_int_tables_number       1

loop_
  _symmetry_equiv_pos_as_xyz
  'x, y, z'

loop_
  _atom_site_label
  _atom_site_occupancy
  _atom_site_fract_x
  _atom_site_fract_y
  _atom_site_fract_z
  _atom_site_thermal_displace_type
  _atom_site_B_iso_or_equiv
  _atom_site_type_symbol
  Cu1      1.0000 0.50000  0.00000  0.50000  Biso   1.000  Cu
  Cu2      1.0000 0.00000  0.50000  0.50000  Biso   1.000  Cu
  O1       1.0000 0.35015  0.19530  0.59735  Biso   1.000  O
  O2       1.0000 0.85015  0.69530  0.59735  Biso   1.000  O
  O3       1.0000 0.64985  0.19530  0.40265  Biso   1.000  O
  O4       1.0000 0.14985  0.69530  0.40265  Biso   1.000  O
  O5       1.0000 0.64985  0.80470  0.40265  Biso   1.000  O
  O6       1.0000 0.14985  0.30470  0.40265  Biso   1.000  O
  O7       1.0000 0.35015  0.80470  0.59735  Biso   1.000  O
  O8       1.0000 0.85015  0.30470  0.59735  Biso   1.000  O
  O9       1.0000 0.40886  0.24320  0.53702  Biso   1.000  O
  O10      1.0000 0.90886  0.74320  0.53702  Biso   1.000  O
  O11      1.0000 0.59114  0.24320  0.46298  Biso   1.000  O
  O12      1.0000 0.09114  0.74320  0.46298  Biso   1.000  O
  O13      1.0000 0.59114  0.75680  0.46298  Biso   1.000  O
  O14      1.0000 0.09114  0.25680  0.46298  Biso   1.000  O
  O15      1.0000 0.40886  0.75680  0.53702  Biso   1.000  O
  O16      1.0000 0.90886  0.25680  0.53702  Biso   1.000  O
  O17      1.0000 0.01220  0.00000  0.23384  Biso   1.000  O
  O18      1.0000 0.51220  0.50000  0.23384  Biso   1.000  O
  O19      1.0000 0.98780  0.00000  0.76616  Biso   1.000  O
  O20      1.0000 0.48780  0.50000  0.76616  Biso   1.000  O
  N1       1.0000 0.37850  0.00000  0.30680  Biso   1.000  N
  N2       1.0000 0.87850  0.50000  0.30680  Biso   1.000  N
  N3       1.0000 0.62150  0.00000  0.69320  Biso   1.000  N
  N4       1.0000 0.12150  0.50000  0.69320  Biso   1.000  N
  N5       1.0000 0.35700  0.00000  0.85080  Biso   1.000  N
  N6       1.0000 0.85700  0.50000  0.85080  Biso   1.000  N
  N7       1.0000 0.64300  0.00000  0.14920  Biso   1.000  N
  N8       1.0000 0.14300  0.50000  0.14920  Biso   1.000  N
  C1       1.0000 0.31810  0.00000  0.19220  Biso   1.000  C
  C2       1.0000 0.81810  0.50000  0.19220  Biso   1.000  C
  C3       1.0000 0.68190  0.00000  0.80780  Biso   1.000  C
  C4       1.0000 0.18190  0.50000  0.80780  Biso   1.000  C
  C5       1.0000 0.24040  0.00000  0.05120  Biso   1.000  C
  C6       1.0000 0.74040  0.50000  0.05120  Biso   1.000  C
  C7       1.0000 0.75960  0.00000  0.94880  Biso   1.000  C
  C8       1.0000 0.25960  0.50000  0.94880  Biso   1.000  C
  C9       1.0000 0.10270  0.00000  0.02170  Biso   1.000  C
  C10      1.0000 0.60270  0.50000  0.02170  Biso   1.000  C
  C11      1.0000 0.89730  0.00000  0.97830  Biso   1.000  C
  C12      1.0000 0.39730  0.50000  0.97830  Biso   1.000  C
  C13      1.0000 0.00570  0.00000  0.10600  Biso   1.000  C
  C14      1.0000 0.50570  0.50000  0.10600  Biso   1.000  C
  C15      1.0000 0.99430  0.00000  0.89400  Biso   1.000  C
  C16      1.0000 0.49430  0.50000  0.89400  Biso   1.000  C
  C17      1.0000 0.30640  0.00000  0.94130  Biso   1.000  C
  C18      1.0000 0.80640  0.50000  0.94130  Biso   1.000  C
  C19      1.0000 0.69360  0.00000  0.05870  Biso   1.000  C
  C20      1.0000 0.19360  0.50000  0.05870  Biso   1.000  C
