data_image0
_cell_length_a       7.934
_cell_length_b       16.029
_cell_length_c       20.394
_cell_angle_alpha    90
_cell_angle_beta     91.27
_cell_angle_gamma    90

_symmetry_space_group_name_H-M    "P 1"
_symmetry_int_tables_number       1

loop_
  _symmetry_equiv_pos_as_xyz
  'x, y, z'

loop_
  _atom_site_label
  _atom_site_occupancy
  _atom_site_fract_x
  _atom_site_fract_y
  _atom_site_fract_z
  _atom_site_thermal_displace_type
  _atom_site_B_iso_or_equiv
  _atom_site_type_symbol
  Cu1      1.0000 0.57615  0.23584  0.64414  Biso   1.000  Cu
  Cu2      1.0000 0.57615  0.26416  0.14414  Biso   1.000  Cu
  Cu3      1.0000 0.42385  0.76416  0.35586  Biso   1.000  Cu
  Cu4      1.0000 0.42385  0.73584  0.85586  Biso   1.000  Cu
  S1       1.0000 0.21890  0.00118  0.56822  Biso   1.000  S
  S2       1.0000 0.21890  0.49882  0.06822  Biso   1.000  S
  S3       1.0000 0.78110  0.99882  0.43178  Biso   1.000  S
  S4       1.0000 0.78110  0.50118  0.93178  Biso   1.000  S
  S5       1.0000 0.15200  0.87906  0.57055  Biso   1.000  S
  S6       1.0000 0.15200  0.62094  0.07055  Biso   1.000  S
  S7       1.0000 0.84800  0.12094  0.42945  Biso   1.000  S
  S8       1.0000 0.84800  0.37906  0.92945  Biso   1.000  S
  F1       1.0000 0.36020  0.06440  0.81620  Biso   1.000  F
  F2       1.0000 0.36020  0.43560  0.31620  Biso   1.000  F
  F3       1.0000 0.63980  0.93560  0.18380  Biso   1.000  F
  F4       1.0000 0.63980  0.56440  0.68380  Biso   1.000  F
  F5       1.0000 0.13010  0.06170  0.76790  Biso   1.000  F
  F6       1.0000 0.13010  0.43830  0.26790  Biso   1.000  F
  F7       1.0000 0.86990  0.93830  0.23210  Biso   1.000  F
  F8       1.0000 0.86990  0.56170  0.73210  Biso   1.000  F
  F9       1.0000 0.16880  0.14680  0.84470  Biso   1.000  F
  F10      1.0000 0.16880  0.35320  0.34470  Biso   1.000  F
  F11      1.0000 0.83120  0.85320  0.15530  Biso   1.000  F
  F12      1.0000 0.83120  0.64680  0.65530  Biso   1.000  F
  F13      1.0000 0.07800  0.40850  0.65690  Biso   1.000  F
  F14      1.0000 0.07800  0.09150  0.15690  Biso   1.000  F
  F15      1.0000 0.92200  0.59150  0.34310  Biso   1.000  F
  F16      1.0000 0.92200  0.90850  0.84310  Biso   1.000  F
  F17      1.0000 0.09730  0.40810  0.75550  Biso   1.000  F
  F18      1.0000 0.09730  0.09190  0.25550  Biso   1.000  F
  F19      1.0000 0.90270  0.59190  0.24450  Biso   1.000  F
  F20      1.0000 0.90270  0.90810  0.74450  Biso   1.000  F
  F21      1.0000 0.28410  0.46070  0.70220  Biso   1.000  F
  F22      1.0000 0.28410  0.03930  0.20220  Biso   1.000  F
  F23      1.0000 0.71590  0.53930  0.29780  Biso   1.000  F
  F24      1.0000 0.71590  0.96070  0.79780  Biso   1.000  F
  F25      1.0000 0.40840  0.21840  0.39150  Biso   1.000  F
  F26      1.0000 0.40840  0.28160  0.89150  Biso   1.000  F
  F27      1.0000 0.59160  0.78160  0.60850  Biso   1.000  F
  F28      1.0000 0.59160  0.71840  0.10850  Biso   1.000  F
  F29      1.0000 0.21740  0.20110  0.46100  Biso   1.000  F
  F30      1.0000 0.21740  0.29890  0.96100  Biso   1.000  F
  F31      1.0000 0.78260  0.79890  0.53900  Biso   1.000  F
  F32      1.0000 0.78260  0.70110  0.03900  Biso   1.000  F
  F33      1.0000 0.40840  0.11100  0.45090  Biso   1.000  F
  F34      1.0000 0.40840  0.38900  0.95090  Biso   1.000  F
  F35      1.0000 0.59160  0.88900  0.54910  Biso   1.000  F
  F36      1.0000 0.59160  0.61100  0.04910  Biso   1.000  F
  F37      1.0000 0.79100  0.48720  0.54250  Biso   1.000  F
  F38      1.0000 0.79100  0.01280  0.04250  Biso   1.000  F
  F39      1.0000 0.20900  0.51280  0.45750  Biso   1.000  F
  F40      1.0000 0.20900  0.98720  0.95750  Biso   1.000  F
  F41      1.0000 0.68300  0.46300  0.45460  Biso   1.000  F
  F42      1.0000 0.68300  0.03700  0.95460  Biso   1.000  F
  F43      1.0000 0.31700  0.53700  0.54540  Biso   1.000  F
  F44      1.0000 0.31700  0.96300  0.04540  Biso   1.000  F
  F45      1.0000 0.89900  0.40740  0.48240  Biso   1.000  F
  F46      1.0000 0.89900  0.09260  0.98240  Biso   1.000  F
  F47      1.0000 0.10100  0.59260  0.51760  Biso   1.000  F
  F48      1.0000 0.10100  0.90740  0.01760  Biso   1.000  F
  O1       1.0000 0.40980  0.14410  0.70450  Biso   1.000  O
  O2       1.0000 0.40980  0.35590  0.20450  Biso   1.000  O
  O3       1.0000 0.59020  0.85590  0.29550  Biso   1.000  O
  O4       1.0000 0.59020  0.64410  0.79550  Biso   1.000  O
  O5       1.0000 0.37860  0.31170  0.65300  Biso   1.000  O
  O6       1.0000 0.37860  0.18830  0.15300  Biso   1.000  O
  O7       1.0000 0.62140  0.68830  0.34700  Biso   1.000  O
  O8       1.0000 0.62140  0.81170  0.84700  Biso   1.000  O
  O9       1.0000 0.47650  0.19870  0.55950  Biso   1.000  O
  O10      1.0000 0.47650  0.30130  0.05950  Biso   1.000  O
  O11      1.0000 0.52350  0.80130  0.44050  Biso   1.000  O
  O12      1.0000 0.52350  0.69870  0.94050  Biso   1.000  O
  O13      1.0000 0.69680  0.34220  0.59030  Biso   1.000  O
  O14      1.0000 0.69680  0.15780  0.09030  Biso   1.000  O
  O15      1.0000 0.30320  0.65780  0.40970  Biso   1.000  O
  O16      1.0000 0.30320  0.84220  0.90970  Biso   1.000  O
  N1       1.0000 0.77360  0.15860  0.63000  Biso   1.000  N
  N2       1.0000 0.77360  0.34140  0.13000  Biso   1.000  N
  N3       1.0000 0.22640  0.84140  0.37000  Biso   1.000  N
  N4       1.0000 0.22640  0.65860  0.87000  Biso   1.000  N
  N5       1.0000 0.32460  0.77870  0.76990  Biso   1.000  N
  N6       1.0000 0.32460  0.72130  0.26990  Biso   1.000  N
  N7       1.0000 0.67540  0.22130  0.23010  Biso   1.000  N
  N8       1.0000 0.67540  0.27870  0.73010  Biso   1.000  N
  C1       1.0000 0.92640  0.19100  0.61840  Biso   1.000  C
  C2       1.0000 0.92640  0.30900  0.11840  Biso   1.000  C
  C3       1.0000 0.07360  0.80900  0.38160  Biso   1.000  C
  C4       1.0000 0.07360  0.69100  0.88160  Biso   1.000  C
  C5       1.0000 0.06170  0.14280  0.60190  Biso   1.000  C
  C6       1.0000 0.06170  0.35720  0.10190  Biso   1.000  C
  C7       1.0000 0.93830  0.85720  0.39810  Biso   1.000  C
  C8       1.0000 0.93830  0.64280  0.89810  Biso   1.000  C
  C9       1.0000 0.04080  0.05750  0.59540  Biso   1.000  C
  C10      1.0000 0.04080  0.44250  0.09540  Biso   1.000  C
  C11      1.0000 0.95920  0.94250  0.40460  Biso   1.000  C
  C12      1.0000 0.95920  0.55750  0.90460  Biso   1.000  C
  C13      1.0000 0.88420  0.02330  0.60840  Biso   1.000  C
  C14      1.0000 0.88420  0.47670  0.10840  Biso   1.000  C
  C15      1.0000 0.11580  0.97670  0.39160  Biso   1.000  C
  C16      1.0000 0.11580  0.52330  0.89160  Biso   1.000  C
  C17      1.0000 0.75530  0.07610  0.62470  Biso   1.000  C
  C18      1.0000 0.75530  0.42390  0.12470  Biso   1.000  C
  C19      1.0000 0.24470  0.92390  0.37530  Biso   1.000  C
  C20      1.0000 0.24470  0.57610  0.87530  Biso   1.000  C
  C21      1.0000 0.26100  0.72920  0.72230  Biso   1.000  C
  C22      1.0000 0.26100  0.77080  0.22230  Biso   1.000  C
  C23      1.0000 0.73900  0.27080  0.27770  Biso   1.000  C
  C24      1.0000 0.73900  0.22920  0.77770  Biso   1.000  C
  C25      1.0000 0.20550  0.75940  0.66200  Biso   1.000  C
  C26      1.0000 0.20550  0.74060  0.16200  Biso   1.000  C
  C27      1.0000 0.79450  0.24060  0.33800  Biso   1.000  C
  C28      1.0000 0.79450  0.25940  0.83800  Biso   1.000  C
  C29      1.0000 0.21850  0.84430  0.64950  Biso   1.000  C
  C30      1.0000 0.21850  0.65570  0.14950  Biso   1.000  C
  C31      1.0000 0.78150  0.15570  0.35050  Biso   1.000  C
  C32      1.0000 0.78150  0.34430  0.85050  Biso   1.000  C
  C33      1.0000 0.28310  0.89530  0.69830  Biso   1.000  C
  C34      1.0000 0.28310  0.60470  0.19830  Biso   1.000  C
  C35      1.0000 0.71690  0.10470  0.30170  Biso   1.000  C
  C36      1.0000 0.71690  0.39530  0.80170  Biso   1.000  C
  C37      1.0000 0.33300  0.86040  0.75760  Biso   1.000  C
  C38      1.0000 0.33300  0.63960  0.25760  Biso   1.000  C
  C39      1.0000 0.66700  0.13960  0.24240  Biso   1.000  C
  C40      1.0000 0.66700  0.36040  0.74240  Biso   1.000  C
  C41      1.0000 0.24420  0.11320  0.79510  Biso   1.000  C
  C42      1.0000 0.24420  0.38680  0.29510  Biso   1.000  C
  C43      1.0000 0.75580  0.88680  0.20490  Biso   1.000  C
  C44      1.0000 0.75580  0.61320  0.70490  Biso   1.000  C
  C45      1.0000 0.30660  0.17400  0.74310  Biso   1.000  C
  C46      1.0000 0.30660  0.32600  0.24310  Biso   1.000  C
  C47      1.0000 0.69340  0.82600  0.25690  Biso   1.000  C
  C48      1.0000 0.69340  0.67400  0.75690  Biso   1.000  C
  C49      1.0000 0.23890  0.25430  0.74480  Biso   1.000  C
  C50      1.0000 0.23890  0.24570  0.24480  Biso   1.000  C
  C51      1.0000 0.76110  0.74570  0.25520  Biso   1.000  C
  C52      1.0000 0.76110  0.75430  0.75520  Biso   1.000  C
  C53      1.0000 0.27720  0.31500  0.69930  Biso   1.000  C
  C54      1.0000 0.27720  0.18500  0.19930  Biso   1.000  C
  C55      1.0000 0.72280  0.68500  0.30070  Biso   1.000  C
  C56      1.0000 0.72280  0.81500  0.80070  Biso   1.000  C
  C57      1.0000 0.18700  0.39930  0.70430  Biso   1.000  C
  C58      1.0000 0.18700  0.10070  0.20430  Biso   1.000  C
  C59      1.0000 0.81300  0.60070  0.29570  Biso   1.000  C
  C60      1.0000 0.81300  0.89930  0.79570  Biso   1.000  C
  C61      1.0000 0.37730  0.19350  0.45200  Biso   1.000  C
  C62      1.0000 0.37730  0.30650  0.95200  Biso   1.000  C
  C63      1.0000 0.62270  0.80650  0.54800  Biso   1.000  C
  C64      1.0000 0.62270  0.69350  0.04800  Biso   1.000  C
  C65      1.0000 0.48240  0.23660  0.50580  Biso   1.000  C
  C66      1.0000 0.48240  0.26340  0.00580  Biso   1.000  C
  C67      1.0000 0.51760  0.76340  0.49420  Biso   1.000  C
  C68      1.0000 0.51760  0.73660  0.99420  Biso   1.000  C
  C69      1.0000 0.56310  0.30920  0.48930  Biso   1.000  C
  C70      1.0000 0.56310  0.19080  0.98930  Biso   1.000  C
  C71      1.0000 0.43690  0.69080  0.51070  Biso   1.000  C
  C72      1.0000 0.43690  0.80920  0.01070  Biso   1.000  C
  C73      1.0000 0.66510  0.35550  0.53210  Biso   1.000  C
  C74      1.0000 0.66510  0.14450  0.03210  Biso   1.000  C
  C75      1.0000 0.33490  0.64450  0.46790  Biso   1.000  C
  C76      1.0000 0.33490  0.85550  0.96790  Biso   1.000  C
  C77      1.0000 0.75500  0.43170  0.50450  Biso   1.000  C
  C78      1.0000 0.75500  0.06830  0.00450  Biso   1.000  C
  C79      1.0000 0.24500  0.56830  0.49550  Biso   1.000  C
  C80      1.0000 0.24500  0.93170  0.99550  Biso   1.000  C
  H1       1.0000 0.94060  0.25030  0.62130  Biso   1.000  H
  H2       1.0000 0.94060  0.24970  0.12130  Biso   1.000  H
  H3       1.0000 0.05940  0.74970  0.37870  Biso   1.000  H
  H4       1.0000 0.05940  0.75030  0.87870  Biso   1.000  H
  H5       1.0000 0.17050  0.16730  0.59520  Biso   1.000  H
  H6       1.0000 0.17050  0.33270  0.09520  Biso   1.000  H
  H7       1.0000 0.82950  0.83270  0.40480  Biso   1.000  H
  H8       1.0000 0.82950  0.66730  0.90480  Biso   1.000  H
  H9       1.0000 0.86820  0.96440  0.60690  Biso   1.000  H
  H10      1.0000 0.86820  0.53560  0.10690  Biso   1.000  H
  H11      1.0000 0.13180  0.03560  0.39310  Biso   1.000  H
  H12      1.0000 0.13180  0.46440  0.89310  Biso   1.000  H
  H13      1.0000 0.64620  0.05150  0.63240  Biso   1.000  H
  H14      1.0000 0.64620  0.44850  0.13240  Biso   1.000  H
  H15      1.0000 0.35380  0.94850  0.36760  Biso   1.000  H
  H16      1.0000 0.35380  0.55150  0.86760  Biso   1.000  H
  H17      1.0000 0.25370  0.67060  0.73060  Biso   1.000  H
  H18      1.0000 0.25370  0.82940  0.23060  Biso   1.000  H
  H19      1.0000 0.74630  0.32940  0.26940  Biso   1.000  H
  H20      1.0000 0.74630  0.17060  0.76940  Biso   1.000  H
  H21      1.0000 0.15940  0.72230  0.62900  Biso   1.000  H
  H22      1.0000 0.15940  0.77770  0.12900  Biso   1.000  H
  H23      1.0000 0.84060  0.27770  0.37100  Biso   1.000  H
  H24      1.0000 0.84060  0.22230  0.87100  Biso   1.000  H
  H25      1.0000 0.29350  0.95440  0.69110  Biso   1.000  H
  H26      1.0000 0.29350  0.54560  0.19110  Biso   1.000  H
  H27      1.0000 0.70650  0.04560  0.30890  Biso   1.000  H
  H28      1.0000 0.70650  0.45440  0.80890  Biso   1.000  H
  H29      1.0000 0.37560  0.89660  0.79160  Biso   1.000  H
  H30      1.0000 0.37560  0.60340  0.29160  Biso   1.000  H
  H31      1.0000 0.62440  0.10340  0.20840  Biso   1.000  H
  H32      1.0000 0.62440  0.39660  0.70840  Biso   1.000  H
  H33      1.0000 0.16100  0.26770  0.77900  Biso   1.000  H
  H34      1.0000 0.16100  0.23230  0.27900  Biso   1.000  H
  H35      1.0000 0.83900  0.73230  0.22100  Biso   1.000  H
  H36      1.0000 0.83900  0.76770  0.72100  Biso   1.000  H
  H37      1.0000 0.54610  0.33010  0.44510  Biso   1.000  H
  H38      1.0000 0.54610  0.16990  0.94510  Biso   1.000  H
  H39      1.0000 0.45390  0.66990  0.55490  Biso   1.000  H
  H40      1.0000 0.45390  0.83010  0.05490  Biso   1.000  H
