data_image0
_cell_length_a       7.9239
_cell_length_b       15.798
_cell_length_c       20.1216
_cell_angle_alpha    90
_cell_angle_beta     91.6705
_cell_angle_gamma    90

_symmetry_space_group_name_H-M    "P 1"
_symmetry_int_tables_number       1

loop_
  _symmetry_equiv_pos_as_xyz
  'x, y, z'

loop_
  _atom_site_label
  _atom_site_occupancy
  _atom_site_fract_x
  _atom_site_fract_y
  _atom_site_fract_z
  _atom_site_thermal_displace_type
  _atom_site_B_iso_or_equiv
  _atom_site_type_symbol
  Cu1      1.0000 0.56540  0.75920  0.14220  Biso   1.000  Cu
  Cu2      1.0000 0.43460  0.25920  0.35780  Biso   1.000  Cu
  Cu3      1.0000 0.43460  0.24080  0.85780  Biso   1.000  Cu
  Cu4      1.0000 0.56540  0.74080  0.64220  Biso   1.000  Cu
  S1       1.0000 0.78090  0.49010  0.43290  Biso   1.000  S
  S2       1.0000 0.21910  0.99010  0.06710  Biso   1.000  S
  S3       1.0000 0.21910  0.50990  0.56710  Biso   1.000  S
  S4       1.0000 0.78090  0.00990  0.93290  Biso   1.000  S
  S5       1.0000 0.84460  0.61450  0.43080  Biso   1.000  S
  S6       1.0000 0.15540  0.11450  0.06920  Biso   1.000  S
  S7       1.0000 0.15540  0.38550  0.56920  Biso   1.000  S
  S8       1.0000 0.84460  0.88550  0.93080  Biso   1.000  S
  F1       1.0000 0.27710  0.53080  0.20060  Biso   1.000  F
  F2       1.0000 0.72290  0.03080  0.29940  Biso   1.000  F
  F3       1.0000 0.72290  0.46920  0.79940  Biso   1.000  F
  F4       1.0000 0.27710  0.96920  0.70060  Biso   1.000  F
  F5       1.0000 0.08450  0.58660  0.25620  Biso   1.000  F
  F6       1.0000 0.91550  0.08660  0.24380  Biso   1.000  F
  F7       1.0000 0.91550  0.41340  0.74380  Biso   1.000  F
  F8       1.0000 0.08450  0.91340  0.75620  Biso   1.000  F
  F9       1.0000 0.06790  0.58530  0.14960  Biso   1.000  F
  F10      1.0000 0.93210  0.08530  0.35040  Biso   1.000  F
  F11      1.0000 0.93210  0.41470  0.85040  Biso   1.000  F
  F12      1.0000 0.06790  0.91470  0.64960  Biso   1.000  F
  F13      1.0000 0.27300  0.54800  0.24200  Biso   1.000  F
  F14      1.0000 0.72700  0.04800  0.25800  Biso   1.000  F
  F15      1.0000 0.72700  0.45200  0.75800  Biso   1.000  F
  F16      1.0000 0.27300  0.95200  0.74200  Biso   1.000  F
  F17      1.0000 0.02900  0.60540  0.21940  Biso   1.000  F
  F18      1.0000 0.97100  0.10540  0.28060  Biso   1.000  F
  F19      1.0000 0.97100  0.39460  0.78060  Biso   1.000  F
  F20      1.0000 0.02900  0.89460  0.71940  Biso   1.000  F
  F21      1.0000 0.14700  0.55780  0.15360  Biso   1.000  F
  F22      1.0000 0.85300  0.05780  0.34640  Biso   1.000  F
  F23      1.0000 0.85300  0.44220  0.84640  Biso   1.000  F
  F24      1.0000 0.14700  0.94220  0.65360  Biso   1.000  F
  F25      1.0000 0.16260  0.84910  0.34660  Biso   1.000  F
  F26      1.0000 0.83740  0.34910  0.15340  Biso   1.000  F
  F27      1.0000 0.83740  0.15090  0.65340  Biso   1.000  F
  F28      1.0000 0.16260  0.65090  0.84660  Biso   1.000  F
  F29      1.0000 0.12360  0.93760  0.26800  Biso   1.000  F
  F30      1.0000 0.87640  0.43760  0.23200  Biso   1.000  F
  F31      1.0000 0.87640  0.06240  0.73200  Biso   1.000  F
  F32      1.0000 0.12360  0.56240  0.76800  Biso   1.000  F
  F33      1.0000 0.35800  0.93270  0.31910  Biso   1.000  F
  F34      1.0000 0.64200  0.43270  0.18090  Biso   1.000  F
  F35      1.0000 0.64200  0.06730  0.68090  Biso   1.000  F
  F36      1.0000 0.35800  0.56730  0.81910  Biso   1.000  F
  F37      1.0000 0.63090  0.51620  0.95420  Biso   1.000  F
  F38      1.0000 0.36910  0.01620  0.54580  Biso   1.000  F
  F39      1.0000 0.36910  0.48380  0.04580  Biso   1.000  F
  F40      1.0000 0.63090  0.98380  0.45420  Biso   1.000  F
  F41      1.0000 0.79400  0.50710  0.04130  Biso   1.000  F
  F42      1.0000 0.20600  0.00710  0.45870  Biso   1.000  F
  F43      1.0000 0.20600  0.49290  0.95870  Biso   1.000  F
  F44      1.0000 0.79400  0.99290  0.54130  Biso   1.000  F
  F45      1.0000 0.86400  0.58180  0.96060  Biso   1.000  F
  F46      1.0000 0.13600  0.08180  0.53940  Biso   1.000  F
  F47      1.0000 0.13600  0.41820  0.03940  Biso   1.000  F
  F48      1.0000 0.86400  0.91820  0.46060  Biso   1.000  F
  F49      1.0000 0.69700  0.54500  0.94160  Biso   1.000  F
  F50      1.0000 0.30300  0.04500  0.55840  Biso   1.000  F
  F51      1.0000 0.30300  0.45500  0.05840  Biso   1.000  F
  F52      1.0000 0.69700  0.95500  0.44160  Biso   1.000  F
  F53      1.0000 0.75400  0.50010  0.03550  Biso   1.000  F
  F54      1.0000 0.24600  0.00010  0.46450  Biso   1.000  F
  F55      1.0000 0.24600  0.49990  0.96450  Biso   1.000  F
  F56      1.0000 0.75400  0.99990  0.53550  Biso   1.000  F
  F57      1.0000 0.91200  0.59550  0.99200  Biso   1.000  F
  F58      1.0000 0.08800  0.09550  0.50800  Biso   1.000  F
  F59      1.0000 0.08800  0.40450  0.00800  Biso   1.000  F
  F60      1.0000 0.91200  0.90450  0.49200  Biso   1.000  F
  F61      1.0000 0.21420  0.80550  0.95500  Biso   1.000  F
  F62      1.0000 0.78580  0.30550  0.54500  Biso   1.000  F
  F63      1.0000 0.78580  0.19450  0.04500  Biso   1.000  F
  F64      1.0000 0.21420  0.69450  0.45500  Biso   1.000  F
  F65      1.0000 0.41800  0.89330  0.94660  Biso   1.000  F
  F66      1.0000 0.58200  0.39330  0.55340  Biso   1.000  F
  F67      1.0000 0.58200  0.10670  0.05340  Biso   1.000  F
  F68      1.0000 0.41800  0.60670  0.44660  Biso   1.000  F
  F69      1.0000 0.40760  0.78290  0.88520  Biso   1.000  F
  F70      1.0000 0.59240  0.28290  0.61480  Biso   1.000  F
  F71      1.0000 0.59240  0.21710  0.11480  Biso   1.000  F
  F72      1.0000 0.40760  0.71710  0.38520  Biso   1.000  F
  O1       1.0000 0.36660  0.68340  0.15020  Biso   1.000  O
  O2       1.0000 0.63340  0.18340  0.34980  Biso   1.000  O
  O3       1.0000 0.63340  0.31660  0.84980  Biso   1.000  O
  O4       1.0000 0.36660  0.81660  0.65020  Biso   1.000  O
  O5       1.0000 0.40140  0.85310  0.20390  Biso   1.000  O
  O6       1.0000 0.59860  0.35310  0.29610  Biso   1.000  O
  O7       1.0000 0.59860  0.14690  0.79610  Biso   1.000  O
  O8       1.0000 0.40140  0.64690  0.70390  Biso   1.000  O
  O9       1.0000 0.68180  0.64950  0.08750  Biso   1.000  O
  O10      1.0000 0.31820  0.14950  0.41250  Biso   1.000  O
  O11      1.0000 0.31820  0.35050  0.91250  Biso   1.000  O
  O12      1.0000 0.68180  0.85050  0.58750  Biso   1.000  O
  O13      1.0000 0.46810  0.79920  0.05660  Biso   1.000  O
  O14      1.0000 0.53190  0.29920  0.44340  Biso   1.000  O
  O15      1.0000 0.53190  0.20080  0.94340  Biso   1.000  O
  O16      1.0000 0.46810  0.70080  0.55660  Biso   1.000  O
  N1       1.0000 0.66370  0.71540  0.22940  Biso   1.000  N
  N2       1.0000 0.33630  0.21540  0.27060  Biso   1.000  N
  N3       1.0000 0.33630  0.28460  0.77060  Biso   1.000  N
  N4       1.0000 0.66370  0.78460  0.72940  Biso   1.000  N
  N5       1.0000 0.23420  0.33510  0.37190  Biso   1.000  N
  N6       1.0000 0.76580  0.83510  0.12810  Biso   1.000  N
  N7       1.0000 0.76580  0.66490  0.62810  Biso   1.000  N
  N8       1.0000 0.23420  0.16490  0.87190  Biso   1.000  N
  C1       1.0000 0.26580  0.67990  0.19780  Biso   1.000  C
  C2       1.0000 0.73420  0.17990  0.30220  Biso   1.000  C
  C3       1.0000 0.73420  0.32010  0.80220  Biso   1.000  C
  C4       1.0000 0.26580  0.82010  0.69780  Biso   1.000  C
  C5       1.0000 0.22890  0.74130  0.24360  Biso   1.000  C
  C6       1.0000 0.77110  0.24130  0.25640  Biso   1.000  C
  C7       1.0000 0.77110  0.25870  0.75640  Biso   1.000  C
  C8       1.0000 0.22890  0.75870  0.74360  Biso   1.000  C
  C9       1.0000 0.29890  0.82270  0.24320  Biso   1.000  C
  C10      1.0000 0.70110  0.32270  0.25680  Biso   1.000  C
  C11      1.0000 0.70110  0.17730  0.75680  Biso   1.000  C
  C12      1.0000 0.29890  0.67730  0.74320  Biso   1.000  C
  C13      1.0000 0.17340  0.59540  0.20150  Biso   1.000  C
  C14      1.0000 0.82660  0.09540  0.29850  Biso   1.000  C
  C15      1.0000 0.82660  0.40460  0.79850  Biso   1.000  C
  C16      1.0000 0.17340  0.90460  0.70150  Biso   1.000  C
  C17      1.0000 0.23570  0.88480  0.29540  Biso   1.000  C
  C18      1.0000 0.76430  0.38480  0.20460  Biso   1.000  C
  C19      1.0000 0.76430  0.11520  0.70460  Biso   1.000  C
  C20      1.0000 0.23570  0.61520  0.79540  Biso   1.000  C
  C21      1.0000 0.65360  0.63830  0.02780  Biso   1.000  C
  C22      1.0000 0.34640  0.13830  0.47220  Biso   1.000  C
  C23      1.0000 0.34640  0.36170  0.97220  Biso   1.000  C
  C24      1.0000 0.65360  0.86170  0.52780  Biso   1.000  C
  C25      1.0000 0.55700  0.68940  0.98370  Biso   1.000  C
  C26      1.0000 0.44300  0.18940  0.51630  Biso   1.000  C
  C27      1.0000 0.44300  0.31060  0.01630  Biso   1.000  C
  C28      1.0000 0.55700  0.81060  0.48370  Biso   1.000  C
  C29      1.0000 0.47750  0.76270  0.00090  Biso   1.000  C
  C30      1.0000 0.52250  0.26270  0.49910  Biso   1.000  C
  C31      1.0000 0.52250  0.23730  0.99910  Biso   1.000  C
  C32      1.0000 0.47750  0.73730  0.50090  Biso   1.000  C
  C33      1.0000 0.74090  0.56160  0.99720  Biso   1.000  C
  C34      1.0000 0.25910  0.06160  0.50280  Biso   1.000  C
  C35      1.0000 0.25910  0.43840  0.00280  Biso   1.000  C
  C36      1.0000 0.74090  0.93840  0.49720  Biso   1.000  C
  C37      1.0000 0.38020  0.81120  0.94670  Biso   1.000  C
  C38      1.0000 0.61980  0.31120  0.55330  Biso   1.000  C
  C39      1.0000 0.61980  0.18880  0.05330  Biso   1.000  C
  C40      1.0000 0.38020  0.68880  0.44670  Biso   1.000  C
  C41      1.0000 0.65430  0.63260  0.24220  Biso   1.000  C
  C42      1.0000 0.34570  0.13260  0.25780  Biso   1.000  C
  C43      1.0000 0.34570  0.36740  0.75780  Biso   1.000  C
  C44      1.0000 0.65430  0.86740  0.74220  Biso   1.000  C
  C45      1.0000 0.70590  0.59730  0.30220  Biso   1.000  C
  C46      1.0000 0.29410  0.09730  0.19780  Biso   1.000  C
  C47      1.0000 0.29410  0.40270  0.69780  Biso   1.000  C
  C48      1.0000 0.70590  0.90270  0.80220  Biso   1.000  C
  C49      1.0000 0.77520  0.64940  0.35050  Biso   1.000  C
  C50      1.0000 0.22480  0.14940  0.14950  Biso   1.000  C
  C51      1.0000 0.22480  0.35060  0.64950  Biso   1.000  C
  C52      1.0000 0.77520  0.85060  0.85050  Biso   1.000  C
  C53      1.0000 0.79090  0.73530  0.33720  Biso   1.000  C
  C54      1.0000 0.20910  0.23530  0.16280  Biso   1.000  C
  C55      1.0000 0.20910  0.26470  0.66280  Biso   1.000  C
  C56      1.0000 0.79090  0.76470  0.83720  Biso   1.000  C
  C57      1.0000 0.73310  0.76540  0.27680  Biso   1.000  C
  C58      1.0000 0.26690  0.26540  0.22320  Biso   1.000  C
  C59      1.0000 0.26690  0.23460  0.72320  Biso   1.000  C
  C60      1.0000 0.73310  0.73460  0.77680  Biso   1.000  C
  C61      1.0000 0.96160  0.43530  0.40560  Biso   1.000  C
  C62      1.0000 0.03840  0.93530  0.09440  Biso   1.000  C
  C63      1.0000 0.03840  0.56470  0.59440  Biso   1.000  C
  C64      1.0000 0.96160  0.06470  0.90560  Biso   1.000  C
  C65      1.0000 0.11550  0.47140  0.39220  Biso   1.000  C
  C66      1.0000 0.88450  0.97140  0.10780  Biso   1.000  C
  C67      1.0000 0.88450  0.52860  0.60780  Biso   1.000  C
  C68      1.0000 0.11550  0.02860  0.89220  Biso   1.000  C
  C69      1.0000 0.24850  0.41970  0.37590  Biso   1.000  C
  C70      1.0000 0.75150  0.91970  0.12410  Biso   1.000  C
  C71      1.0000 0.75150  0.58030  0.62410  Biso   1.000  C
  C72      1.0000 0.24850  0.08030  0.87590  Biso   1.000  C
  C73      1.0000 0.08250  0.30060  0.38320  Biso   1.000  C
  C74      1.0000 0.91750  0.80060  0.11680  Biso   1.000  C
  C75      1.0000 0.91750  0.69940  0.61680  Biso   1.000  C
  C76      1.0000 0.08250  0.19940  0.88320  Biso   1.000  C
  C77      1.0000 0.94470  0.34770  0.40040  Biso   1.000  C
  C78      1.0000 0.05530  0.84770  0.09960  Biso   1.000  C
  C79      1.0000 0.05530  0.65230  0.59960  Biso   1.000  C
  C80      1.0000 0.94470  0.15230  0.90040  Biso   1.000  C
  H1       1.0000 0.15200  0.72770  0.27730  Biso   1.000  H
  H2       1.0000 0.84800  0.22770  0.22270  Biso   1.000  H
  H3       1.0000 0.84800  0.27230  0.72270  Biso   1.000  H
  H4       1.0000 0.15200  0.77230  0.77730  Biso   1.000  H
  H5       1.0000 0.54620  0.67160  0.93870  Biso   1.000  H
  H6       1.0000 0.45380  0.17160  0.56130  Biso   1.000  H
  H7       1.0000 0.45380  0.32840  0.06130  Biso   1.000  H
  H8       1.0000 0.54620  0.82840  0.43870  Biso   1.000  H
  H9       1.0000 0.61000  0.59620  0.20840  Biso   1.000  H
  H10      1.0000 0.39000  0.09620  0.29160  Biso   1.000  H
  H11      1.0000 0.39000  0.40380  0.79160  Biso   1.000  H
  H12      1.0000 0.61000  0.90380  0.70840  Biso   1.000  H
  H13      1.0000 0.69390  0.53830  0.31000  Biso   1.000  H
  H14      1.0000 0.30610  0.03830  0.19000  Biso   1.000  H
  H15      1.0000 0.30610  0.46170  0.69000  Biso   1.000  H
  H16      1.0000 0.69390  0.96170  0.81000  Biso   1.000  H
  H17      1.0000 0.84070  0.77250  0.36930  Biso   1.000  H
  H18      1.0000 0.15930  0.27250  0.13070  Biso   1.000  H
  H19      1.0000 0.15930  0.22750  0.63070  Biso   1.000  H
  H20      1.0000 0.84070  0.72750  0.86930  Biso   1.000  H
  H21      1.0000 0.74250  0.82420  0.26810  Biso   1.000  H
  H22      1.0000 0.25750  0.32420  0.23190  Biso   1.000  H
  H23      1.0000 0.25750  0.17580  0.73190  Biso   1.000  H
  H24      1.0000 0.74250  0.67580  0.76810  Biso   1.000  H
  H25      1.0000 0.12970  0.53110  0.39410  Biso   1.000  H
  H26      1.0000 0.87030  0.03110  0.10590  Biso   1.000  H
  H27      1.0000 0.87030  0.46890  0.60590  Biso   1.000  H
  H28      1.0000 0.12970  0.96890  0.89410  Biso   1.000  H
  H29      1.0000 0.35440  0.44490  0.36710  Biso   1.000  H
  H30      1.0000 0.64560  0.94490  0.13290  Biso   1.000  H
  H31      1.0000 0.64560  0.55510  0.63290  Biso   1.000  H
  H32      1.0000 0.35440  0.05510  0.86710  Biso   1.000  H
  H33      1.0000 0.07010  0.24100  0.37910  Biso   1.000  H
  H34      1.0000 0.92990  0.74100  0.12090  Biso   1.000  H
  H35      1.0000 0.92990  0.75900  0.62090  Biso   1.000  H
  H36      1.0000 0.07010  0.25900  0.87910  Biso   1.000  H
  H37      1.0000 0.83980  0.32110  0.40850  Biso   1.000  H
  H38      1.0000 0.16020  0.82110  0.09150  Biso   1.000  H
  H39      1.0000 0.16020  0.67890  0.59150  Biso   1.000  H
  H40      1.0000 0.83980  0.17890  0.90850  Biso   1.000  H
