data_image0
_cell_length_a       8.6551
_cell_length_b       9.0505
_cell_length_c       9.9267
_cell_angle_alpha    100.643
_cell_angle_beta     95.348
_cell_angle_gamma    94.581

_symmetry_space_group_name_H-M    "P 1"
_symmetry_int_tables_number       1

loop_
  _symmetry_equiv_pos_as_xyz
  'x, y, z'

loop_
  _atom_site_label
  _atom_site_occupancy
  _atom_site_fract_x
  _atom_site_fract_y
  _atom_site_fract_z
  _atom_site_thermal_displace_type
  _atom_site_B_iso_or_equiv
  _atom_site_type_symbol
  Cu1      1.0000 0.78152  0.14996  0.13659  Biso   1.000  Cu
  Cu2      1.0000 0.21848  0.85004  0.86341  Biso   1.000  Cu
  O1       1.0000 0.66160  0.09630  0.94960  Biso   1.000  O
  O2       1.0000 0.33840  0.90370  0.05040  Biso   1.000  O
  O3       1.0000 0.45730  0.96050  0.82080  Biso   1.000  O
  O4       1.0000 0.54270  0.03950  0.17920  Biso   1.000  O
  O5       1.0000 0.99740  0.19670  0.03230  Biso   1.000  O
  O6       1.0000 0.00260  0.80330  0.96770  Biso   1.000  O
  O7       1.0000 0.14140  0.05300  0.89690  Biso   1.000  O
  O8       1.0000 0.85860  0.94700  0.10310  Biso   1.000  O
  O9       1.0000 0.63200  0.05400  0.62390  Biso   1.000  O
  O10      1.0000 0.36800  0.94600  0.37610  Biso   1.000  O
  H1       1.0000 0.58580  0.02250  0.68530  Biso   1.000  H
  H2       1.0000 0.41420  0.97750  0.31470  Biso   1.000  H
  O11      1.0000 0.49530  0.69930  0.46380  Biso   1.000  O
  O12      1.0000 0.50470  0.30070  0.53620  Biso   1.000  O
  H3       1.0000 0.47160  0.78400  0.45030  Biso   1.000  H
  H4       1.0000 0.52840  0.21600  0.54970  Biso   1.000  H
  N1       1.0000 0.88100  0.19170  0.33320  Biso   1.000  N
  N2       1.0000 0.11900  0.80830  0.66680  Biso   1.000  N
  N3       1.0000 0.70940  0.35720  0.15490  Biso   1.000  N
  N4       1.0000 0.29060  0.64280  0.84510  Biso   1.000  N
  C1       1.0000 0.53410  0.01540  0.93320  Biso   1.000  C
  C2       1.0000 0.46590  0.98460  0.06680  Biso   1.000  C
  C3       1.0000 0.03900  0.07220  0.98010  Biso   1.000  C
  C4       1.0000 0.96100  0.92780  0.01990  Biso   1.000  C
  C5       1.0000 0.81290  0.12870  0.42790  Biso   1.000  C
  C6       1.0000 0.18710  0.87130  0.57210  Biso   1.000  C
  H5       1.0000 0.71710  0.06700  0.40000  Biso   1.000  H
  H6       1.0000 0.28290  0.93300  0.60000  Biso   1.000  H
  C7       1.0000 0.87580  0.14940  0.56390  Biso   1.000  C
  C8       1.0000 0.12420  0.85060  0.43610  Biso   1.000  C
  C9       1.0000 0.01660  0.23630  0.60270  Biso   1.000  C
  C10      1.0000 0.98340  0.76370  0.39730  Biso   1.000  C
  H7       1.0000 0.06390  0.25270  0.69520  Biso   1.000  H
  H8       1.0000 0.93610  0.74730  0.30480  Biso   1.000  H
  C11      1.0000 0.08760  0.29890  0.50490  Biso   1.000  C
  C12      1.0000 0.91240  0.70110  0.49510  Biso   1.000  C
  H9       1.0000 0.18620  0.35640  0.52890  Biso   1.000  H
  H10      1.0000 0.81380  0.64360  0.47110  Biso   1.000  H
  C13      1.0000 0.01540  0.27780  0.37300  Biso   1.000  C
  C14      1.0000 0.98460  0.72220  0.62700  Biso   1.000  C
  H11      1.0000 0.06280  0.32610  0.30780  Biso   1.000  H
  H12      1.0000 0.93720  0.67390  0.69220  Biso   1.000  H
  C15      1.0000 0.79430  0.08030  0.66700  Biso   1.000  C
  C16      1.0000 0.20570  0.91970  0.33300  Biso   1.000  C
  H13      1.0000 0.83640  0.98360  0.67620  Biso   1.000  H
  H14      1.0000 0.16360  0.01640  0.32380  Biso   1.000  H
  H15      1.0000 0.81270  0.14890  0.75820  Biso   1.000  H
  H16      1.0000 0.18730  0.85110  0.24180  Biso   1.000  H
  C17      1.0000 0.60320  0.40210  0.24040  Biso   1.000  C
  C18      1.0000 0.39680  0.59790  0.75960  Biso   1.000  C
  H17      1.0000 0.56660  0.33520  0.29640  Biso   1.000  H
  H18      1.0000 0.43340  0.66480  0.70360  Biso   1.000  H
  C19      1.0000 0.54470  0.54120  0.25090  Biso   1.000  C
  C20      1.0000 0.45530  0.45880  0.74910  Biso   1.000  C
  C21      1.0000 0.60300  0.63830  0.16890  Biso   1.000  C
  C22      1.0000 0.39700  0.36170  0.83110  Biso   1.000  C
  H19      1.0000 0.56750  0.73560  0.17390  Biso   1.000  H
  H20      1.0000 0.43250  0.26440  0.82610  Biso   1.000  H
  C23      1.0000 0.71060  0.59360  0.08170  Biso   1.000  C
  C24      1.0000 0.28940  0.40640  0.91830  Biso   1.000  C
  H21      1.0000 0.74980  0.65910  0.02560  Biso   1.000  H
  H22      1.0000 0.25020  0.34090  0.97440  Biso   1.000  H
  C25      1.0000 0.76230  0.45180  0.07590  Biso   1.000  C
  C26      1.0000 0.23770  0.54820  0.92410  Biso   1.000  C
  H23      1.0000 0.83680  0.42060  0.01470  Biso   1.000  H
  H24      1.0000 0.16320  0.57940  0.98530  Biso   1.000  H
  C27      1.0000 0.42910  0.58530  0.35030  Biso   1.000  C
  C28      1.0000 0.57090  0.41470  0.64970  Biso   1.000  C
  H25      1.0000 0.33940  0.62250  0.30180  Biso   1.000  H
  H26      1.0000 0.66060  0.37750  0.69820  Biso   1.000  H
  H27      1.0000 0.38960  0.49520  0.38490  Biso   1.000  H
  H28      1.0000 0.61040  0.50480  0.61510  Biso   1.000  H
