data_image0
_cell_length_a       8.0721
_cell_length_b       9.764
_cell_length_c       11.607
_cell_angle_alpha    85.58
_cell_angle_beta     72.79
_cell_angle_gamma    72.28

_symmetry_space_group_name_H-M    "P 1"
_symmetry_int_tables_number       1

loop_
  _symmetry_equiv_pos_as_xyz
  'x, y, z'

loop_
  _atom_site_label
  _atom_site_occupancy
  _atom_site_fract_x
  _atom_site_fract_y
  _atom_site_fract_z
  _atom_site_thermal_displace_type
  _atom_site_B_iso_or_equiv
  _atom_site_type_symbol
  C1       1.0000 0.23950  0.54370  0.93020  Biso   1.000  C
  C2       1.0000 0.76050  0.45630  0.06980  Biso   1.000  C
  C3       1.0000 0.28050  0.43230  0.00730  Biso   1.000  C
  C4       1.0000 0.71950  0.56770  0.99270  Biso   1.000  C
  C5       1.0000 0.44320  0.32600  0.97100  Biso   1.000  C
  C6       1.0000 0.55680  0.67400  0.02900  Biso   1.000  C
  C7       1.0000 0.56120  0.33350  0.85790  Biso   1.000  C
  C8       1.0000 0.43880  0.66650  0.14210  Biso   1.000  C
  C9       1.0000 0.51090  0.44690  0.78460  Biso   1.000  C
  C10      1.0000 0.48910  0.55310  0.21540  Biso   1.000  C
  C11      1.0000 0.62350  0.46440  0.66160  Biso   1.000  C
  C12      1.0000 0.37650  0.53560  0.33840  Biso   1.000  C
  C13      1.0000 0.78270  0.36340  0.60240  Biso   1.000  C
  C14      1.0000 0.21730  0.63660  0.39760  Biso   1.000  C
  C15      1.0000 0.87280  0.38940  0.48580  Biso   1.000  C
  C16      1.0000 0.12720  0.61060  0.51420  Biso   1.000  C
  C17      1.0000 0.80500  0.51520  0.43140  Biso   1.000  C
  C18      1.0000 0.19500  0.48480  0.56860  Biso   1.000  C
  C19      1.0000 0.64600  0.61440  0.49550  Biso   1.000  C
  C20      1.0000 0.35400  0.38560  0.50450  Biso   1.000  C
  Cu1      1.0000 0.31722  0.71169  0.70685  Biso   1.000  Cu
  Cu2      1.0000 0.68278  0.28831  0.29315  Biso   1.000  Cu
  H1       1.0000 0.12800  0.61700  0.95200  Biso   1.000  H
  H2       1.0000 0.87200  0.38300  0.04800  Biso   1.000  H
  H3       1.0000 0.20000  0.43000  0.08100  Biso   1.000  H
  H4       1.0000 0.80000  0.57000  0.91900  Biso   1.000  H
  H5       1.0000 0.47200  0.25400  0.02100  Biso   1.000  H
  H6       1.0000 0.52800  0.74600  0.97900  Biso   1.000  H
  H7       1.0000 0.66800  0.26700  0.83200  Biso   1.000  H
  H8       1.0000 0.33200  0.73300  0.16800  Biso   1.000  H
  H9       1.0000 0.82300  0.28400  0.64400  Biso   1.000  H
  H10      1.0000 0.17700  0.71600  0.35600  Biso   1.000  H
  H11      1.0000 0.98700  0.31500  0.44500  Biso   1.000  H
  H12      1.0000 0.01300  0.68500  0.55500  Biso   1.000  H
  H13      1.0000 0.86500  0.53200  0.35600  Biso   1.000  H
  H14      1.0000 0.13500  0.46800  0.64400  Biso   1.000  H
  H15      1.0000 0.59100  0.70300  0.46100  Biso   1.000  H
  H16      1.0000 0.40900  0.29700  0.53900  Biso   1.000  H
  N1       1.0000 0.35210  0.55160  0.82130  Biso   1.000  N
  N2       1.0000 0.64790  0.44840  0.17870  Biso   1.000  N
  N3       1.0000 0.55570  0.58870  0.60790  Biso   1.000  N
  N4       1.0000 0.44430  0.41130  0.39210  Biso   1.000  N
  O1       1.0000 0.42580  0.85370  0.79009  Biso   1.000  O
  O2       1.0000 0.57420  0.14630  0.20991  Biso   1.000  O
  O3       1.0000 0.66660  0.92790  0.58719  Biso   1.000  O
  O4       1.0000 0.33340  0.07210  0.41281  Biso   1.000  O
  O5       1.0000 0.30060  0.84390  0.57234  Biso   1.000  O
  O6       1.0000 0.69940  0.15610  0.42766  Biso   1.000  O
  O7       1.0000 0.06480  0.80000  0.79171  Biso   1.000  O
  O8       1.0000 0.93520  0.20000  0.20829  Biso   1.000  O
  O9       1.0000 0.00000  0.00000  0.50000  Biso   1.000  O
  O10      1.0000 0.03610  0.33830  0.81792  Biso   1.000  O
  O11      1.0000 0.96390  0.66170  0.18208  Biso   1.000  O
  O12      1.0000 0.69240  0.95440  0.82587  Biso   1.000  O
  O13      1.0000 0.30760  0.04560  0.17413  Biso   1.000  O
  O14      1.0000 0.39100  0.13320  0.75539  Biso   1.000  O
  O15      1.0000 0.60900  0.86680  0.24461  Biso   1.000  O
  O16      1.0000 0.13790  0.11760  0.65337  Biso   1.000  O
  O17      1.0000 0.86210  0.88240  0.34663  Biso   1.000  O
  O18      1.0000 0.93670  0.07920  0.87494  Biso   1.000  O
  O19      1.0000 0.06330  0.92080  0.12506  Biso   1.000  O
  O20      1.0000 0.83920  0.86300  0.02173  Biso   1.000  O
  O21      1.0000 0.16080  0.13700  0.97827  Biso   1.000  O
  V1       1.0000 0.54061  0.96749  0.74290  Biso   1.000  V
  V2       1.0000 0.45939  0.03251  0.25710  Biso   1.000  V
  V3       1.0000 0.12848  0.16967  0.81859  Biso   1.000  V
  V4       1.0000 0.87152  0.83033  0.18141  Biso   1.000  V
  V5       1.0000 0.88903  0.92167  0.87896  Biso   1.000  V
  V6       1.0000 0.11097  0.07833  0.12104  Biso   1.000  V
  V7       1.0000 0.19437  0.00633  0.53774  Biso   1.000  V
  V8       1.0000 0.80563  0.99367  0.46226  Biso   1.000  V
