data_image0
_cell_length_a       16.2789
_cell_length_b       10.5658
_cell_length_c       18.8712
_cell_angle_alpha    90
_cell_angle_beta     90
_cell_angle_gamma    90

_symmetry_space_group_name_H-M    "P 1"
_symmetry_int_tables_number       1

loop_
  _symmetry_equiv_pos_as_xyz
  'x, y, z'

loop_
  _atom_site_label
  _atom_site_occupancy
  _atom_site_fract_x
  _atom_site_fract_y
  _atom_site_fract_z
  _atom_site_thermal_displace_type
  _atom_site_B_iso_or_equiv
  _atom_site_type_symbol
  Cu1      1.0000 0.06021  0.11994  0.02405  Biso   1.000  Cu
  Cu2      1.0000 0.43979  0.88006  0.52405  Biso   1.000  Cu
  Cu3      1.0000 0.93979  0.61994  0.47595  Biso   1.000  Cu
  Cu4      1.0000 0.56021  0.38006  0.97595  Biso   1.000  Cu
  Cu5      1.0000 0.93979  0.88006  0.97595  Biso   1.000  Cu
  Cu6      1.0000 0.56021  0.11994  0.47595  Biso   1.000  Cu
  Cu7      1.0000 0.06021  0.38006  0.52405  Biso   1.000  Cu
  Cu8      1.0000 0.43979  0.61994  0.02405  Biso   1.000  Cu
  V1       1.0000 0.21126  0.25465  0.91695  Biso   1.000  V
  V2       1.0000 0.28874  0.74535  0.41695  Biso   1.000  V
  V3       1.0000 0.78874  0.75465  0.58305  Biso   1.000  V
  V4       1.0000 0.71126  0.24535  0.08305  Biso   1.000  V
  V5       1.0000 0.78874  0.74535  0.08305  Biso   1.000  V
  V6       1.0000 0.71126  0.25465  0.58305  Biso   1.000  V
  V7       1.0000 0.21126  0.24535  0.41695  Biso   1.000  V
  V8       1.0000 0.28874  0.75465  0.91695  Biso   1.000  V
  V9       1.0000 0.14184  0.97182  0.88362  Biso   1.000  V
  V10      1.0000 0.35816  0.02818  0.38362  Biso   1.000  V
  V11      1.0000 0.85816  0.47182  0.61638  Biso   1.000  V
  V12      1.0000 0.64184  0.52818  0.11638  Biso   1.000  V
  V13      1.0000 0.85816  0.02818  0.11638  Biso   1.000  V
  V14      1.0000 0.64184  0.97182  0.61638  Biso   1.000  V
  V15      1.0000 0.14184  0.52818  0.38362  Biso   1.000  V
  V16      1.0000 0.35816  0.47182  0.88362  Biso   1.000  V
  O1       1.0000 0.14543  0.34160  0.87308  Biso   1.000  O
  O2       1.0000 0.35457  0.65840  0.37308  Biso   1.000  O
  O3       1.0000 0.85457  0.84160  0.62692  Biso   1.000  O
  O4       1.0000 0.64543  0.15840  0.12692  Biso   1.000  O
  O5       1.0000 0.85457  0.65840  0.12692  Biso   1.000  O
  O6       1.0000 0.64543  0.34160  0.62692  Biso   1.000  O
  O7       1.0000 0.14543  0.15840  0.37308  Biso   1.000  O
  O8       1.0000 0.35457  0.84160  0.87308  Biso   1.000  O
  O9       1.0000 0.21419  0.09720  0.87647  Biso   1.000  O
  O10      1.0000 0.28581  0.90280  0.37647  Biso   1.000  O
  O11      1.0000 0.78581  0.59720  0.62353  Biso   1.000  O
  O12      1.0000 0.71419  0.40280  0.12353  Biso   1.000  O
  O13      1.0000 0.78581  0.90280  0.12353  Biso   1.000  O
  O14      1.0000 0.71419  0.09720  0.62353  Biso   1.000  O
  O15      1.0000 0.21419  0.40280  0.37647  Biso   1.000  O
  O16      1.0000 0.28581  0.59720  0.87647  Biso   1.000  O
  O17      1.0000 0.31032  0.33010  0.91543  Biso   1.000  O
  O18      1.0000 0.18968  0.66990  0.41543  Biso   1.000  O
  O19      1.0000 0.68968  0.83010  0.58457  Biso   1.000  O
  O20      1.0000 0.81032  0.16990  0.08457  Biso   1.000  O
  O21      1.0000 0.68968  0.66990  0.08457  Biso   1.000  O
  O22      1.0000 0.81032  0.33010  0.58457  Biso   1.000  O
  O23      1.0000 0.31032  0.16990  0.41543  Biso   1.000  O
  O24      1.0000 0.18968  0.83010  0.91543  Biso   1.000  O
  O25      1.0000 0.10156  0.94450  0.80705  Biso   1.000  O
  O26      1.0000 0.39844  0.05550  0.30705  Biso   1.000  O
  O27      1.0000 0.89844  0.44450  0.69295  Biso   1.000  O
  O28      1.0000 0.60156  0.55550  0.19295  Biso   1.000  O
  O29      1.0000 0.89844  0.05550  0.19295  Biso   1.000  O
  O30      1.0000 0.60156  0.94450  0.69295  Biso   1.000  O
  O31      1.0000 0.10156  0.55550  0.30705  Biso   1.000  O
  O32      1.0000 0.39844  0.44450  0.80705  Biso   1.000  O
  O33      1.0000 0.06587  0.01330  0.94193  Biso   1.000  O
  O34      1.0000 0.43413  0.98670  0.44193  Biso   1.000  O
  O35      1.0000 0.93413  0.51330  0.55807  Biso   1.000  O
  O36      1.0000 0.56587  0.48670  0.05807  Biso   1.000  O
  O37      1.0000 0.93413  0.98670  0.05807  Biso   1.000  O
  O38      1.0000 0.56587  0.01330  0.55807  Biso   1.000  O
  O39      1.0000 0.06587  0.48670  0.44193  Biso   1.000  O
  O40      1.0000 0.43413  0.51330  0.94193  Biso   1.000  O
  O41      1.0000 0.17902  0.24160  0.99940  Biso   1.000  O
  O42      1.0000 0.32098  0.75840  0.49940  Biso   1.000  O
  O43      1.0000 0.82098  0.74160  0.50060  Biso   1.000  O
  O44      1.0000 0.67902  0.25840  0.00060  Biso   1.000  O
  O45      1.0000 0.82098  0.75840  0.00060  Biso   1.000  O
  O46      1.0000 0.67902  0.24160  0.50060  Biso   1.000  O
  O47      1.0000 0.17902  0.25840  0.49940  Biso   1.000  O
  O48      1.0000 0.32098  0.74160  0.99940  Biso   1.000  O
  N1       1.0000 0.98549  0.25330  0.98100  Biso   1.000  N
  N2       1.0000 0.51451  0.74670  0.48100  Biso   1.000  N
  N3       1.0000 0.01451  0.75330  0.51900  Biso   1.000  N
  N4       1.0000 0.48549  0.24670  0.01900  Biso   1.000  N
  N5       1.0000 0.01451  0.74670  0.01900  Biso   1.000  N
  N6       1.0000 0.48549  0.25330  0.51900  Biso   1.000  N
  N7       1.0000 0.98549  0.24670  0.48100  Biso   1.000  N
  N8       1.0000 0.51451  0.75330  0.98100  Biso   1.000  N
  N9       1.0000 0.03660  0.21970  0.10723  Biso   1.000  N
  N10      1.0000 0.46340  0.78030  0.60723  Biso   1.000  N
  N11      1.0000 0.96340  0.71970  0.39277  Biso   1.000  N
  N12      1.0000 0.53660  0.28030  0.89277  Biso   1.000  N
  N13      1.0000 0.96340  0.78030  0.89277  Biso   1.000  N
  N14      1.0000 0.53660  0.21970  0.39277  Biso   1.000  N
  N15      1.0000 0.03660  0.28030  0.60723  Biso   1.000  N
  N16      1.0000 0.46340  0.71970  0.10723  Biso   1.000  N
  N17      1.0000 0.12990  0.02480  0.09711  Biso   1.000  N
  N18      1.0000 0.37010  0.97520  0.59711  Biso   1.000  N
  N19      1.0000 0.87010  0.52480  0.40289  Biso   1.000  N
  N20      1.0000 0.62990  0.47520  0.90289  Biso   1.000  N
  N21      1.0000 0.87010  0.97520  0.90289  Biso   1.000  N
  N22      1.0000 0.62990  0.02480  0.40289  Biso   1.000  N
  N23      1.0000 0.12990  0.47520  0.59711  Biso   1.000  N
  N24      1.0000 0.37010  0.52480  0.09711  Biso   1.000  N
  C1       1.0000 0.96810  0.26930  0.91240  Biso   1.000  C
  C2       1.0000 0.53190  0.73070  0.41240  Biso   1.000  C
  C3       1.0000 0.03190  0.76930  0.58760  Biso   1.000  C
  C4       1.0000 0.46810  0.23070  0.08760  Biso   1.000  C
  C5       1.0000 0.03190  0.73070  0.08760  Biso   1.000  C
  C6       1.0000 0.46810  0.26930  0.58760  Biso   1.000  C
  C7       1.0000 0.96810  0.23070  0.41240  Biso   1.000  C
  C8       1.0000 0.53190  0.76930  0.91240  Biso   1.000  C
  C9       1.0000 0.91900  0.36690  0.88730  Biso   1.000  C
  C10      1.0000 0.58100  0.63310  0.38730  Biso   1.000  C
  C11      1.0000 0.08100  0.86690  0.61270  Biso   1.000  C
  C12      1.0000 0.41900  0.13310  0.11270  Biso   1.000  C
  C13      1.0000 0.08100  0.63310  0.11270  Biso   1.000  C
  C14      1.0000 0.41900  0.36690  0.61270  Biso   1.000  C
  C15      1.0000 0.91900  0.13310  0.38730  Biso   1.000  C
  C16      1.0000 0.58100  0.86690  0.88730  Biso   1.000  C
  C17      1.0000 0.88600  0.44990  0.93680  Biso   1.000  C
  C18      1.0000 0.61400  0.55010  0.43680  Biso   1.000  C
  C19      1.0000 0.11400  0.94990  0.56320  Biso   1.000  C
  C20      1.0000 0.38600  0.05010  0.06320  Biso   1.000  C
  C21      1.0000 0.11400  0.55010  0.06320  Biso   1.000  C
  C22      1.0000 0.38600  0.44990  0.56320  Biso   1.000  C
  C23      1.0000 0.88600  0.05010  0.43680  Biso   1.000  C
  C24      1.0000 0.61400  0.94990  0.93680  Biso   1.000  C
  C25      1.0000 0.90290  0.43480  0.00810  Biso   1.000  C
  C26      1.0000 0.59710  0.56520  0.50810  Biso   1.000  C
  C27      1.0000 0.09710  0.93480  0.49190  Biso   1.000  C
  C28      1.0000 0.40290  0.06520  0.99190  Biso   1.000  C
  C29      1.0000 0.09710  0.56520  0.99190  Biso   1.000  C
  C30      1.0000 0.40290  0.43480  0.49190  Biso   1.000  C
  C31      1.0000 0.90290  0.06520  0.50810  Biso   1.000  C
  C32      1.0000 0.59710  0.93480  0.00810  Biso   1.000  C
  C33      1.0000 0.95400  0.33560  0.02860  Biso   1.000  C
  C34      1.0000 0.54600  0.66440  0.52860  Biso   1.000  C
  C35      1.0000 0.04600  0.83560  0.47140  Biso   1.000  C
  C36      1.0000 0.45400  0.16440  0.97140  Biso   1.000  C
  C37      1.0000 0.04600  0.66440  0.97140  Biso   1.000  C
  C38      1.0000 0.45400  0.33560  0.47140  Biso   1.000  C
  C39      1.0000 0.95400  0.16440  0.52860  Biso   1.000  C
  C40      1.0000 0.54600  0.83560  0.02860  Biso   1.000  C
  C41      1.0000 0.98230  0.31440  0.10230  Biso   1.000  C
  C42      1.0000 0.51770  0.68560  0.60230  Biso   1.000  C
  C43      1.0000 0.01770  0.81440  0.39770  Biso   1.000  C
  C44      1.0000 0.48230  0.18560  0.89770  Biso   1.000  C
  C45      1.0000 0.01770  0.68560  0.89770  Biso   1.000  C
  C46      1.0000 0.48230  0.31440  0.39770  Biso   1.000  C
  C47      1.0000 0.98230  0.18560  0.60230  Biso   1.000  C
  C48      1.0000 0.51770  0.81440  0.10230  Biso   1.000  C
  C49      1.0000 0.96110  0.38440  0.16200  Biso   1.000  C
  C50      1.0000 0.53890  0.61560  0.66200  Biso   1.000  C
  C51      1.0000 0.03890  0.88440  0.33800  Biso   1.000  C
  C52      1.0000 0.46110  0.11560  0.83800  Biso   1.000  C
  C53      1.0000 0.03890  0.61560  0.83800  Biso   1.000  C
  C54      1.0000 0.46110  0.38440  0.33800  Biso   1.000  C
  C55      1.0000 0.96110  0.11560  0.66200  Biso   1.000  C
  C56      1.0000 0.53890  0.88440  0.16200  Biso   1.000  C
  C57      1.0000 0.99940  0.35500  0.22540  Biso   1.000  C
  C58      1.0000 0.50060  0.64500  0.72540  Biso   1.000  C
  C59      1.0000 0.00060  0.85500  0.27460  Biso   1.000  C
  C60      1.0000 0.49940  0.14500  0.77460  Biso   1.000  C
  C61      1.0000 0.00060  0.64500  0.77460  Biso   1.000  C
  C62      1.0000 0.49940  0.35500  0.27460  Biso   1.000  C
  C63      1.0000 0.99940  0.14500  0.72540  Biso   1.000  C
  C64      1.0000 0.50060  0.85500  0.22540  Biso   1.000  C
  C65      1.0000 0.05600  0.25850  0.22990  Biso   1.000  C
  C66      1.0000 0.44400  0.74150  0.72990  Biso   1.000  C
  C67      1.0000 0.94400  0.75850  0.27010  Biso   1.000  C
  C68      1.0000 0.55600  0.24150  0.77010  Biso   1.000  C
  C69      1.0000 0.94400  0.74150  0.77010  Biso   1.000  C
  C70      1.0000 0.55600  0.25850  0.27010  Biso   1.000  C
  C71      1.0000 0.05600  0.24150  0.72990  Biso   1.000  C
  C72      1.0000 0.44400  0.75850  0.22990  Biso   1.000  C
  C73      1.0000 0.07310  0.18970  0.16890  Biso   1.000  C
  C74      1.0000 0.42690  0.81030  0.66890  Biso   1.000  C
  C75      1.0000 0.92690  0.68970  0.33110  Biso   1.000  C
  C76      1.0000 0.57310  0.31030  0.83110  Biso   1.000  C
  C77      1.0000 0.92690  0.81030  0.83110  Biso   1.000  C
  C78      1.0000 0.57310  0.18970  0.33110  Biso   1.000  C
  C79      1.0000 0.07310  0.31030  0.66890  Biso   1.000  C
  C80      1.0000 0.42690  0.68970  0.16890  Biso   1.000  C
  C81      1.0000 0.12960  0.08000  0.16240  Biso   1.000  C
  C82      1.0000 0.37040  0.92000  0.66240  Biso   1.000  C
  C83      1.0000 0.87040  0.58000  0.33760  Biso   1.000  C
  C84      1.0000 0.62960  0.42000  0.83760  Biso   1.000  C
  C85      1.0000 0.87040  0.92000  0.83760  Biso   1.000  C
  C86      1.0000 0.62960  0.08000  0.33760  Biso   1.000  C
  C87      1.0000 0.12960  0.42000  0.66240  Biso   1.000  C
  C88      1.0000 0.37040  0.58000  0.16240  Biso   1.000  C
  C89      1.0000 0.17740  0.03430  0.21710  Biso   1.000  C
  C90      1.0000 0.32260  0.96570  0.71710  Biso   1.000  C
  C91      1.0000 0.82260  0.53430  0.28290  Biso   1.000  C
  C92      1.0000 0.67740  0.46570  0.78290  Biso   1.000  C
  C93      1.0000 0.82260  0.96570  0.78290  Biso   1.000  C
  C94      1.0000 0.67740  0.03430  0.28290  Biso   1.000  C
  C95      1.0000 0.17740  0.46570  0.71710  Biso   1.000  C
  C96      1.0000 0.32260  0.53430  0.21710  Biso   1.000  C
  C97      1.0000 0.22600  0.92760  0.20600  Biso   1.000  C
  C98      1.0000 0.27400  0.07240  0.70600  Biso   1.000  C
  C99      1.0000 0.77400  0.42760  0.29400  Biso   1.000  C
  C100     1.0000 0.72600  0.57240  0.79400  Biso   1.000  C
  C101     1.0000 0.77400  0.07240  0.79400  Biso   1.000  C
  C102     1.0000 0.72600  0.92760  0.29400  Biso   1.000  C
  C103     1.0000 0.22600  0.57240  0.70600  Biso   1.000  C
  C104     1.0000 0.27400  0.42760  0.20600  Biso   1.000  C
  C105     1.0000 0.22590  0.87040  0.13950  Biso   1.000  C
  C106     1.0000 0.27410  0.12960  0.63950  Biso   1.000  C
  C107     1.0000 0.77410  0.37040  0.36050  Biso   1.000  C
  C108     1.0000 0.72590  0.62960  0.86050  Biso   1.000  C
  C109     1.0000 0.77410  0.12960  0.86050  Biso   1.000  C
  C110     1.0000 0.72590  0.87040  0.36050  Biso   1.000  C
  C111     1.0000 0.22590  0.62960  0.63950  Biso   1.000  C
  C112     1.0000 0.27410  0.37040  0.13950  Biso   1.000  C
  C113     1.0000 0.17790  0.92350  0.08610  Biso   1.000  C
  C114     1.0000 0.32210  0.07650  0.58610  Biso   1.000  C
  C115     1.0000 0.82210  0.42350  0.41390  Biso   1.000  C
  C116     1.0000 0.67790  0.57650  0.91390  Biso   1.000  C
  C117     1.0000 0.82210  0.07650  0.91390  Biso   1.000  C
  C118     1.0000 0.67790  0.92350  0.41390  Biso   1.000  C
  C119     1.0000 0.17790  0.57650  0.58610  Biso   1.000  C
  C120     1.0000 0.32210  0.42350  0.08610  Biso   1.000  C
  H1       1.0000 0.99200  0.20600  0.88000  Biso   1.000  H
  H2       1.0000 0.50800  0.79400  0.38000  Biso   1.000  H
  H3       1.0000 0.00800  0.70600  0.62000  Biso   1.000  H
  H4       1.0000 0.49200  0.29400  0.12000  Biso   1.000  H
  H5       1.0000 0.00800  0.79400  0.12000  Biso   1.000  H
  H6       1.0000 0.49200  0.20600  0.62000  Biso   1.000  H
  H7       1.0000 0.99200  0.29400  0.38000  Biso   1.000  H
  H8       1.0000 0.50800  0.70600  0.88000  Biso   1.000  H
  H9       1.0000 0.90800  0.38300  0.83600  Biso   1.000  H
  H10      1.0000 0.59200  0.61700  0.33600  Biso   1.000  H
  H11      1.0000 0.09200  0.88300  0.66400  Biso   1.000  H
  H12      1.0000 0.40800  0.11700  0.16400  Biso   1.000  H
  H13      1.0000 0.09200  0.61700  0.16400  Biso   1.000  H
  H14      1.0000 0.40800  0.38300  0.66400  Biso   1.000  H
  H15      1.0000 0.90800  0.11700  0.33600  Biso   1.000  H
  H16      1.0000 0.59200  0.88300  0.83600  Biso   1.000  H
  H17      1.0000 0.85200  0.52200  0.92300  Biso   1.000  H
  H18      1.0000 0.64800  0.47800  0.42300  Biso   1.000  H
  H19      1.0000 0.14800  0.02200  0.57700  Biso   1.000  H
  H20      1.0000 0.35200  0.97800  0.07700  Biso   1.000  H
  H21      1.0000 0.14800  0.47800  0.07700  Biso   1.000  H
  H22      1.0000 0.35200  0.52200  0.57700  Biso   1.000  H
  H23      1.0000 0.85200  0.97800  0.42300  Biso   1.000  H
  H24      1.0000 0.64800  0.02200  0.92300  Biso   1.000  H
  H25      1.0000 0.88400  0.48600  0.04200  Biso   1.000  H
  H26      1.0000 0.61600  0.51400  0.54200  Biso   1.000  H
  H27      1.0000 0.11600  0.98600  0.45800  Biso   1.000  H
  H28      1.0000 0.38400  0.01400  0.95800  Biso   1.000  H
  H29      1.0000 0.11600  0.51400  0.95800  Biso   1.000  H
  H30      1.0000 0.38400  0.48600  0.45800  Biso   1.000  H
  H31      1.0000 0.88400  0.01400  0.54200  Biso   1.000  H
  H32      1.0000 0.61600  0.98600  0.04200  Biso   1.000  H
  H33      1.0000 0.92700  0.44800  0.15900  Biso   1.000  H
  H34      1.0000 0.57300  0.55200  0.65900  Biso   1.000  H
  H35      1.0000 0.07300  0.94800  0.34100  Biso   1.000  H
  H36      1.0000 0.42700  0.05200  0.84100  Biso   1.000  H
  H37      1.0000 0.07300  0.55200  0.84100  Biso   1.000  H
  H38      1.0000 0.42700  0.44800  0.34100  Biso   1.000  H
  H39      1.0000 0.92700  0.05200  0.65900  Biso   1.000  H
  H40      1.0000 0.57300  0.94800  0.15900  Biso   1.000  H
  H41      1.0000 0.99400  0.39700  0.25800  Biso   1.000  H
  H42      1.0000 0.50600  0.60300  0.75800  Biso   1.000  H
  H43      1.0000 0.00600  0.89700  0.24200  Biso   1.000  H
  H44      1.0000 0.49400  0.10300  0.74200  Biso   1.000  H
  H45      1.0000 0.00600  0.60300  0.74200  Biso   1.000  H
  H46      1.0000 0.49400  0.39700  0.24200  Biso   1.000  H
  H47      1.0000 0.99400  0.10300  0.75800  Biso   1.000  H
  H48      1.0000 0.50600  0.89700  0.25800  Biso   1.000  H
  H49      1.0000 0.08700  0.23800  0.27900  Biso   1.000  H
  H50      1.0000 0.41300  0.76200  0.77900  Biso   1.000  H
  H51      1.0000 0.91300  0.73800  0.22100  Biso   1.000  H
  H52      1.0000 0.58700  0.26200  0.72100  Biso   1.000  H
  H53      1.0000 0.91300  0.76200  0.72100  Biso   1.000  H
  H54      1.0000 0.58700  0.23800  0.22100  Biso   1.000  H
  H55      1.0000 0.08700  0.26200  0.77900  Biso   1.000  H
  H56      1.0000 0.41300  0.73800  0.27900  Biso   1.000  H
  H57      1.0000 0.17700  0.06800  0.26000  Biso   1.000  H
  H58      1.0000 0.32300  0.93200  0.76000  Biso   1.000  H
  H59      1.0000 0.82300  0.56800  0.24000  Biso   1.000  H
  H60      1.0000 0.67700  0.43200  0.74000  Biso   1.000  H
  H61      1.0000 0.82300  0.93200  0.74000  Biso   1.000  H
  H62      1.0000 0.67700  0.06800  0.24000  Biso   1.000  H
  H63      1.0000 0.17700  0.43200  0.76000  Biso   1.000  H
  H64      1.0000 0.32300  0.56800  0.26000  Biso   1.000  H
  H65      1.0000 0.26100  0.89600  0.24400  Biso   1.000  H
  H66      1.0000 0.23900  0.10400  0.74400  Biso   1.000  H
  H67      1.0000 0.73900  0.39600  0.25600  Biso   1.000  H
  H68      1.0000 0.76100  0.60400  0.75600  Biso   1.000  H
  H69      1.0000 0.73900  0.10400  0.75600  Biso   1.000  H
  H70      1.0000 0.76100  0.89600  0.25600  Biso   1.000  H
  H71      1.0000 0.26100  0.60400  0.74400  Biso   1.000  H
  H72      1.0000 0.23900  0.39600  0.24400  Biso   1.000  H
  H73      1.0000 0.26100  0.80000  0.12900  Biso   1.000  H
  H74      1.0000 0.23900  0.20000  0.62900  Biso   1.000  H
  H75      1.0000 0.73900  0.30000  0.37100  Biso   1.000  H
  H76      1.0000 0.76100  0.70000  0.87100  Biso   1.000  H
  H77      1.0000 0.73900  0.20000  0.87100  Biso   1.000  H
  H78      1.0000 0.76100  0.80000  0.37100  Biso   1.000  H
  H79      1.0000 0.26100  0.70000  0.62900  Biso   1.000  H
  H80      1.0000 0.23900  0.30000  0.12900  Biso   1.000  H
  H81      1.0000 0.17800  0.88800  0.04000  Biso   1.000  H
  H82      1.0000 0.32200  0.11200  0.54000  Biso   1.000  H
  H83      1.0000 0.82200  0.38800  0.46000  Biso   1.000  H
  H84      1.0000 0.67800  0.61200  0.96000  Biso   1.000  H
  H85      1.0000 0.82200  0.11200  0.96000  Biso   1.000  H
  H86      1.0000 0.67800  0.88800  0.46000  Biso   1.000  H
  H87      1.0000 0.17800  0.61200  0.54000  Biso   1.000  H
  H88      1.0000 0.32200  0.38800  0.04000  Biso   1.000  H
