data_image0
_cell_length_a       7.7541
_cell_length_b       17.086
_cell_length_c       11.383
_cell_angle_alpha    90
_cell_angle_beta     98.72
_cell_angle_gamma    90

_symmetry_space_group_name_H-M    "P 1"
_symmetry_int_tables_number       1

loop_
  _symmetry_equiv_pos_as_xyz
  'x, y, z'

loop_
  _atom_site_label
  _atom_site_occupancy
  _atom_site_fract_x
  _atom_site_fract_y
  _atom_site_fract_z
  _atom_site_thermal_displace_type
  _atom_site_B_iso_or_equiv
  _atom_site_type_symbol
  Cu1      1.0000 0.49466  0.91179  0.42934  Biso   1.000  Cu
  Cu2      1.0000 0.00534  0.41179  0.07066  Biso   1.000  Cu
  Cu3      1.0000 0.50534  0.08821  0.57066  Biso   1.000  Cu
  Cu4      1.0000 0.99466  0.58821  0.92934  Biso   1.000  Cu
  Cl1      1.0000 0.62722  0.93107  0.27020  Biso   1.000  Cl
  Cl2      1.0000 0.87278  0.43107  0.22980  Biso   1.000  Cl
  Cl3      1.0000 0.37278  0.06893  0.72980  Biso   1.000  Cl
  Cl4      1.0000 0.12722  0.56893  0.77020  Biso   1.000  Cl
  Cl5      1.0000 0.31100  0.01398  0.38768  Biso   1.000  Cl
  Cl6      1.0000 0.18900  0.51398  0.11232  Biso   1.000  Cl
  Cl7      1.0000 0.68900  0.98602  0.61232  Biso   1.000  Cl
  Cl8      1.0000 0.81100  0.48602  0.88768  Biso   1.000  Cl
  N1       1.0000 0.62710  0.81352  0.47460  Biso   1.000  N
  N2       1.0000 0.87290  0.31352  0.02540  Biso   1.000  N
  N3       1.0000 0.37290  0.18648  0.52540  Biso   1.000  N
  N4       1.0000 0.12710  0.68648  0.97460  Biso   1.000  N
  N5       1.0000 0.77890  0.78211  0.45180  Biso   1.000  N
  N6       1.0000 0.72110  0.28211  0.04820  Biso   1.000  N
  N7       1.0000 0.22110  0.21789  0.54820  Biso   1.000  N
  N8       1.0000 0.27890  0.71789  0.95180  Biso   1.000  N
  N9       1.0000 0.80330  0.71605  0.50780  Biso   1.000  N
  N10      1.0000 0.69670  0.21605  0.99220  Biso   1.000  N
  N11      1.0000 0.19670  0.28395  0.49220  Biso   1.000  N
  N12      1.0000 0.30330  0.78395  0.00780  Biso   1.000  N
  N13      1.0000 0.66530  0.70428  0.56670  Biso   1.000  N
  N14      1.0000 0.83470  0.20428  0.93330  Biso   1.000  N
  N15      1.0000 0.33470  0.29572  0.43330  Biso   1.000  N
  N16      1.0000 0.16530  0.79572  0.06670  Biso   1.000  N
  N17      1.0000 0.34100  0.85939  0.54312  Biso   1.000  N
  N18      1.0000 0.15900  0.35939  0.95688  Biso   1.000  N
  N19      1.0000 0.65900  0.14061  0.45688  Biso   1.000  N
  N20      1.0000 0.84100  0.64061  0.04312  Biso   1.000  N
  N21      1.0000 0.26860  0.71690  0.31660  Biso   1.000  N
  N22      1.0000 0.23140  0.21690  0.18340  Biso   1.000  N
  N23      1.0000 0.73140  0.28310  0.68340  Biso   1.000  N
  N24      1.0000 0.76860  0.78310  0.81660  Biso   1.000  N
  C1       1.0000 0.55780  0.76548  0.54590  Biso   1.000  C
  C2       1.0000 0.94220  0.26548  0.95410  Biso   1.000  C
  C3       1.0000 0.44220  0.23452  0.45410  Biso   1.000  C
  C4       1.0000 0.05780  0.73452  0.04590  Biso   1.000  C
  C5       1.0000 0.39450  0.78746  0.58480  Biso   1.000  C
  C6       1.0000 0.10550  0.28746  0.91520  Biso   1.000  C
  C7       1.0000 0.60550  0.21254  0.41520  Biso   1.000  C
  C8       1.0000 0.89450  0.71254  0.08480  Biso   1.000  C
  C9       1.0000 0.30070  0.74384  0.65500  Biso   1.000  C
  C10      1.0000 0.19930  0.24384  0.84500  Biso   1.000  C
  C11      1.0000 0.69930  0.25616  0.34500  Biso   1.000  C
  C12      1.0000 0.80070  0.75616  0.15500  Biso   1.000  C
  H1       1.0000 0.33820  0.69420  0.68110  Biso   1.000  H
  H2       1.0000 0.16180  0.19420  0.81890  Biso   1.000  H
  H3       1.0000 0.66180  0.30580  0.31890  Biso   1.000  H
  H4       1.0000 0.83820  0.80580  0.18110  Biso   1.000  H
  C13      1.0000 0.14900  0.77560  0.68570  Biso   1.000  C
  C14      1.0000 0.35100  0.27560  0.81430  Biso   1.000  C
  C15      1.0000 0.85100  0.22440  0.31430  Biso   1.000  C
  C16      1.0000 0.64900  0.72440  0.18570  Biso   1.000  C
  H5       1.0000 0.08350  0.74740  0.73300  Biso   1.000  H
  H6       1.0000 0.41650  0.24740  0.76700  Biso   1.000  H
  H7       1.0000 0.91650  0.25260  0.26700  Biso   1.000  H
  H8       1.0000 0.58350  0.75260  0.23300  Biso   1.000  H
  C17      1.0000 0.09630  0.84870  0.64590  Biso   1.000  C
  C18      1.0000 0.40370  0.34870  0.85410  Biso   1.000  C
  C19      1.0000 0.90370  0.15130  0.35410  Biso   1.000  C
  C20      1.0000 0.59630  0.65130  0.14590  Biso   1.000  C
  H9       1.0000 0.99570  0.87100  0.66660  Biso   1.000  H
  H10      1.0000 0.50430  0.37100  0.83340  Biso   1.000  H
  H11      1.0000 0.00430  0.12900  0.33340  Biso   1.000  H
  H12      1.0000 0.49570  0.62900  0.16660  Biso   1.000  H
  C21      1.0000 0.19580  0.88893  0.57420  Biso   1.000  C
  C22      1.0000 0.30420  0.38893  0.92580  Biso   1.000  C
  C23      1.0000 0.80420  0.11107  0.42580  Biso   1.000  C
  C24      1.0000 0.69580  0.61107  0.07420  Biso   1.000  C
  H13      1.0000 0.15960  0.93840  0.54680  Biso   1.000  H
  H14      1.0000 0.34040  0.43840  0.95320  Biso   1.000  H
  H15      1.0000 0.84040  0.06160  0.45320  Biso   1.000  H
  H16      1.0000 0.65960  0.56160  0.04680  Biso   1.000  H
  C25      1.0000 0.66160  0.63180  0.63650  Biso   1.000  C
  C26      1.0000 0.83840  0.13180  0.86350  Biso   1.000  C
  C27      1.0000 0.33840  0.36820  0.36350  Biso   1.000  C
  C28      1.0000 0.16160  0.86820  0.13650  Biso   1.000  C
  H17      1.0000 0.59990  0.64160  0.70300  Biso   1.000  H
  H18      1.0000 0.90010  0.14160  0.79700  Biso   1.000  H
  H19      1.0000 0.40010  0.35840  0.29700  Biso   1.000  H
  H20      1.0000 0.09990  0.85840  0.20300  Biso   1.000  H
  H21      1.0000 0.78010  0.61680  0.66820  Biso   1.000  H
  H22      1.0000 0.71990  0.11680  0.83180  Biso   1.000  H
  H23      1.0000 0.21990  0.38320  0.33180  Biso   1.000  H
  H24      1.0000 0.28010  0.88320  0.16820  Biso   1.000  H
  C29      1.0000 0.57380  0.56504  0.56310  Biso   1.000  C
  C30      1.0000 0.92620  0.06504  0.93690  Biso   1.000  C
  C31      1.0000 0.42620  0.43496  0.43690  Biso   1.000  C
  C32      1.0000 0.07380  0.93496  0.06310  Biso   1.000  C
  C33      1.0000 0.59490  0.55276  0.44590  Biso   1.000  C
  C34      1.0000 0.90510  0.05276  0.05410  Biso   1.000  C
  C35      1.0000 0.40510  0.44724  0.55410  Biso   1.000  C
  C36      1.0000 0.09490  0.94724  0.94590  Biso   1.000  C
  H25      1.0000 0.65940  0.58840  0.40860  Biso   1.000  H
  H26      1.0000 0.84060  0.08840  0.09140  Biso   1.000  H
  H27      1.0000 0.34060  0.41160  0.59140  Biso   1.000  H
  H28      1.0000 0.15940  0.91160  0.90860  Biso   1.000  H
  C37      1.0000 0.47770  0.51128  0.61680  Biso   1.000  C
  C38      1.0000 0.02230  0.01128  0.88320  Biso   1.000  C
  C39      1.0000 0.52230  0.48872  0.38320  Biso   1.000  C
  C40      1.0000 0.97770  0.98872  0.11680  Biso   1.000  C
  H29      1.0000 0.46200  0.51830  0.69550  Biso   1.000  H
  H30      1.0000 0.03800  0.01830  0.80450  Biso   1.000  H
  H31      1.0000 0.53800  0.48170  0.30450  Biso   1.000  H
  H32      1.0000 0.96200  0.98170  0.19550  Biso   1.000  H
  C41      1.0000 0.19440  0.66660  0.34960  Biso   1.000  C
  C42      1.0000 0.30560  0.16660  0.15040  Biso   1.000  C
  C43      1.0000 0.80560  0.33340  0.65040  Biso   1.000  C
  C44      1.0000 0.69440  0.83340  0.84960  Biso   1.000  C
  C45      1.0000 0.09970  0.60140  0.39250  Biso   1.000  C
  C46      1.0000 0.40030  0.10140  0.10750  Biso   1.000  C
  C47      1.0000 0.90030  0.39860  0.60750  Biso   1.000  C
  C48      1.0000 0.59970  0.89860  0.89250  Biso   1.000  C
  H33      1.0000 0.00800  0.62120  0.43210  Biso   1.000  H
  H34      1.0000 0.49200  0.12120  0.06790  Biso   1.000  H
  H35      1.0000 0.99200  0.37880  0.56790  Biso   1.000  H
  H36      1.0000 0.50800  0.87880  0.93210  Biso   1.000  H
  H37      1.0000 0.17840  0.57050  0.44710  Biso   1.000  H
  H38      1.0000 0.32160  0.07050  0.05290  Biso   1.000  H
  H39      1.0000 0.82160  0.42950  0.55290  Biso   1.000  H
  H40      1.0000 0.67840  0.92950  0.94710  Biso   1.000  H
  H41      1.0000 0.05030  0.56940  0.32650  Biso   1.000  H
  H42      1.0000 0.44970  0.06940  0.17350  Biso   1.000  H
  H43      1.0000 0.94970  0.43060  0.67350  Biso   1.000  H
  H44      1.0000 0.55030  0.93060  0.82650  Biso   1.000  H
