data_image0
_cell_length_a       11.489
_cell_length_b       15.054
_cell_length_c       12.186
_cell_angle_alpha    90
_cell_angle_beta     116.4
_cell_angle_gamma    90

_symmetry_space_group_name_H-M    "P 1"
_symmetry_int_tables_number       1

loop_
  _symmetry_equiv_pos_as_xyz
  'x, y, z'

loop_
  _atom_site_label
  _atom_site_occupancy
  _atom_site_fract_x
  _atom_site_fract_y
  _atom_site_fract_z
  _atom_site_thermal_displace_type
  _atom_site_B_iso_or_equiv
  _atom_site_type_symbol
  C1       1.0000 0.73320  0.13150  0.19500  Biso   1.000  C
  C2       1.0000 0.76680  0.63150  0.30500  Biso   1.000  C
  C3       1.0000 0.26680  0.86850  0.80500  Biso   1.000  C
  C4       1.0000 0.23320  0.36850  0.69500  Biso   1.000  C
  H1       1.0000 0.81910  0.13510  0.25410  Biso   1.000  H
  H2       1.0000 0.68090  0.63510  0.24590  Biso   1.000  H
  H3       1.0000 0.18090  0.86490  0.74590  Biso   1.000  H
  H4       1.0000 0.31910  0.36490  0.75410  Biso   1.000  H
  C5       1.0000 0.69600  0.17480  0.08290  Biso   1.000  C
  C6       1.0000 0.80400  0.67480  0.41710  Biso   1.000  C
  C7       1.0000 0.30400  0.82520  0.91710  Biso   1.000  C
  C8       1.0000 0.19600  0.32520  0.58290  Biso   1.000  C
  H5       1.0000 0.75690  0.20700  0.06850  Biso   1.000  H
  H6       1.0000 0.74310  0.70700  0.43150  Biso   1.000  H
  H7       1.0000 0.24310  0.79300  0.93150  Biso   1.000  H
  H8       1.0000 0.25690  0.29300  0.56850  Biso   1.000  H
  C9       1.0000 0.56960  0.16980  0.99390  Biso   1.000  C
  C10      1.0000 0.93040  0.66980  0.50610  Biso   1.000  C
  C11      1.0000 0.43040  0.83020  0.00610  Biso   1.000  C
  C12      1.0000 0.06960  0.33020  0.49390  Biso   1.000  C
  H9       1.0000 0.54430  0.19850  0.91910  Biso   1.000  H
  H10      1.0000 0.95570  0.69850  0.58090  Biso   1.000  H
  H11      1.0000 0.45570  0.80150  0.08090  Biso   1.000  H
  H12      1.0000 0.04430  0.30150  0.41910  Biso   1.000  H
  C13      1.0000 0.47930  0.12080  0.01760  Biso   1.000  C
  C14      1.0000 0.02070  0.62080  0.48240  Biso   1.000  C
  C15      1.0000 0.52070  0.87920  0.98240  Biso   1.000  C
  C16      1.0000 0.97930  0.37920  0.51760  Biso   1.000  C
  C17      1.0000 0.52350  0.07986  0.13170  Biso   1.000  C
  C18      1.0000 0.97650  0.57986  0.36830  Biso   1.000  C
  C19      1.0000 0.47650  0.92014  0.86830  Biso   1.000  C
  C20      1.0000 0.02350  0.42014  0.63170  Biso   1.000  C
  C21      1.0000 0.43580  0.03080  0.16450  Biso   1.000  C
  C22      1.0000 0.06420  0.53080  0.33550  Biso   1.000  C
  C23      1.0000 0.56420  0.96920  0.83550  Biso   1.000  C
  C24      1.0000 0.93580  0.46920  0.66450  Biso   1.000  C
  C25      1.0000 0.41000  0.95150  0.31430  Biso   1.000  C
  C26      1.0000 0.09000  0.45150  0.18570  Biso   1.000  C
  C27      1.0000 0.59000  0.04850  0.68570  Biso   1.000  C
  C28      1.0000 0.91000  0.54850  0.81430  Biso   1.000  C
  H13      1.0000 0.44460  0.92740  0.39270  Biso   1.000  H
  H14      1.0000 0.05540  0.42740  0.10730  Biso   1.000  H
  H15      1.0000 0.55540  0.07260  0.60730  Biso   1.000  H
  H16      1.0000 0.94460  0.57260  0.89270  Biso   1.000  H
  C29      1.0000 0.27810  0.94100  0.23810  Biso   1.000  C
  C30      1.0000 0.22190  0.44100  0.26190  Biso   1.000  C
  C31      1.0000 0.72190  0.05900  0.76190  Biso   1.000  C
  C32      1.0000 0.77810  0.55900  0.73810  Biso   1.000  C
  H17      1.0000 0.22620  0.91010  0.26580  Biso   1.000  H
  H18      1.0000 0.27380  0.41010  0.23420  Biso   1.000  H
  H19      1.0000 0.77380  0.08990  0.73420  Biso   1.000  H
  H20      1.0000 0.72620  0.58990  0.76580  Biso   1.000  H
  C33      1.0000 0.22450  0.97610  0.12240  Biso   1.000  C
  C34      1.0000 0.27550  0.47610  0.37760  Biso   1.000  C
  C35      1.0000 0.77550  0.02390  0.87760  Biso   1.000  C
  C36      1.0000 0.72450  0.52390  0.62240  Biso   1.000  C
  H21      1.0000 0.13630  0.96950  0.07100  Biso   1.000  H
  H22      1.0000 0.36370  0.46950  0.42900  Biso   1.000  H
  H23      1.0000 0.86370  0.03050  0.92900  Biso   1.000  H
  H24      1.0000 0.63630  0.53050  0.57100  Biso   1.000  H
  C37      1.0000 0.30520  0.02218  0.08270  Biso   1.000  C
  C38      1.0000 0.19480  0.52218  0.41730  Biso   1.000  C
  C39      1.0000 0.69480  0.97782  0.91730  Biso   1.000  C
  C40      1.0000 0.80520  0.47782  0.58270  Biso   1.000  C
  C41      1.0000 0.25850  0.06214  0.96230  Biso   1.000  C
  C42      1.0000 0.24150  0.56214  0.53770  Biso   1.000  C
  C43      1.0000 0.74150  0.93786  0.03770  Biso   1.000  C
  C44      1.0000 0.75850  0.43786  0.46230  Biso   1.000  C
  C45      1.0000 0.34330  0.10950  0.93000  Biso   1.000  C
  C46      1.0000 0.15670  0.60950  0.57000  Biso   1.000  C
  C47      1.0000 0.65670  0.89050  0.07000  Biso   1.000  C
  C48      1.0000 0.84330  0.39050  0.43000  Biso   1.000  C
  C49      1.0000 0.09400  0.08540  0.77450  Biso   1.000  C
  C50      1.0000 0.40600  0.58540  0.72550  Biso   1.000  C
  C51      1.0000 0.90600  0.91460  0.22550  Biso   1.000  C
  C52      1.0000 0.59400  0.41460  0.27450  Biso   1.000  C
  H25      1.0000 0.00780  0.07880  0.71700  Biso   1.000  H
  H26      1.0000 0.49220  0.57880  0.78300  Biso   1.000  H
  H27      1.0000 0.99220  0.92120  0.28300  Biso   1.000  H
  H28      1.0000 0.50780  0.42120  0.21700  Biso   1.000  H
  C53      1.0000 0.17790  0.13240  0.74150  Biso   1.000  C
  C54      1.0000 0.32210  0.63240  0.75850  Biso   1.000  C
  C55      1.0000 0.82210  0.86760  0.25850  Biso   1.000  C
  C56      1.0000 0.67790  0.36760  0.24150  Biso   1.000  C
  H29      1.0000 0.14490  0.15580  0.66270  Biso   1.000  H
  H30      1.0000 0.35510  0.65580  0.83730  Biso   1.000  H
  H31      1.0000 0.85510  0.84420  0.33730  Biso   1.000  H
  H32      1.0000 0.64490  0.34420  0.16270  Biso   1.000  H
  C57      1.0000 0.79130  0.90030  0.58560  Biso   1.000  C
  C58      1.0000 0.70870  0.40030  0.91440  Biso   1.000  C
  C59      1.0000 0.20870  0.09970  0.41440  Biso   1.000  C
  C60      1.0000 0.29130  0.59970  0.08560  Biso   1.000  C
  C61      1.0000 0.77540  0.84816  0.68340  Biso   1.000  C
  C62      1.0000 0.72460  0.34816  0.81660  Biso   1.000  C
  C63      1.0000 0.22460  0.15184  0.31660  Biso   1.000  C
  C64      1.0000 0.27540  0.65184  0.18340  Biso   1.000  C
  C65      1.0000 0.65420  0.82570  0.67340  Biso   1.000  C
  C66      1.0000 0.84580  0.32570  0.82660  Biso   1.000  C
  C67      1.0000 0.34580  0.17430  0.32660  Biso   1.000  C
  C68      1.0000 0.15420  0.67430  0.17340  Biso   1.000  C
  H33      1.0000 0.57970  0.84320  0.60480  Biso   1.000  H
  H34      1.0000 0.92030  0.34320  0.89520  Biso   1.000  H
  H35      1.0000 0.42030  0.15680  0.39520  Biso   1.000  H
  H36      1.0000 0.07970  0.65680  0.10480  Biso   1.000  H
  C69      1.0000 0.64350  0.77740  0.76500  Biso   1.000  C
  C70      1.0000 0.85650  0.27740  0.73500  Biso   1.000  C
  C71      1.0000 0.35650  0.22260  0.23500  Biso   1.000  C
  C72      1.0000 0.14350  0.72260  0.26500  Biso   1.000  C
  H37      1.0000 0.56160  0.76240  0.75710  Biso   1.000  H
  H38      1.0000 0.93840  0.26240  0.74290  Biso   1.000  H
  H39      1.0000 0.43840  0.23760  0.24290  Biso   1.000  H
  H40      1.0000 0.06160  0.73760  0.25710  Biso   1.000  H
  C73      1.0000 0.75350  0.75083  0.86910  Biso   1.000  C
  C74      1.0000 0.74650  0.25083  0.63090  Biso   1.000  C
  C75      1.0000 0.24650  0.24917  0.13090  Biso   1.000  C
  C76      1.0000 0.25350  0.74917  0.36910  Biso   1.000  C
  C77      1.0000 0.73930  0.69028  0.96200  Biso   1.000  C
  C78      1.0000 0.76070  0.19028  0.53800  Biso   1.000  C
  C79      1.0000 0.26070  0.30972  0.03800  Biso   1.000  C
  C80      1.0000 0.23930  0.80972  0.46200  Biso   1.000  C
  C81      1.0000 0.87500  0.77540  0.88100  Biso   1.000  C
  C82      1.0000 0.62500  0.27540  0.61900  Biso   1.000  C
  C83      1.0000 0.12500  0.22460  0.11900  Biso   1.000  C
  C84      1.0000 0.37500  0.72460  0.38100  Biso   1.000  C
  H41      1.0000 0.94920  0.75930  0.95080  Biso   1.000  H
  H42      1.0000 0.55080  0.25930  0.54920  Biso   1.000  H
  H43      1.0000 0.05080  0.24070  0.04920  Biso   1.000  H
  H44      1.0000 0.44920  0.74070  0.45080  Biso   1.000  H
  C85      1.0000 0.88640  0.82370  0.78960  Biso   1.000  C
  C86      1.0000 0.61360  0.32370  0.71040  Biso   1.000  C
  C87      1.0000 0.11360  0.17630  0.21040  Biso   1.000  C
  C88      1.0000 0.38640  0.67630  0.28960  Biso   1.000  C
  H45      1.0000 0.96820  0.84010  0.79860  Biso   1.000  H
  H46      1.0000 0.53180  0.34010  0.70140  Biso   1.000  H
  H47      1.0000 0.03180  0.15990  0.20140  Biso   1.000  H
  H48      1.0000 0.46820  0.65990  0.29860  Biso   1.000  H
  N1       1.0000 0.64820  0.08504  0.21921  Biso   1.000  N
  N2       1.0000 0.85180  0.58504  0.28079  Biso   1.000  N
  N3       1.0000 0.35180  0.91496  0.78079  Biso   1.000  N
  N4       1.0000 0.14820  0.41496  0.71921  Biso   1.000  N
  N5       1.0000 0.48870  0.99498  0.27890  Biso   1.000  N
  N6       1.0000 0.01130  0.49498  0.22110  Biso   1.000  N
  N7       1.0000 0.51130  0.00502  0.72110  Biso   1.000  N
  N8       1.0000 0.98870  0.50502  0.77890  Biso   1.000  N
  N9       1.0000 0.30220  0.14565  0.81610  Biso   1.000  N
  N10      1.0000 0.19780  0.64565  0.68390  Biso   1.000  N
  N11      1.0000 0.69780  0.85435  0.18390  Biso   1.000  N
  N12      1.0000 0.80220  0.35435  0.31610  Biso   1.000  N
  N13      1.0000 0.13130  0.05022  0.88290  Biso   1.000  N
  N14      1.0000 0.36870  0.55022  0.61710  Biso   1.000  N
  N15      1.0000 0.86870  0.94978  0.11710  Biso   1.000  N
  N16      1.0000 0.63130  0.44978  0.38290  Biso   1.000  N
  O1       1.0000 0.68910  0.93612  0.50352  Biso   1.000  O
  O2       1.0000 0.81090  0.43612  0.99648  Biso   1.000  O
  O3       1.0000 0.31090  0.06388  0.49648  Biso   1.000  O
  O4       1.0000 0.18910  0.56388  0.00352  Biso   1.000  O
  O5       1.0000 0.90120  0.90540  0.59140  Biso   1.000  O
  O6       1.0000 0.59880  0.40540  0.90860  Biso   1.000  O
  O7       1.0000 0.09880  0.09460  0.40860  Biso   1.000  O
  O8       1.0000 0.40120  0.59460  0.09140  Biso   1.000  O
  O9       1.0000 0.86440  0.03403  0.43798  Biso   1.000  O
  O10      1.0000 0.63560  0.53403  0.06202  Biso   1.000  O
  O11      1.0000 0.13560  0.96597  0.56202  Biso   1.000  O
  O12      1.0000 0.36440  0.46597  0.93798  Biso   1.000  O
  O13      1.0000 0.83770  0.64540  0.02995  Biso   1.000  O
  O14      1.0000 0.66230  0.14540  0.47005  Biso   1.000  O
  O15      1.0000 0.16230  0.35460  0.97005  Biso   1.000  O
  O16      1.0000 0.33770  0.85460  0.52995  Biso   1.000  O
  O17      1.0000 0.62939  0.68565  0.96002  Biso   1.000  O
  O18      1.0000 0.87061  0.18565  0.53998  Biso   1.000  O
  O19      1.0000 0.37061  0.31435  0.03998  Biso   1.000  O
  O20      1.0000 0.12939  0.81435  0.46002  Biso   1.000  O
  Cu1      1.0000 0.67755  0.02134  0.37710  Biso   1.000  Cu
  Cu2      1.0000 0.82245  0.52134  0.12290  Biso   1.000  Cu
  Cu3      1.0000 0.32245  0.97866  0.62290  Biso   1.000  Cu
  Cu4      1.0000 0.17755  0.47866  0.87710  Biso   1.000  Cu
  H49      1.0000 0.90000  0.99200  0.48600  Biso   1.000  H
  H50      1.0000 0.60000  0.49200  0.01400  Biso   1.000  H
  H51      1.0000 0.10000  0.00800  0.51400  Biso   1.000  H
  H52      1.0000 0.40000  0.50800  0.98600  Biso   1.000  H
  H53      1.0000 0.87300  0.08310  0.47500  Biso   1.000  H
  H54      1.0000 0.62700  0.58310  0.02500  Biso   1.000  H
  H55      1.0000 0.12700  0.91690  0.52500  Biso   1.000  H
  H56      1.0000 0.37300  0.41690  0.97500  Biso   1.000  H
