data_image0
_cell_length_a       11.45
_cell_length_b       15.009
_cell_length_c       12.175
_cell_angle_alpha    90
_cell_angle_beta     116.396
_cell_angle_gamma    90

_symmetry_space_group_name_H-M    "P 1"
_symmetry_int_tables_number       1

loop_
  _symmetry_equiv_pos_as_xyz
  'x, y, z'

loop_
  _atom_site_label
  _atom_site_occupancy
  _atom_site_fract_x
  _atom_site_fract_y
  _atom_site_fract_z
  _atom_site_thermal_displace_type
  _atom_site_B_iso_or_equiv
  _atom_site_type_symbol
  Cu1      1.0000 0.67731  0.02117  0.87702  Biso   1.000  Cu
  Cu2      1.0000 0.82269  0.52117  0.62298  Biso   1.000  Cu
  Cu3      1.0000 0.32269  0.97883  0.12298  Biso   1.000  Cu
  Cu4      1.0000 0.17731  0.47883  0.37702  Biso   1.000  Cu
  C1       1.0000 0.40990  0.95176  0.81480  Biso   1.000  C
  C2       1.0000 0.09010  0.45176  0.68520  Biso   1.000  C
  C3       1.0000 0.59010  0.04824  0.18520  Biso   1.000  C
  C4       1.0000 0.90990  0.54824  0.31480  Biso   1.000  C
  H1       1.0000 0.44430  0.92790  0.89340  Biso   1.000  H
  H2       1.0000 0.05570  0.42790  0.60660  Biso   1.000  H
  H3       1.0000 0.55570  0.07210  0.10660  Biso   1.000  H
  H4       1.0000 0.94430  0.57210  0.39340  Biso   1.000  H
  C5       1.0000 0.27750  0.94140  0.73750  Biso   1.000  C
  C6       1.0000 0.22250  0.44140  0.76250  Biso   1.000  C
  C7       1.0000 0.72250  0.05860  0.26250  Biso   1.000  C
  C8       1.0000 0.77750  0.55860  0.23750  Biso   1.000  C
  H5       1.0000 0.22500  0.91050  0.76490  Biso   1.000  H
  H6       1.0000 0.27500  0.41050  0.73510  Biso   1.000  H
  H7       1.0000 0.77500  0.08950  0.23510  Biso   1.000  H
  H8       1.0000 0.72500  0.58950  0.26490  Biso   1.000  H
  C9       1.0000 0.22420  0.97603  0.62200  Biso   1.000  C
  C10      1.0000 0.27580  0.47603  0.87800  Biso   1.000  C
  C11      1.0000 0.77580  0.02397  0.37800  Biso   1.000  C
  C12      1.0000 0.72420  0.52397  0.12200  Biso   1.000  C
  H9       1.0000 0.13590  0.96900  0.57030  Biso   1.000  H
  H10      1.0000 0.36410  0.46900  0.92970  Biso   1.000  H
  H11      1.0000 0.86410  0.03100  0.42970  Biso   1.000  H
  H12      1.0000 0.63590  0.53100  0.07030  Biso   1.000  H
  C13      1.0000 0.30510  0.02256  0.58250  Biso   1.000  C
  C14      1.0000 0.19490  0.52256  0.91750  Biso   1.000  C
  C15      1.0000 0.69490  0.97744  0.41750  Biso   1.000  C
  C16      1.0000 0.80510  0.47744  0.08250  Biso   1.000  C
  C17      1.0000 0.25860  0.06218  0.46210  Biso   1.000  C
  C18      1.0000 0.24140  0.56218  0.03790  Biso   1.000  C
  C19      1.0000 0.74140  0.93782  0.53790  Biso   1.000  C
  C20      1.0000 0.75860  0.43782  0.96210  Biso   1.000  C
  C21      1.0000 0.09430  0.08590  0.27390  Biso   1.000  C
  C22      1.0000 0.40570  0.58590  0.22610  Biso   1.000  C
  C23      1.0000 0.90570  0.91410  0.72610  Biso   1.000  C
  C24      1.0000 0.59430  0.41410  0.77390  Biso   1.000  C
  H13      1.0000 0.00790  0.07890  0.21610  Biso   1.000  H
  H14      1.0000 0.49210  0.57890  0.28390  Biso   1.000  H
  H15      1.0000 0.99210  0.92110  0.78390  Biso   1.000  H
  H16      1.0000 0.50790  0.42110  0.71610  Biso   1.000  H
  C25      1.0000 0.17770  0.13300  0.24090  Biso   1.000  C
  C26      1.0000 0.32230  0.63300  0.25910  Biso   1.000  C
  C27      1.0000 0.82230  0.86700  0.75910  Biso   1.000  C
  C28      1.0000 0.67770  0.36700  0.74090  Biso   1.000  C
  H17      1.0000 0.14470  0.15690  0.16240  Biso   1.000  H
  H18      1.0000 0.35530  0.65690  0.33760  Biso   1.000  H
  H19      1.0000 0.85530  0.84310  0.83760  Biso   1.000  H
  H20      1.0000 0.64470  0.34310  0.66240  Biso   1.000  H
  C29      1.0000 0.34380  0.10963  0.42990  Biso   1.000  C
  C30      1.0000 0.15620  0.60963  0.07010  Biso   1.000  C
  C31      1.0000 0.65620  0.89037  0.57010  Biso   1.000  C
  C32      1.0000 0.84380  0.39037  0.92990  Biso   1.000  C
  C33      1.0000 0.47950  0.12055  0.51730  Biso   1.000  C
  C34      1.0000 0.02050  0.62055  0.98270  Biso   1.000  C
  C35      1.0000 0.52050  0.87945  0.48270  Biso   1.000  C
  C36      1.0000 0.97950  0.37945  0.01730  Biso   1.000  C
  C37      1.0000 0.57060  0.16985  0.49440  Biso   1.000  C
  C38      1.0000 0.92940  0.66985  0.00560  Biso   1.000  C
  C39      1.0000 0.42940  0.83015  0.50560  Biso   1.000  C
  C40      1.0000 0.07060  0.33015  0.99440  Biso   1.000  C
  H21      1.0000 0.54550  0.19890  0.41980  Biso   1.000  H
  H22      1.0000 0.95450  0.69890  0.08020  Biso   1.000  H
  H23      1.0000 0.45450  0.80110  0.58020  Biso   1.000  H
  H24      1.0000 0.04550  0.30110  0.91980  Biso   1.000  H
  C41      1.0000 0.69610  0.17460  0.58300  Biso   1.000  C
  C42      1.0000 0.80390  0.67460  0.91700  Biso   1.000  C
  C43      1.0000 0.30390  0.82540  0.41700  Biso   1.000  C
  C44      1.0000 0.19610  0.32540  0.08300  Biso   1.000  C
  H25      1.0000 0.75730  0.20690  0.56860  Biso   1.000  H
  H26      1.0000 0.74270  0.70690  0.93140  Biso   1.000  H
  H27      1.0000 0.24270  0.79310  0.43140  Biso   1.000  H
  H28      1.0000 0.25730  0.29310  0.06860  Biso   1.000  H
  C45      1.0000 0.73370  0.13118  0.69550  Biso   1.000  C
  C46      1.0000 0.76630  0.63118  0.80450  Biso   1.000  C
  C47      1.0000 0.26630  0.86882  0.30450  Biso   1.000  C
  C48      1.0000 0.23370  0.36882  0.19550  Biso   1.000  C
  H29      1.0000 0.82000  0.13460  0.75470  Biso   1.000  H
  H30      1.0000 0.68000  0.63460  0.74530  Biso   1.000  H
  H31      1.0000 0.18000  0.86540  0.24530  Biso   1.000  H
  H32      1.0000 0.32000  0.36540  0.25470  Biso   1.000  H
  C49      1.0000 0.52380  0.08012  0.63160  Biso   1.000  C
  C50      1.0000 0.97620  0.58012  0.86840  Biso   1.000  C
  C51      1.0000 0.47620  0.91988  0.36840  Biso   1.000  C
  C52      1.0000 0.02380  0.41988  0.13160  Biso   1.000  C
  C53      1.0000 0.43540  0.03060  0.66430  Biso   1.000  C
  C54      1.0000 0.06460  0.53060  0.83570  Biso   1.000  C
  C55      1.0000 0.56460  0.96940  0.33570  Biso   1.000  C
  C56      1.0000 0.93540  0.46940  0.16430  Biso   1.000  C
  C57      1.0000 0.77570  0.84756  0.18340  Biso   1.000  C
  C58      1.0000 0.72430  0.34756  0.31660  Biso   1.000  C
  C59      1.0000 0.22430  0.15244  0.81660  Biso   1.000  C
  C60      1.0000 0.27570  0.65244  0.68340  Biso   1.000  C
  C61      1.0000 0.88630  0.82260  0.28900  Biso   1.000  C
  C62      1.0000 0.61370  0.32260  0.21100  Biso   1.000  C
  C63      1.0000 0.11370  0.17740  0.71100  Biso   1.000  C
  C64      1.0000 0.38630  0.67740  0.78900  Biso   1.000  C
  H33      1.0000 0.96860  0.83850  0.29790  Biso   1.000  H
  H34      1.0000 0.53140  0.33850  0.20210  Biso   1.000  H
  H35      1.0000 0.03140  0.16150  0.70210  Biso   1.000  H
  H36      1.0000 0.46860  0.66150  0.79790  Biso   1.000  H
  C65      1.0000 0.87490  0.77492  0.37970  Biso   1.000  C
  C66      1.0000 0.62510  0.27492  0.12030  Biso   1.000  C
  C67      1.0000 0.12510  0.22508  0.62030  Biso   1.000  C
  C68      1.0000 0.37490  0.72508  0.87970  Biso   1.000  C
  H37      1.0000 0.94960  0.75860  0.44920  Biso   1.000  H
  H38      1.0000 0.55040  0.25860  0.05080  Biso   1.000  H
  H39      1.0000 0.05040  0.24140  0.55080  Biso   1.000  H
  H40      1.0000 0.44960  0.74140  0.94920  Biso   1.000  H
  C69      1.0000 0.75330  0.75065  0.36910  Biso   1.000  C
  C70      1.0000 0.74670  0.25065  0.13090  Biso   1.000  C
  C71      1.0000 0.24670  0.24935  0.63090  Biso   1.000  C
  C72      1.0000 0.25330  0.74935  0.86910  Biso   1.000  C
  C73      1.0000 0.64280  0.77716  0.26500  Biso   1.000  C
  C74      1.0000 0.85720  0.27716  0.23500  Biso   1.000  C
  C75      1.0000 0.35720  0.22284  0.73500  Biso   1.000  C
  C76      1.0000 0.14280  0.72284  0.76500  Biso   1.000  C
  H41      1.0000 0.56050  0.76230  0.25700  Biso   1.000  H
  H42      1.0000 0.93950  0.26230  0.24300  Biso   1.000  H
  H43      1.0000 0.43950  0.23770  0.74300  Biso   1.000  H
  H44      1.0000 0.06050  0.73770  0.75700  Biso   1.000  H
  C77      1.0000 0.65400  0.82529  0.17340  Biso   1.000  C
  C78      1.0000 0.84600  0.32529  0.32660  Biso   1.000  C
  C79      1.0000 0.34600  0.17471  0.82660  Biso   1.000  C
  C80      1.0000 0.15400  0.67471  0.67340  Biso   1.000  C
  H45      1.0000 0.57930  0.84290  0.10470  Biso   1.000  H
  H46      1.0000 0.92070  0.34290  0.39530  Biso   1.000  H
  H47      1.0000 0.42070  0.15710  0.89530  Biso   1.000  H
  H48      1.0000 0.07930  0.65710  0.60470  Biso   1.000  H
  C81      1.0000 0.79130  0.89999  0.08520  Biso   1.000  C
  C82      1.0000 0.70870  0.39999  0.41480  Biso   1.000  C
  C83      1.0000 0.20870  0.10001  0.91480  Biso   1.000  C
  C84      1.0000 0.29130  0.60001  0.58520  Biso   1.000  C
  C85      1.0000 0.73940  0.69019  0.46180  Biso   1.000  C
  C86      1.0000 0.76060  0.19019  0.03820  Biso   1.000  C
  C87      1.0000 0.26060  0.30981  0.53820  Biso   1.000  C
  C88      1.0000 0.23940  0.80981  0.96180  Biso   1.000  C
  N1       1.0000 0.48810  0.99497  0.77892  Biso   1.000  N
  N2       1.0000 0.01190  0.49497  0.72108  Biso   1.000  N
  N3       1.0000 0.51190  0.00503  0.22108  Biso   1.000  N
  N4       1.0000 0.98810  0.50503  0.27892  Biso   1.000  N
  N5       1.0000 0.64852  0.08537  0.71919  Biso   1.000  N
  N6       1.0000 0.85148  0.58537  0.78081  Biso   1.000  N
  N7       1.0000 0.35148  0.91463  0.28081  Biso   1.000  N
  N8       1.0000 0.14852  0.41463  0.21919  Biso   1.000  N
  N9       1.0000 0.13150  0.05054  0.38320  Biso   1.000  N
  N10      1.0000 0.36850  0.55054  0.11680  Biso   1.000  N
  N11      1.0000 0.86850  0.94946  0.61680  Biso   1.000  N
  N12      1.0000 0.63150  0.44946  0.88320  Biso   1.000  N
  N13      1.0000 0.30210  0.14537  0.31626  Biso   1.000  N
  N14      1.0000 0.19790  0.64537  0.18374  Biso   1.000  N
  N15      1.0000 0.69790  0.85463  0.68374  Biso   1.000  N
  N16      1.0000 0.80210  0.35463  0.81626  Biso   1.000  N
  O1       1.0000 0.90110  0.90436  0.09010  Biso   1.000  O
  O2       1.0000 0.59890  0.40436  0.40990  Biso   1.000  O
  O3       1.0000 0.09890  0.09564  0.90990  Biso   1.000  O
  O4       1.0000 0.40110  0.59564  0.59010  Biso   1.000  O
  O5       1.0000 0.68903  0.93573  0.00319  Biso   1.000  O
  O6       1.0000 0.81097  0.43573  0.49681  Biso   1.000  O
  O7       1.0000 0.31097  0.06427  0.99681  Biso   1.000  O
  O8       1.0000 0.18903  0.56427  0.50319  Biso   1.000  O
  O9       1.0000 0.83773  0.64534  0.53011  Biso   1.000  O
  O10      1.0000 0.66227  0.14534  0.96989  Biso   1.000  O
  O11      1.0000 0.16227  0.35466  0.46989  Biso   1.000  O
  O12      1.0000 0.33773  0.85466  0.03011  Biso   1.000  O
  O13      1.0000 0.62954  0.68583  0.46045  Biso   1.000  O
  O14      1.0000 0.87046  0.18583  0.03955  Biso   1.000  O
  O15      1.0000 0.37046  0.31417  0.53955  Biso   1.000  O
  O16      1.0000 0.12954  0.81417  0.96045  Biso   1.000  O
  O17      1.0000 0.86423  0.03377  0.93876  Biso   1.000  O
  O18      1.0000 0.63577  0.53377  0.56124  Biso   1.000  O
  O19      1.0000 0.13577  0.96623  0.06124  Biso   1.000  O
  O20      1.0000 0.36423  0.46623  0.43876  Biso   1.000  O
  H49      1.0000 0.90350  0.07780  0.98400  Biso   1.000  H
  H50      1.0000 0.59650  0.57780  0.51600  Biso   1.000  H
  H51      1.0000 0.09650  0.92220  0.01600  Biso   1.000  H
  H52      1.0000 0.40350  0.42220  0.48400  Biso   1.000  H
  H53      1.0000 0.90700  0.99510  0.92050  Biso   1.000  H
  H54      1.0000 0.59300  0.49510  0.57950  Biso   1.000  H
  H55      1.0000 0.09300  0.00490  0.07950  Biso   1.000  H
  H56      1.0000 0.40700  0.50490  0.42050  Biso   1.000  H
