data_image0
_cell_length_a       5.8014
_cell_length_b       20.224
_cell_length_c       17.9295
_cell_angle_alpha    90
_cell_angle_beta     93.394
_cell_angle_gamma    90

_symmetry_space_group_name_H-M    "P 1"
_symmetry_int_tables_number       1

loop_
  _symmetry_equiv_pos_as_xyz
  'x, y, z'

loop_
  _atom_site_label
  _atom_site_occupancy
  _atom_site_fract_x
  _atom_site_fract_y
  _atom_site_fract_z
  _atom_site_thermal_displace_type
  _atom_site_B_iso_or_equiv
  _atom_site_type_symbol
  C1       1.0000 0.97870  0.04452  0.22689  Biso   1.000  C
  C2       1.0000 0.02130  0.54452  0.27311  Biso   1.000  C
  C3       1.0000 0.02130  0.95548  0.77311  Biso   1.000  C
  C4       1.0000 0.97870  0.45548  0.72689  Biso   1.000  C
  C5       1.0000 0.18040  0.28053  0.28091  Biso   1.000  C
  C6       1.0000 0.81960  0.78053  0.21909  Biso   1.000  C
  C7       1.0000 0.81960  0.71947  0.71909  Biso   1.000  C
  C8       1.0000 0.18040  0.21947  0.78091  Biso   1.000  C
  C9       1.0000 0.24480  0.20887  0.28573  Biso   1.000  C
  C10      1.0000 0.75520  0.70887  0.21427  Biso   1.000  C
  C11      1.0000 0.75520  0.79113  0.71427  Biso   1.000  C
  C12      1.0000 0.24480  0.29113  0.78573  Biso   1.000  C
  C13      1.0000 0.09160  0.16142  0.25545  Biso   1.000  C
  C14      1.0000 0.90840  0.66142  0.24455  Biso   1.000  C
  C15      1.0000 0.90840  0.83858  0.74455  Biso   1.000  C
  C16      1.0000 0.09160  0.33858  0.75545  Biso   1.000  C
  H1       1.0000 0.95330  0.17460  0.23100  Biso   1.000  H
  H2       1.0000 0.04670  0.67460  0.26900  Biso   1.000  H
  H3       1.0000 0.04670  0.82540  0.76900  Biso   1.000  H
  H4       1.0000 0.95330  0.32540  0.73100  Biso   1.000  H
  C17      1.0000 0.14480  0.09452  0.26174  Biso   1.000  C
  C18      1.0000 0.85520  0.59452  0.23826  Biso   1.000  C
  C19      1.0000 0.85520  0.90548  0.73826  Biso   1.000  C
  C20      1.0000 0.14480  0.40548  0.76174  Biso   1.000  C
  C21      1.0000 0.34820  0.07525  0.30024  Biso   1.000  C
  C22      1.0000 0.65180  0.57525  0.19976  Biso   1.000  C
  C23      1.0000 0.65180  0.92475  0.69976  Biso   1.000  C
  C24      1.0000 0.34820  0.42475  0.80024  Biso   1.000  C
  H5       1.0000 0.38140  0.03050  0.30610  Biso   1.000  H
  H6       1.0000 0.61860  0.53050  0.19390  Biso   1.000  H
  H7       1.0000 0.61860  0.96950  0.69390  Biso   1.000  H
  H8       1.0000 0.38140  0.46950  0.80610  Biso   1.000  H
  C25      1.0000 0.50210  0.12175  0.32999  Biso   1.000  C
  C26      1.0000 0.49790  0.62175  0.17001  Biso   1.000  C
  C27      1.0000 0.49790  0.87825  0.67001  Biso   1.000  C
  C28      1.0000 0.50210  0.37825  0.82999  Biso   1.000  C
  H9       1.0000 0.63840  0.10830  0.35540  Biso   1.000  H
  H10      1.0000 0.36160  0.60830  0.14460  Biso   1.000  H
  H11      1.0000 0.36160  0.89170  0.64460  Biso   1.000  H
  H12      1.0000 0.63840  0.39170  0.85540  Biso   1.000  H
  C29      1.0000 0.45270  0.18845  0.32185  Biso   1.000  C
  C30      1.0000 0.54730  0.68845  0.17815  Biso   1.000  C
  C31      1.0000 0.54730  0.81155  0.67815  Biso   1.000  C
  C32      1.0000 0.45270  0.31155  0.82185  Biso   1.000  C
  H13      1.0000 0.55840  0.21980  0.34050  Biso   1.000  H
  H14      1.0000 0.44160  0.71980  0.15950  Biso   1.000  H
  H15      1.0000 0.44160  0.78020  0.65950  Biso   1.000  H
  H16      1.0000 0.55840  0.28020  0.84050  Biso   1.000  H
  C33      1.0000 0.85100  0.36750  0.39937  Biso   1.000  C
  C34      1.0000 0.14900  0.86750  0.10063  Biso   1.000  C
  C35      1.0000 0.14900  0.63250  0.60063  Biso   1.000  C
  C36      1.0000 0.85100  0.13250  0.89937  Biso   1.000  C
  H17      1.0000 0.78160  0.34970  0.35580  Biso   1.000  H
  H18      1.0000 0.21840  0.84970  0.14420  Biso   1.000  H
  H19      1.0000 0.21840  0.65030  0.64420  Biso   1.000  H
  H20      1.0000 0.78160  0.15030  0.85580  Biso   1.000  H
  C37      1.0000 0.74800  0.35630  0.46657  Biso   1.000  C
  C38      1.0000 0.25200  0.85630  0.03343  Biso   1.000  C
  C39      1.0000 0.25200  0.64370  0.53343  Biso   1.000  C
  C40      1.0000 0.74800  0.14370  0.96657  Biso   1.000  C
  C41      1.0000 0.45110  0.28628  0.52107  Biso   1.000  C
  C42      1.0000 0.54890  0.78628  0.97893  Biso   1.000  C
  C43      1.0000 0.54890  0.71372  0.47893  Biso   1.000  C
  C44      1.0000 0.45110  0.21372  0.02107  Biso   1.000  C
  C45      1.0000 0.24350  0.24454  0.49793  Biso   1.000  C
  C46      1.0000 0.75650  0.74454  0.00207  Biso   1.000  C
  C47      1.0000 0.75650  0.75546  0.50207  Biso   1.000  C
  C48      1.0000 0.24350  0.25546  0.99793  Biso   1.000  C
  H21      1.0000 0.29410  0.20460  0.47380  Biso   1.000  H
  H22      1.0000 0.70590  0.70460  0.02620  Biso   1.000  H
  H23      1.0000 0.70590  0.79540  0.52620  Biso   1.000  H
  H24      1.0000 0.29410  0.29540  0.97380  Biso   1.000  H
  H25      1.0000 0.14460  0.26880  0.46200  Biso   1.000  H
  H26      1.0000 0.85540  0.76880  0.03800  Biso   1.000  H
  H27      1.0000 0.85540  0.73120  0.53800  Biso   1.000  H
  H28      1.0000 0.14460  0.23120  0.96200  Biso   1.000  H
  C49      1.0000 0.10670  0.22600  0.56450  Biso   1.000  C
  C50      1.0000 0.89330  0.72600  0.93550  Biso   1.000  C
  C51      1.0000 0.89330  0.77400  0.43550  Biso   1.000  C
  C52      1.0000 0.10670  0.27400  0.06450  Biso   1.000  C
  H29      1.0000 0.21080  0.20640  0.60260  Biso   1.000  H
  H30      1.0000 0.78920  0.70640  0.89740  Biso   1.000  H
  H31      1.0000 0.78920  0.79360  0.39740  Biso   1.000  H
  H32      1.0000 0.21080  0.29360  0.10260  Biso   1.000  H
  H33      1.0000 0.04350  0.26590  0.58520  Biso   1.000  H
  H34      1.0000 0.95650  0.76590  0.91480  Biso   1.000  H
  H35      1.0000 0.95650  0.73410  0.41480  Biso   1.000  H
  H36      1.0000 0.04350  0.23410  0.08520  Biso   1.000  H
  C53      1.0000 0.91250  0.17844  0.54578  Biso   1.000  C
  C54      1.0000 0.08750  0.67844  0.95422  Biso   1.000  C
  C55      1.0000 0.08750  0.82156  0.45422  Biso   1.000  C
  C56      1.0000 0.91250  0.32156  0.04578  Biso   1.000  C
  C57      1.0000 0.60800  0.11931  0.61109  Biso   1.000  C
  C58      1.0000 0.39200  0.61931  0.88891  Biso   1.000  C
  C59      1.0000 0.39200  0.88069  0.38891  Biso   1.000  C
  C60      1.0000 0.60800  0.38069  0.11109  Biso   1.000  C
  C61      1.0000 0.51010  0.11594  0.68007  Biso   1.000  C
  C62      1.0000 0.48990  0.61594  0.81993  Biso   1.000  C
  C63      1.0000 0.48990  0.88406  0.31993  Biso   1.000  C
  C64      1.0000 0.51010  0.38406  0.18007  Biso   1.000  C
  H37      1.0000 0.58390  0.13780  0.72040  Biso   1.000  H
  H38      1.0000 0.41610  0.63780  0.77960  Biso   1.000  H
  H39      1.0000 0.41610  0.86220  0.27960  Biso   1.000  H
  H40      1.0000 0.58390  0.36220  0.22040  Biso   1.000  H
  C65      1.0000 0.21210  0.05011  0.63313  Biso   1.000  C
  C66      1.0000 0.78790  0.55011  0.86687  Biso   1.000  C
  C67      1.0000 0.78790  0.94989  0.36687  Biso   1.000  C
  C68      1.0000 0.21210  0.44989  0.13313  Biso   1.000  C
  H41      1.0000 0.07740  0.02660  0.64010  Biso   1.000  H
  H42      1.0000 0.92260  0.52660  0.85990  Biso   1.000  H
  H43      1.0000 0.92260  0.97340  0.35990  Biso   1.000  H
  H44      1.0000 0.07740  0.47340  0.14010  Biso   1.000  H
  C69      1.0000 0.30050  0.05053  0.56379  Biso   1.000  C
  C70      1.0000 0.69950  0.55053  0.93621  Biso   1.000  C
  C71      1.0000 0.69950  0.94947  0.43621  Biso   1.000  C
  C72      1.0000 0.30050  0.44947  0.06379  Biso   1.000  C
  H45      1.0000 0.22530  0.02730  0.52480  Biso   1.000  H
  H46      1.0000 0.77470  0.52730  0.97520  Biso   1.000  H
  H47      1.0000 0.77470  0.97270  0.47520  Biso   1.000  H
  H48      1.0000 0.22530  0.47270  0.02480  Biso   1.000  H
  C73      1.0000 0.50000  0.08515  0.55123  Biso   1.000  C
  C74      1.0000 0.50000  0.58515  0.94877  Biso   1.000  C
  C75      1.0000 0.50000  0.91485  0.44877  Biso   1.000  C
  C76      1.0000 0.50000  0.41485  0.05123  Biso   1.000  C
  H49      1.0000 0.56030  0.08560  0.50430  Biso   1.000  H
  H50      1.0000 0.43970  0.58560  0.99570  Biso   1.000  H
  H51      1.0000 0.43970  0.91440  0.49570  Biso   1.000  H
  H52      1.0000 0.56030  0.41440  0.00430  Biso   1.000  H
  C77      1.0000 0.85170  0.38338  0.53146  Biso   1.000  C
  C78      1.0000 0.14830  0.88338  0.96854  Biso   1.000  C
  C79      1.0000 0.14830  0.61662  0.46854  Biso   1.000  C
  C80      1.0000 0.85170  0.11662  0.03146  Biso   1.000  C
  H53      1.0000 0.78670  0.37800  0.57720  Biso   1.000  H
  H54      1.0000 0.21330  0.87800  0.92280  Biso   1.000  H
  H55      1.0000 0.21330  0.62200  0.42280  Biso   1.000  H
  H56      1.0000 0.78670  0.12200  0.07720  Biso   1.000  H
  C81      1.0000 0.05440  0.41862  0.52598  Biso   1.000  C
  C82      1.0000 0.94560  0.91862  0.97402  Biso   1.000  C
  C83      1.0000 0.94560  0.58138  0.47402  Biso   1.000  C
  C84      1.0000 0.05440  0.08138  0.02598  Biso   1.000  C
  H57      1.0000 0.12890  0.43640  0.56880  Biso   1.000  H
  H58      1.0000 0.87110  0.93640  0.93120  Biso   1.000  H
  H59      1.0000 0.87110  0.56360  0.43120  Biso   1.000  H
  H60      1.0000 0.12890  0.06360  0.06880  Biso   1.000  H
  C85      1.0000 0.14680  0.42765  0.45766  Biso   1.000  C
  C86      1.0000 0.85320  0.92765  0.04234  Biso   1.000  C
  C87      1.0000 0.85320  0.57235  0.54234  Biso   1.000  C
  C88      1.0000 0.14680  0.07235  0.95766  Biso   1.000  C
  H61      1.0000 0.28290  0.45170  0.45520  Biso   1.000  H
  H62      1.0000 0.71710  0.95170  0.04480  Biso   1.000  H
  H63      1.0000 0.71710  0.54830  0.54480  Biso   1.000  H
  H64      1.0000 0.28290  0.04830  0.95520  Biso   1.000  H
  N1       1.0000 0.04520  0.40266  0.39467  Biso   1.000  N
  N2       1.0000 0.95480  0.90266  0.10533  Biso   1.000  N
  N3       1.0000 0.95480  0.59734  0.60533  Biso   1.000  N
  N4       1.0000 0.04520  0.09734  0.89467  Biso   1.000  N
  N5       1.0000 0.54550  0.31866  0.46307  Biso   1.000  N
  N6       1.0000 0.45450  0.81866  0.03693  Biso   1.000  N
  N7       1.0000 0.45450  0.68134  0.53693  Biso   1.000  N
  N8       1.0000 0.54550  0.18134  0.96307  Biso   1.000  N
  H65      1.0000 0.47260  0.31550  0.42000  Biso   1.000  H
  H66      1.0000 0.52740  0.81550  0.08000  Biso   1.000  H
  H67      1.0000 0.52740  0.68450  0.58000  Biso   1.000  H
  H68      1.0000 0.47260  0.18450  0.92000  Biso   1.000  H
  N9       1.0000 0.80680  0.15758  0.60788  Biso   1.000  N
  N10      1.0000 0.19320  0.65758  0.89212  Biso   1.000  N
  N11      1.0000 0.19320  0.84242  0.39212  Biso   1.000  N
  N12      1.0000 0.80680  0.34242  0.10788  Biso   1.000  N
  H69      1.0000 0.87110  0.16960  0.65020  Biso   1.000  H
  H70      1.0000 0.12890  0.66960  0.84980  Biso   1.000  H
  H71      1.0000 0.12890  0.83040  0.34980  Biso   1.000  H
  H72      1.0000 0.87110  0.33040  0.15020  Biso   1.000  H
  N13      1.0000 0.31500  0.08281  0.69125  Biso   1.000  N
  N14      1.0000 0.68500  0.58281  0.80875  Biso   1.000  N
  N15      1.0000 0.68500  0.91719  0.30875  Biso   1.000  N
  N16      1.0000 0.31500  0.41719  0.19125  Biso   1.000  N
  O1       1.0000 0.04080  0.98345  0.23183  Biso   1.000  O
  O2       1.0000 0.95920  0.48345  0.26817  Biso   1.000  O
  O3       1.0000 0.95920  0.01655  0.76817  Biso   1.000  O
  O4       1.0000 0.04080  0.51655  0.73183  Biso   1.000  O
  O5       1.0000 0.51230  0.47223  0.34526  Biso   1.000  O
  O6       1.0000 0.48770  0.97223  0.15474  Biso   1.000  O
  O7       1.0000 0.48770  0.52777  0.65474  Biso   1.000  O
  O8       1.0000 0.51230  0.02777  0.84526  Biso   1.000  O
  H73      1.0000 0.40200  0.49000  0.31880  Biso   1.000  H
  H74      1.0000 0.59800  0.99000  0.18120  Biso   1.000  H
  H75      1.0000 0.59800  0.51000  0.68120  Biso   1.000  H
  H76      1.0000 0.40200  0.01000  0.81880  Biso   1.000  H
  H77      1.0000 0.63420  0.47640  0.32190  Biso   1.000  H
  H78      1.0000 0.36580  0.97640  0.17810  Biso   1.000  H
  H79      1.0000 0.36580  0.52360  0.67810  Biso   1.000  H
  H80      1.0000 0.63420  0.02360  0.82190  Biso   1.000  H
  O9       1.0000 0.79610  0.06412  0.19613  Biso   1.000  O
  O10      1.0000 0.20390  0.56412  0.30387  Biso   1.000  O
  O11      1.0000 0.20390  0.93588  0.80387  Biso   1.000  O
  O12      1.0000 0.79610  0.43588  0.69613  Biso   1.000  O
  O13      1.0000 0.32400  0.32254  0.31152  Biso   1.000  O
  O14      1.0000 0.67600  0.82254  0.18848  Biso   1.000  O
  O15      1.0000 0.67600  0.67746  0.68848  Biso   1.000  O
  O16      1.0000 0.32400  0.17746  0.81152  Biso   1.000  O
  O17      1.0000 0.99390  0.29819  0.24947  Biso   1.000  O
  O18      1.0000 0.00610  0.79819  0.25053  Biso   1.000  O
  O19      1.0000 0.00610  0.70181  0.75053  Biso   1.000  O
  O20      1.0000 0.99390  0.20181  0.74947  Biso   1.000  O
  O21      1.0000 0.53150  0.28929  0.58502  Biso   1.000  O
  O22      1.0000 0.46850  0.78929  0.91498  Biso   1.000  O
  O23      1.0000 0.46850  0.71071  0.41498  Biso   1.000  O
  O24      1.0000 0.53150  0.21071  0.08502  Biso   1.000  O
  O25      1.0000 0.85540  0.16022  0.48320  Biso   1.000  O
  O26      1.0000 0.14460  0.66022  0.01680  Biso   1.000  O
  O27      1.0000 0.14460  0.83978  0.51680  Biso   1.000  O
  O28      1.0000 0.85540  0.33978  0.98320  Biso   1.000  O
  Cu1      1.0000 0.18101  0.41194  0.29432  Biso   1.000  Cu
  Cu2      1.0000 0.81899  0.91194  0.20568  Biso   1.000  Cu
  Cu3      1.0000 0.81899  0.58806  0.70568  Biso   1.000  Cu
  Cu4      1.0000 0.18101  0.08806  0.79432  Biso   1.000  Cu
