data_image0
_cell_length_a       10.1381
_cell_length_b       10.3036
_cell_length_c       12.7118
_cell_angle_alpha    80.201
_cell_angle_beta     71.42
_cell_angle_gamma    72.335

_symmetry_space_group_name_H-M    "P 1"
_symmetry_int_tables_number       1

loop_
  _symmetry_equiv_pos_as_xyz
  'x, y, z'

loop_
  _atom_site_label
  _atom_site_occupancy
  _atom_site_fract_x
  _atom_site_fract_y
  _atom_site_fract_z
  _atom_site_thermal_displace_type
  _atom_site_B_iso_or_equiv
  _atom_site_type_symbol
  C1       1.0000 0.32110  0.27310  0.41560  Biso   1.000  C
  C2       1.0000 0.67890  0.72690  0.58440  Biso   1.000  C
  C3       1.0000 0.81550  0.19140  0.46850  Biso   1.000  C
  C4       1.0000 0.18450  0.80860  0.53150  Biso   1.000  C
  C5       1.0000 0.68860  0.28390  0.42970  Biso   1.000  C
  C6       1.0000 0.31140  0.71610  0.57030  Biso   1.000  C
  C7       1.0000 0.57290  0.23330  0.43530  Biso   1.000  C
  C8       1.0000 0.42710  0.76670  0.56470  Biso   1.000  C
  H1       1.0000 0.57530  0.14260  0.46050  Biso   1.000  H
  H2       1.0000 0.42470  0.85740  0.53950  Biso   1.000  H
  C9       1.0000 0.45420  0.31880  0.40310  Biso   1.000  C
  C10      1.0000 0.54580  0.68120  0.59690  Biso   1.000  C
  C11      1.0000 0.45330  0.45300  0.36360  Biso   1.000  C
  C12      1.0000 0.54670  0.54700  0.63640  Biso   1.000  C
  H3       1.0000 0.37400  0.51020  0.34220  Biso   1.000  H
  H4       1.0000 0.62600  0.48980  0.65780  Biso   1.000  H
  C13      1.0000 0.56980  0.50370  0.35560  Biso   1.000  C
  C14      1.0000 0.43020  0.49630  0.64440  Biso   1.000  C
  C15      1.0000 0.55590  0.65020  0.31590  Biso   1.000  C
  C16      1.0000 0.44410  0.34980  0.68410  Biso   1.000  C
  C17      1.0000 0.68690  0.41900  0.39010  Biso   1.000  C
  C18      1.0000 0.31310  0.58100  0.60990  Biso   1.000  C
  H5       1.0000 0.76380  0.45240  0.38670  Biso   1.000  H
  H6       1.0000 0.23620  0.54760  0.61330  Biso   1.000  H
  C19      1.0000 0.23910  0.02130  0.25240  Biso   1.000  C
  C20      1.0000 0.76090  0.97870  0.74760  Biso   1.000  C
  H7       1.0000 0.28720  0.95450  0.29640  Biso   1.000  H
  H8       1.0000 0.71280  0.04550  0.70360  Biso   1.000  H
  C21      1.0000 0.26850  0.00040  0.14110  Biso   1.000  C
  C22      1.0000 0.73150  0.99960  0.85890  Biso   1.000  C
  C23      1.0000 0.43140  0.83520  0.00260  Biso   1.000  C
  C24      1.0000 0.56860  0.16480  0.99740  Biso   1.000  C
  C25      1.0000 0.54500  0.70000  0.00130  Biso   1.000  C
  C26      1.0000 0.45500  0.30000  0.99870  Biso   1.000  C
  H9       1.0000 0.50230  0.63460  0.05500  Biso   1.000  H
  H10      1.0000 0.49770  0.36540  0.94500  Biso   1.000  H
  H11      1.0000 0.62210  0.71220  0.02510  Biso   1.000  H
  H12      1.0000 0.37790  0.28780  0.97490  Biso   1.000  H
  C27      1.0000 0.60990  0.64080  0.88860  Biso   1.000  C
  C28      1.0000 0.39010  0.35920  0.11140  Biso   1.000  C
  H13      1.0000 0.53370  0.62730  0.86430  Biso   1.000  H
  H14      1.0000 0.46630  0.37270  0.13570  Biso   1.000  H
  H15      1.0000 0.65390  0.70510  0.83440  Biso   1.000  H
  H16      1.0000 0.34610  0.29490  0.16560  Biso   1.000  H
  C29      1.0000 0.72210  0.50620  0.89350  Biso   1.000  C
  C30      1.0000 0.27790  0.49380  0.10650  Biso   1.000  C
  C31      1.0000 0.91150  0.33750  0.76950  Biso   1.000  C
  C32      1.0000 0.08850  0.66250  0.23050  Biso   1.000  C
  C33      1.0000 0.96640  0.30950  0.65870  Biso   1.000  C
  C34      1.0000 0.03360  0.69050  0.34130  Biso   1.000  C
  H17      1.0000 0.93750  0.37640  0.60550  Biso   1.000  H
  H18      1.0000 0.06250  0.62360  0.39450  Biso   1.000  H
  C35      1.0000 0.10390  0.09560  0.70130  Biso   1.000  C
  C36      1.0000 0.89610  0.90440  0.29870  Biso   1.000  C
  H19      1.0000 0.16940  0.01310  0.67860  Biso   1.000  H
  H20      1.0000 0.83060  0.98690  0.32140  Biso   1.000  H
  C37      1.0000 0.05530  0.11720  0.81270  Biso   1.000  C
  C38      1.0000 0.94470  0.88280  0.18730  Biso   1.000  C
  H21      1.0000 0.08910  0.04990  0.86380  Biso   1.000  H
  H22      1.0000 0.91090  0.95010  0.13620  Biso   1.000  H
  C39      1.0000 0.95720  0.23740  0.84920  Biso   1.000  C
  C40      1.0000 0.04280  0.76260  0.15080  Biso   1.000  C
  H23      1.0000 0.92220  0.25170  0.92460  Biso   1.000  H
  H24      1.0000 0.07780  0.74830  0.07540  Biso   1.000  H
  C41      1.0000 0.19680  0.09980  0.07490  Biso   1.000  C
  C42      1.0000 0.80320  0.90020  0.92510  Biso   1.000  C
  H25      1.0000 0.21340  0.08910  0.00020  Biso   1.000  H
  H26      1.0000 0.78660  0.91090  0.99980  Biso   1.000  H
  C43      1.0000 0.10020  0.21480  0.12360  Biso   1.000  C
  C44      1.0000 0.89980  0.78520  0.87640  Biso   1.000  C
  H27      1.0000 0.05060  0.28310  0.08130  Biso   1.000  H
  H28      1.0000 0.94940  0.71690  0.91870  Biso   1.000  H
  C45      1.0000 0.07690  0.22880  0.23390  Biso   1.000  C
  C46      1.0000 0.92310  0.77120  0.76610  Biso   1.000  C
  H29      1.0000 0.01180  0.30740  0.26500  Biso   1.000  H
  H30      1.0000 0.98820  0.69260  0.73500  Biso   1.000  H
  N1       1.0000 0.14570  0.13220  0.29900  Biso   1.000  N
  N2       1.0000 0.85430  0.86780  0.70100  Biso   1.000  N
  N3       1.0000 0.37060  0.87840  0.10490  Biso   1.000  N
  N4       1.0000 0.62940  0.12160  0.89510  Biso   1.000  N
  H31      1.0000 0.39850  0.82240  0.15680  Biso   1.000  H
  H32      1.0000 0.60150  0.17760  0.84320  Biso   1.000  H
  N5       1.0000 0.81040  0.46490  0.79350  Biso   1.000  N
  N6       1.0000 0.18960  0.53510  0.20650  Biso   1.000  N
  H33      1.0000 0.80410  0.52380  0.73730  Biso   1.000  H
  H34      1.0000 0.19590  0.47620  0.26270  Biso   1.000  H
  N7       1.0000 0.05910  0.19050  0.62460  Biso   1.000  N
  N8       1.0000 0.94090  0.80950  0.37540  Biso   1.000  N
  O1       1.0000 0.20980  0.36130  0.40350  Biso   1.000  O
  O2       1.0000 0.79020  0.63870  0.59650  Biso   1.000  O
  O3       1.0000 0.32630  0.14740  0.43849  Biso   1.000  O
  O4       1.0000 0.67370  0.85260  0.56151  Biso   1.000  O
  O5       1.0000 0.91100  0.24950  0.46583  Biso   1.000  O
  O6       1.0000 0.08900  0.75050  0.53417  Biso   1.000  O
  O7       1.0000 0.66060  0.69950  0.31860  Biso   1.000  O
  O8       1.0000 0.33940  0.30050  0.68140  Biso   1.000  O
  O9       1.0000 0.45180  0.71950  0.28610  Biso   1.000  O
  O10      1.0000 0.54820  0.28050  0.71390  Biso   1.000  O
  O11      1.0000 0.81870  0.07090  0.49790  Biso   1.000  O
  O12      1.0000 0.18130  0.92910  0.50210  Biso   1.000  O
  O13      1.0000 0.39750  0.89850  0.92080  Biso   1.000  O
  O14      1.0000 0.60250  0.10150  0.07920  Biso   1.000  O
  O15      1.0000 0.72860  0.43940  0.98120  Biso   1.000  O
  O16      1.0000 0.27140  0.56060  0.01880  Biso   1.000  O
  Cu1      1.0000 0.11098  0.15538  0.46266  Biso   1.000  Cu
  Cu2      1.0000 0.88902  0.84462  0.53734  Biso   1.000  Cu
  O17      1.0000 0.42820  0.03020  0.70600  Biso   1.000  O
  O18      1.0000 0.57180  0.96980  0.29400  Biso   1.000  O
  H35      1.0000 0.49960  0.97370  0.66700  Biso   1.000  H
  H36      1.0000 0.50040  0.02630  0.33300  Biso   1.000  H
  H37      1.0000 0.41490  0.99830  0.77370  Biso   1.000  H
  H38      1.0000 0.58510  0.00170  0.22630  Biso   1.000  H
  O19      1.0000 0.87220  0.53400  0.11090  Biso   1.000  O
  O20      1.0000 0.12780  0.46600  0.88910  Biso   1.000  O
  H39      1.0000 0.82610  0.50300  0.07990  Biso   1.000  H
  H40      1.0000 0.17390  0.49700  0.92010  Biso   1.000  H
  H41      1.0000 0.81090  0.58940  0.15670  Biso   1.000  H
  H42      1.0000 0.18910  0.41060  0.84330  Biso   1.000  H
