data_image0
_cell_length_a       21.754
_cell_length_b       10.8312
_cell_length_c       9.4429
_cell_angle_alpha    90
_cell_angle_beta     90
_cell_angle_gamma    90

_symmetry_space_group_name_H-M    "P 1"
_symmetry_int_tables_number       1

loop_
  _symmetry_equiv_pos_as_xyz
  'x, y, z'

loop_
  _atom_site_label
  _atom_site_occupancy
  _atom_site_fract_x
  _atom_site_fract_y
  _atom_site_fract_z
  _atom_site_thermal_displace_type
  _atom_site_B_iso_or_equiv
  _atom_site_type_symbol
  C1       1.0000 0.15598  0.36164  0.92350  Biso   1.000  C
  C2       1.0000 0.34402  0.63836  0.92350  Biso   1.000  C
  C3       1.0000 0.15598  0.13836  0.57650  Biso   1.000  C
  C4       1.0000 0.34402  0.86164  0.57650  Biso   1.000  C
  C5       1.0000 0.84402  0.63836  0.07650  Biso   1.000  C
  C6       1.0000 0.65598  0.36164  0.07650  Biso   1.000  C
  C7       1.0000 0.84402  0.86164  0.42350  Biso   1.000  C
  C8       1.0000 0.65598  0.13836  0.42350  Biso   1.000  C
  C9       1.0000 0.20569  0.43148  0.00070  Biso   1.000  C
  C10      1.0000 0.29431  0.56852  0.00070  Biso   1.000  C
  C11      1.0000 0.20569  0.06852  0.49930  Biso   1.000  C
  C12      1.0000 0.29431  0.93148  0.49930  Biso   1.000  C
  C13      1.0000 0.79431  0.56852  0.99930  Biso   1.000  C
  C14      1.0000 0.70569  0.43148  0.99930  Biso   1.000  C
  C15      1.0000 0.79431  0.93148  0.50070  Biso   1.000  C
  C16      1.0000 0.70569  0.06852  0.50070  Biso   1.000  C
  C17      1.0000 0.20699  0.42854  0.14700  Biso   1.000  C
  C18      1.0000 0.29301  0.57146  0.14700  Biso   1.000  C
  C19      1.0000 0.20699  0.07146  0.35300  Biso   1.000  C
  C20      1.0000 0.29301  0.92854  0.35300  Biso   1.000  C
  C21      1.0000 0.79301  0.57146  0.85300  Biso   1.000  C
  C22      1.0000 0.70699  0.42854  0.85300  Biso   1.000  C
  C23      1.0000 0.79301  0.92854  0.64700  Biso   1.000  C
  C24      1.0000 0.70699  0.07146  0.64700  Biso   1.000  C
  H1       1.0000 0.17950  0.37950  0.19720  Biso   1.000  H
  H2       1.0000 0.32050  0.62050  0.19720  Biso   1.000  H
  H3       1.0000 0.17950  0.12050  0.30280  Biso   1.000  H
  H4       1.0000 0.32050  0.87950  0.30280  Biso   1.000  H
  H5       1.0000 0.82050  0.62050  0.80280  Biso   1.000  H
  H6       1.0000 0.67950  0.37950  0.80280  Biso   1.000  H
  H7       1.0000 0.82050  0.87950  0.69720  Biso   1.000  H
  H8       1.0000 0.67950  0.12050  0.69720  Biso   1.000  H
  C25      1.0000 0.25000  0.50000  0.21730  Biso   1.000  C
  C26      1.0000 0.25000  0.00000  0.28270  Biso   1.000  C
  C27      1.0000 0.75000  0.50000  0.78270  Biso   1.000  C
  C28      1.0000 0.75000  0.00000  0.71730  Biso   1.000  C
  C29      1.0000 0.25000  0.50000  0.92720  Biso   1.000  C
  C30      1.0000 0.25000  0.00000  0.57280  Biso   1.000  C
  C31      1.0000 0.75000  0.50000  0.07280  Biso   1.000  C
  C32      1.0000 0.75000  0.00000  0.42720  Biso   1.000  C
  H9       1.0000 0.25000  0.50000  0.82870  Biso   1.000  H
  H10      1.0000 0.25000  0.00000  0.67130  Biso   1.000  H
  H11      1.0000 0.75000  0.50000  0.17130  Biso   1.000  H
  H12      1.0000 0.75000  0.00000  0.32870  Biso   1.000  H
  C33      1.0000 0.98040  0.14783  0.88410  Biso   1.000  C
  C34      1.0000 0.51960  0.85217  0.88410  Biso   1.000  C
  C35      1.0000 0.98040  0.35217  0.61590  Biso   1.000  C
  C36      1.0000 0.51960  0.64783  0.61590  Biso   1.000  C
  C37      1.0000 0.01960  0.85217  0.11590  Biso   1.000  C
  C38      1.0000 0.48040  0.14783  0.11590  Biso   1.000  C
  C39      1.0000 0.01960  0.64783  0.38410  Biso   1.000  C
  C40      1.0000 0.48040  0.35217  0.38410  Biso   1.000  C
  H13      1.0000 0.98310  0.22270  0.93200  Biso   1.000  H
  H14      1.0000 0.51690  0.77730  0.93200  Biso   1.000  H
  H15      1.0000 0.98310  0.27730  0.56800  Biso   1.000  H
  H16      1.0000 0.51690  0.72270  0.56800  Biso   1.000  H
  H17      1.0000 0.01690  0.77730  0.06800  Biso   1.000  H
  H18      1.0000 0.48310  0.22270  0.06800  Biso   1.000  H
  H19      1.0000 0.01690  0.72270  0.43200  Biso   1.000  H
  H20      1.0000 0.48310  0.27730  0.43200  Biso   1.000  H
  C41      1.0000 0.93376  0.06531  0.92080  Biso   1.000  C
  C42      1.0000 0.56624  0.93469  0.92080  Biso   1.000  C
  C43      1.0000 0.93376  0.43469  0.57920  Biso   1.000  C
  C44      1.0000 0.56624  0.56531  0.57920  Biso   1.000  C
  C45      1.0000 0.06624  0.93469  0.07920  Biso   1.000  C
  C46      1.0000 0.43376  0.06531  0.07920  Biso   1.000  C
  C47      1.0000 0.06624  0.56531  0.42080  Biso   1.000  C
  C48      1.0000 0.43376  0.43469  0.42080  Biso   1.000  C
  C49      1.0000 0.87966  0.20010  0.09400  Biso   1.000  C
  C50      1.0000 0.62034  0.79990  0.09400  Biso   1.000  C
  C51      1.0000 0.87966  0.29990  0.40600  Biso   1.000  C
  C52      1.0000 0.62034  0.70010  0.40600  Biso   1.000  C
  C53      1.0000 0.12034  0.79990  0.90600  Biso   1.000  C
  C54      1.0000 0.37966  0.20010  0.90600  Biso   1.000  C
  C55      1.0000 0.12034  0.70010  0.59400  Biso   1.000  C
  C56      1.0000 0.37966  0.29990  0.59400  Biso   1.000  C
  C57      1.0000 0.82827  0.19510  0.20060  Biso   1.000  C
  C58      1.0000 0.67173  0.80490  0.20060  Biso   1.000  C
  C59      1.0000 0.82827  0.30490  0.29940  Biso   1.000  C
  C60      1.0000 0.67173  0.69510  0.29940  Biso   1.000  C
  C61      1.0000 0.17173  0.80490  0.79940  Biso   1.000  C
  C62      1.0000 0.32827  0.19510  0.79940  Biso   1.000  C
  C63      1.0000 0.17173  0.69510  0.70060  Biso   1.000  C
  C64      1.0000 0.32827  0.30490  0.70060  Biso   1.000  C
  H21      1.0000 0.83210  0.12010  0.25600  Biso   1.000  H
  H22      1.0000 0.66790  0.87990  0.25600  Biso   1.000  H
  H23      1.0000 0.83210  0.37990  0.24400  Biso   1.000  H
  H24      1.0000 0.66790  0.62010  0.24400  Biso   1.000  H
  H25      1.0000 0.16790  0.87990  0.74400  Biso   1.000  H
  H26      1.0000 0.33210  0.12010  0.74400  Biso   1.000  H
  H27      1.0000 0.16790  0.62010  0.75600  Biso   1.000  H
  H28      1.0000 0.33210  0.37990  0.75600  Biso   1.000  H
  H29      1.0000 0.78930  0.19190  0.15090  Biso   1.000  H
  H30      1.0000 0.71070  0.80810  0.15090  Biso   1.000  H
  H31      1.0000 0.78930  0.30810  0.34910  Biso   1.000  H
  H32      1.0000 0.71070  0.69190  0.34910  Biso   1.000  H
  H33      1.0000 0.21070  0.80810  0.84910  Biso   1.000  H
  H34      1.0000 0.28930  0.19190  0.84910  Biso   1.000  H
  H35      1.0000 0.21070  0.69190  0.65090  Biso   1.000  H
  H36      1.0000 0.28930  0.30810  0.65090  Biso   1.000  H
  C65      1.0000 0.93078  0.95312  0.84890  Biso   1.000  C
  C66      1.0000 0.56922  0.04688  0.84890  Biso   1.000  C
  C67      1.0000 0.93078  0.54688  0.65110  Biso   1.000  C
  C68      1.0000 0.56922  0.45312  0.65110  Biso   1.000  C
  C69      1.0000 0.06922  0.04688  0.15110  Biso   1.000  C
  C70      1.0000 0.43078  0.95312  0.15110  Biso   1.000  C
  C71      1.0000 0.06922  0.45312  0.34890  Biso   1.000  C
  C72      1.0000 0.43078  0.54688  0.34890  Biso   1.000  C
  H37      1.0000 0.90110  0.89490  0.87290  Biso   1.000  H
  H38      1.0000 0.59890  0.10510  0.87290  Biso   1.000  H
  H39      1.0000 0.90110  0.60510  0.62710  Biso   1.000  H
  H40      1.0000 0.59890  0.39490  0.62710  Biso   1.000  H
  H41      1.0000 0.09890  0.10510  0.12710  Biso   1.000  H
  H42      1.0000 0.40110  0.89490  0.12710  Biso   1.000  H
  H43      1.0000 0.09890  0.39490  0.37290  Biso   1.000  H
  H44      1.0000 0.40110  0.60510  0.37290  Biso   1.000  H
  C73      1.0000 0.97229  0.92907  0.74160  Biso   1.000  C
  C74      1.0000 0.52771  0.07093  0.74160  Biso   1.000  C
  C75      1.0000 0.97229  0.57093  0.75840  Biso   1.000  C
  C76      1.0000 0.52771  0.42907  0.75840  Biso   1.000  C
  C77      1.0000 0.02771  0.07093  0.25840  Biso   1.000  C
  C78      1.0000 0.47229  0.92907  0.25840  Biso   1.000  C
  C79      1.0000 0.02771  0.42907  0.24160  Biso   1.000  C
  C80      1.0000 0.47229  0.57093  0.24160  Biso   1.000  C
  H45      1.0000 0.97010  0.85570  0.69070  Biso   1.000  H
  H46      1.0000 0.52990  0.14430  0.69070  Biso   1.000  H
  H47      1.0000 0.97010  0.64430  0.80930  Biso   1.000  H
  H48      1.0000 0.52990  0.35570  0.80930  Biso   1.000  H
  H49      1.0000 0.02990  0.14430  0.30930  Biso   1.000  H
  H50      1.0000 0.47010  0.85570  0.30930  Biso   1.000  H
  H51      1.0000 0.02990  0.35570  0.19070  Biso   1.000  H
  H52      1.0000 0.47010  0.64430  0.19070  Biso   1.000  H
  C81      1.0000 0.01746  0.01589  0.71080  Biso   1.000  C
  C82      1.0000 0.48254  0.98411  0.71080  Biso   1.000  C
  C83      1.0000 0.01746  0.48411  0.78920  Biso   1.000  C
  C84      1.0000 0.48254  0.51589  0.78920  Biso   1.000  C
  C85      1.0000 0.98254  0.98411  0.28920  Biso   1.000  C
  C86      1.0000 0.51746  0.01589  0.28920  Biso   1.000  C
  C87      1.0000 0.98254  0.51589  0.21080  Biso   1.000  C
  C88      1.0000 0.51746  0.48411  0.21080  Biso   1.000  C
  H53      1.0000 0.04560  0.99960  0.63910  Biso   1.000  H
  H54      1.0000 0.45440  0.00040  0.63910  Biso   1.000  H
  H55      1.0000 0.04560  0.50040  0.86090  Biso   1.000  H
  H56      1.0000 0.45440  0.49960  0.86090  Biso   1.000  H
  H57      1.0000 0.95440  0.00040  0.36090  Biso   1.000  H
  H58      1.0000 0.54560  0.99960  0.36090  Biso   1.000  H
  H59      1.0000 0.95440  0.49960  0.13910  Biso   1.000  H
  H60      1.0000 0.54560  0.50040  0.13910  Biso   1.000  H
  N1       1.0000 0.25000  0.50000  0.37330  Biso   1.000  N
  N2       1.0000 0.25000  0.00000  0.12670  Biso   1.000  N
  N3       1.0000 0.75000  0.50000  0.62670  Biso   1.000  N
  N4       1.0000 0.75000  0.00000  0.87330  Biso   1.000  N
  N5       1.0000 0.02123  0.12267  0.78243  Biso   1.000  N
  N6       1.0000 0.47877  0.87733  0.78243  Biso   1.000  N
  N7       1.0000 0.02123  0.37733  0.71757  Biso   1.000  N
  N8       1.0000 0.47877  0.62267  0.71757  Biso   1.000  N
  N9       1.0000 0.97877  0.87733  0.21757  Biso   1.000  N
  N10      1.0000 0.52123  0.12267  0.21757  Biso   1.000  N
  N11      1.0000 0.97877  0.62267  0.28243  Biso   1.000  N
  N12      1.0000 0.52123  0.37733  0.28243  Biso   1.000  N
  N13      1.0000 0.89113  0.08981  0.02909  Biso   1.000  N
  N14      1.0000 0.60887  0.91019  0.02909  Biso   1.000  N
  N15      1.0000 0.89113  0.41019  0.47091  Biso   1.000  N
  N16      1.0000 0.60887  0.58981  0.47091  Biso   1.000  N
  N17      1.0000 0.10887  0.91019  0.97091  Biso   1.000  N
  N18      1.0000 0.39113  0.08981  0.97091  Biso   1.000  N
  N19      1.0000 0.10887  0.58981  0.52909  Biso   1.000  N
  N20      1.0000 0.39113  0.41019  0.52909  Biso   1.000  N
  H61      1.0000 0.86970  0.02800  0.05790  Biso   1.000  H
  H62      1.0000 0.63030  0.97200  0.05790  Biso   1.000  H
  H63      1.0000 0.86970  0.47200  0.44210  Biso   1.000  H
  H64      1.0000 0.63030  0.52800  0.44210  Biso   1.000  H
  H65      1.0000 0.13030  0.97200  0.94210  Biso   1.000  H
  H66      1.0000 0.36970  0.02800  0.94210  Biso   1.000  H
  H67      1.0000 0.13030  0.52800  0.55790  Biso   1.000  H
  H68      1.0000 0.36970  0.47200  0.55790  Biso   1.000  H
  O1       1.0000 0.12003  0.29549  0.99168  Biso   1.000  O
  O2       1.0000 0.37997  0.70451  0.99168  Biso   1.000  O
  O3       1.0000 0.12003  0.20451  0.50832  Biso   1.000  O
  O4       1.0000 0.37997  0.79549  0.50832  Biso   1.000  O
  O5       1.0000 0.87997  0.70451  0.00832  Biso   1.000  O
  O6       1.0000 0.62003  0.29549  0.00832  Biso   1.000  O
  O7       1.0000 0.87997  0.79549  0.49168  Biso   1.000  O
  O8       1.0000 0.62003  0.20451  0.49168  Biso   1.000  O
  O9       1.0000 0.15237  0.37516  0.78942  Biso   1.000  O
  O10      1.0000 0.34763  0.62484  0.78942  Biso   1.000  O
  O11      1.0000 0.15237  0.12484  0.71058  Biso   1.000  O
  O12      1.0000 0.34763  0.87516  0.71058  Biso   1.000  O
  O13      1.0000 0.84763  0.62484  0.21058  Biso   1.000  O
  O14      1.0000 0.65237  0.37516  0.21058  Biso   1.000  O
  O15      1.0000 0.84763  0.87516  0.28942  Biso   1.000  O
  O16      1.0000 0.65237  0.12484  0.28942  Biso   1.000  O
  O17      1.0000 0.22133  0.41935  0.43457  Biso   1.000  O
  O18      1.0000 0.27867  0.58065  0.43457  Biso   1.000  O
  O19      1.0000 0.22133  0.08065  0.06543  Biso   1.000  O
  O20      1.0000 0.27867  0.91935  0.06543  Biso   1.000  O
  O21      1.0000 0.77867  0.58065  0.56543  Biso   1.000  O
  O22      1.0000 0.72133  0.41935  0.56543  Biso   1.000  O
  O23      1.0000 0.77867  0.91935  0.93457  Biso   1.000  O
  O24      1.0000 0.72133  0.08065  0.93457  Biso   1.000  O
  O25      1.0000 0.90788  0.29327  0.06670  Biso   1.000  O
  O26      1.0000 0.59212  0.70673  0.06670  Biso   1.000  O
  O27      1.0000 0.90788  0.20673  0.43330  Biso   1.000  O
  O28      1.0000 0.59212  0.79327  0.43330  Biso   1.000  O
  O29      1.0000 0.09212  0.70673  0.93330  Biso   1.000  O
  O30      1.0000 0.40788  0.29327  0.93330  Biso   1.000  O
  O31      1.0000 0.09212  0.79327  0.56670  Biso   1.000  O
  O32      1.0000 0.40788  0.20673  0.56670  Biso   1.000  O
  Cu1      1.0000 0.08680  0.25000  0.75000  Biso   1.000  Cu
  Cu2      1.0000 0.41320  0.75000  0.75000  Biso   1.000  Cu
  Cu3      1.0000 0.91320  0.75000  0.25000  Biso   1.000  Cu
  Cu4      1.0000 0.58680  0.25000  0.25000  Biso   1.000  Cu
