data_image0
_cell_length_a       12.345
_cell_length_b       28.074
_cell_length_c       19.332
_cell_angle_alpha    90
_cell_angle_beta     96.639
_cell_angle_gamma    90

_symmetry_space_group_name_H-M    "P 1"
_symmetry_int_tables_number       1

loop_
  _symmetry_equiv_pos_as_xyz
  'x, y, z'

loop_
  _atom_site_label
  _atom_site_occupancy
  _atom_site_fract_x
  _atom_site_fract_y
  _atom_site_fract_z
  _atom_site_thermal_displace_type
  _atom_site_B_iso_or_equiv
  _atom_site_type_symbol
  Cu1      1.0000 0.77105  0.29081  0.05444  Biso   1.000  Cu
  Cu2      1.0000 0.22895  0.79081  0.44556  Biso   1.000  Cu
  Cu3      1.0000 0.22895  0.70919  0.94556  Biso   1.000  Cu
  Cu4      1.0000 0.77105  0.20919  0.55444  Biso   1.000  Cu
  O1       1.0000 0.59870  0.19185  0.97760  Biso   1.000  O
  O2       1.0000 0.40130  0.69185  0.52240  Biso   1.000  O
  O3       1.0000 0.40130  0.80815  0.02240  Biso   1.000  O
  O4       1.0000 0.59870  0.30815  0.47760  Biso   1.000  O
  O5       1.0000 0.95170  0.16432  0.14060  Biso   1.000  O
  O6       1.0000 0.04830  0.66432  0.35940  Biso   1.000  O
  O7       1.0000 0.04830  0.83568  0.85940  Biso   1.000  O
  O8       1.0000 0.95170  0.33568  0.64060  Biso   1.000  O
  H1       1.0000 0.95380  0.13580  0.15770  Biso   1.000  H
  H2       1.0000 0.04620  0.63580  0.34230  Biso   1.000  H
  H3       1.0000 0.04620  0.86420  0.84230  Biso   1.000  H
  H4       1.0000 0.95380  0.36420  0.65770  Biso   1.000  H
  H5       1.0000 0.99430  0.16310  0.10760  Biso   1.000  H
  H6       1.0000 0.00570  0.66310  0.39240  Biso   1.000  H
  H7       1.0000 0.00570  0.83690  0.89240  Biso   1.000  H
  H8       1.0000 0.99430  0.33690  0.60760  Biso   1.000  H
  N1       1.0000 0.80400  0.25040  0.86020  Biso   1.000  N
  N2       1.0000 0.19600  0.75040  0.63980  Biso   1.000  N
  N3       1.0000 0.19600  0.74960  0.13980  Biso   1.000  N
  N4       1.0000 0.80400  0.24960  0.36020  Biso   1.000  N
  C1       1.0000 0.38520  0.25460  0.71480  Biso   1.000  C
  C2       1.0000 0.61480  0.75460  0.78520  Biso   1.000  C
  C3       1.0000 0.61480  0.74540  0.28520  Biso   1.000  C
  C4       1.0000 0.38520  0.24540  0.21480  Biso   1.000  C
  Cu5      1.0000 0.71243  0.22078  0.92815  Biso   1.000  Cu
  Cu6      1.0000 0.28757  0.72078  0.57185  Biso   1.000  Cu
  Cu7      1.0000 0.28757  0.77922  0.07185  Biso   1.000  Cu
  Cu8      1.0000 0.71243  0.27922  0.42815  Biso   1.000  Cu
  O9       1.0000 0.69490  0.11699  0.12180  Biso   1.000  O
  O10      1.0000 0.30510  0.61699  0.37820  Biso   1.000  O
  O11      1.0000 0.30510  0.88301  0.87820  Biso   1.000  O
  O12      1.0000 0.69490  0.38301  0.62180  Biso   1.000  O
  N5       1.0000 0.79610  0.29880  0.84600  Biso   1.000  N
  N6       1.0000 0.20390  0.79880  0.65400  Biso   1.000  N
  N7       1.0000 0.20390  0.70120  0.15400  Biso   1.000  N
  N8       1.0000 0.79610  0.20120  0.34600  Biso   1.000  N
  C5       1.0000 0.29840  0.24560  0.76180  Biso   1.000  C
  C6       1.0000 0.70160  0.74560  0.73820  Biso   1.000  C
  C7       1.0000 0.70160  0.75440  0.23820  Biso   1.000  C
  C8       1.0000 0.29840  0.25440  0.26180  Biso   1.000  C
  H9       1.0000 0.29950  0.21220  0.77490  Biso   1.000  H
  H10      1.0000 0.70050  0.71220  0.72510  Biso   1.000  H
  H11      1.0000 0.70050  0.78780  0.22510  Biso   1.000  H
  H12      1.0000 0.29950  0.28780  0.27490  Biso   1.000  H
  H13      1.0000 0.31390  0.26430  0.80400  Biso   1.000  H
  H14      1.0000 0.68610  0.76430  0.69600  Biso   1.000  H
  H15      1.0000 0.68610  0.73570  0.19600  Biso   1.000  H
  H16      1.0000 0.31390  0.23570  0.30400  Biso   1.000  H
  Cu9      1.0000 0.75641  0.17116  0.07890  Biso   1.000  Cu
  Cu10     1.0000 0.24359  0.67116  0.42110  Biso   1.000  Cu
  Cu11     1.0000 0.24359  0.82884  0.92110  Biso   1.000  Cu
  Cu12     1.0000 0.75641  0.32884  0.57890  Biso   1.000  Cu
  O13      1.0000 0.81280  0.22612  0.03560  Biso   1.000  O
  O14      1.0000 0.18720  0.72612  0.46440  Biso   1.000  O
  O15      1.0000 0.18720  0.77388  0.96440  Biso   1.000  O
  O16      1.0000 0.81280  0.27388  0.53560  Biso   1.000  O
  H17      1.0000 0.89120  0.22340  0.03250  Biso   1.000  H
  H18      1.0000 0.10880  0.72340  0.46750  Biso   1.000  H
  H19      1.0000 0.10880  0.77660  0.96750  Biso   1.000  H
  H20      1.0000 0.89120  0.27660  0.53250  Biso   1.000  H
  N9       1.0000 0.67550  0.23667  0.62180  Biso   1.000  N
  N10      1.0000 0.32450  0.73667  0.87820  Biso   1.000  N
  N11      1.0000 0.32450  0.76333  0.37820  Biso   1.000  N
  N12      1.0000 0.67550  0.26333  0.12180  Biso   1.000  N
  C9       1.0000 0.18760  0.25830  0.72680  Biso   1.000  C
  C10      1.0000 0.81240  0.75830  0.77320  Biso   1.000  C
  C11      1.0000 0.81240  0.74170  0.27320  Biso   1.000  C
  C12      1.0000 0.18760  0.24170  0.22680  Biso   1.000  C
  H21      1.0000 0.16590  0.23500  0.69080  Biso   1.000  H
  H22      1.0000 0.83410  0.73500  0.80920  Biso   1.000  H
  H23      1.0000 0.83410  0.76500  0.30920  Biso   1.000  H
  H24      1.0000 0.16590  0.26500  0.19080  Biso   1.000  H
  H25      1.0000 0.19120  0.28910  0.70450  Biso   1.000  H
  H26      1.0000 0.80880  0.78910  0.79550  Biso   1.000  H
  H27      1.0000 0.80880  0.71090  0.29550  Biso   1.000  H
  H28      1.0000 0.19120  0.21090  0.20450  Biso   1.000  H
  Cu13     1.0000 0.71418  0.34192  0.90400  Biso   1.000  Cu
  Cu14     1.0000 0.28582  0.84192  0.59600  Biso   1.000  Cu
  Cu15     1.0000 0.28582  0.65808  0.09600  Biso   1.000  Cu
  Cu16     1.0000 0.71418  0.15808  0.40400  Biso   1.000  Cu
  O17      1.0000 0.66570  0.28481  0.94780  Biso   1.000  O
  O18      1.0000 0.33430  0.78481  0.55220  Biso   1.000  O
  O19      1.0000 0.33430  0.71519  0.05220  Biso   1.000  O
  O20      1.0000 0.66570  0.21519  0.44780  Biso   1.000  O
  H29      1.0000 0.58760  0.28600  0.95260  Biso   1.000  H
  H30      1.0000 0.41240  0.78600  0.54740  Biso   1.000  H
  H31      1.0000 0.41240  0.71400  0.04740  Biso   1.000  H
  H32      1.0000 0.58760  0.21400  0.45260  Biso   1.000  H
  O21      1.0000 0.55520  0.34500  0.82800  Biso   1.000  O
  O22      1.0000 0.44480  0.84500  0.67200  Biso   1.000  O
  O23      1.0000 0.44480  0.65500  0.17200  Biso   1.000  O
  O24      1.0000 0.55520  0.15500  0.32800  Biso   1.000  O
  H33      1.0000 0.54150  0.36740  0.79870  Biso   1.000  H
  H34      1.0000 0.45850  0.86740  0.70130  Biso   1.000  H
  H35      1.0000 0.45850  0.63260  0.20130  Biso   1.000  H
  H36      1.0000 0.54150  0.13260  0.29870  Biso   1.000  H
  H37      1.0000 0.49820  0.32800  0.82740  Biso   1.000  H
  H38      1.0000 0.50180  0.82800  0.67260  Biso   1.000  H
  H39      1.0000 0.50180  0.67200  0.17260  Biso   1.000  H
  H40      1.0000 0.49820  0.17200  0.32740  Biso   1.000  H
  N13      1.0000 0.68140  0.28414  0.64010  Biso   1.000  N
  N14      1.0000 0.31860  0.78414  0.85990  Biso   1.000  N
  N15      1.0000 0.31860  0.71586  0.35990  Biso   1.000  N
  N16      1.0000 0.68140  0.21586  0.14010  Biso   1.000  N
  C13      1.0000 0.10280  0.26000  0.77640  Biso   1.000  C
  C14      1.0000 0.89720  0.76000  0.72360  Biso   1.000  C
  C15      1.0000 0.89720  0.74000  0.22360  Biso   1.000  C
  C16      1.0000 0.10280  0.24000  0.27640  Biso   1.000  C
  O25      1.0000 0.67230  0.38647  0.97470  Biso   1.000  O
  O26      1.0000 0.32770  0.88647  0.52530  Biso   1.000  O
  O27      1.0000 0.32770  0.61353  0.02530  Biso   1.000  O
  O28      1.0000 0.67230  0.11353  0.47470  Biso   1.000  O
  N17      1.0000 0.57100  0.24880  0.70300  Biso   1.000  N
  N18      1.0000 0.42900  0.74880  0.79700  Biso   1.000  N
  N19      1.0000 0.42900  0.75120  0.29700  Biso   1.000  N
  N20      1.0000 0.57100  0.25120  0.20300  Biso   1.000  N
  C17      1.0000 0.60760  0.21650  0.65910  Biso   1.000  C
  C18      1.0000 0.39240  0.71650  0.84090  Biso   1.000  C
  C19      1.0000 0.39240  0.78350  0.34090  Biso   1.000  C
  C20      1.0000 0.60760  0.28350  0.15910  Biso   1.000  C
  H41      1.0000 0.58710  0.18460  0.65610  Biso   1.000  H
  H42      1.0000 0.41290  0.68460  0.84390  Biso   1.000  H
  H43      1.0000 0.41290  0.81540  0.34390  Biso   1.000  H
  H44      1.0000 0.58710  0.31540  0.15610  Biso   1.000  H
  N21      1.0000 0.48730  0.24180  0.74360  Biso   1.000  N
  N22      1.0000 0.51270  0.74180  0.75640  Biso   1.000  N
  N23      1.0000 0.51270  0.75820  0.25640  Biso   1.000  N
  N24      1.0000 0.48730  0.25820  0.24360  Biso   1.000  N
  H45      1.0000 0.49890  0.23000  0.78490  Biso   1.000  H
  H46      1.0000 0.50110  0.73000  0.71510  Biso   1.000  H
  H47      1.0000 0.50110  0.77000  0.21510  Biso   1.000  H
  H48      1.0000 0.49890  0.27000  0.28490  Biso   1.000  H
  C21      1.0000 0.61740  0.29080  0.68740  Biso   1.000  C
  C22      1.0000 0.38260  0.79080  0.81260  Biso   1.000  C
  C23      1.0000 0.38260  0.70920  0.31260  Biso   1.000  C
  C24      1.0000 0.61740  0.20920  0.18740  Biso   1.000  C
  H49      1.0000 0.60480  0.32000  0.70790  Biso   1.000  H
  H50      1.0000 0.39520  0.82000  0.79210  Biso   1.000  H
  H51      1.0000 0.39520  0.68000  0.29210  Biso   1.000  H
  H52      1.0000 0.60480  0.18000  0.20790  Biso   1.000  H
  O29      1.0000 0.71750  0.35276  0.07990  Biso   1.000  O
  O30      1.0000 0.28250  0.85276  0.42010  Biso   1.000  O
  O31      1.0000 0.28250  0.64724  0.92010  Biso   1.000  O
  O32      1.0000 0.71750  0.14724  0.57990  Biso   1.000  O
  N25      1.0000 0.99960  0.26440  0.74490  Biso   1.000  N
  N26      1.0000 0.00040  0.76440  0.75510  Biso   1.000  N
  N27      1.0000 0.00040  0.73560  0.25510  Biso   1.000  N
  N28      1.0000 0.99960  0.23560  0.24490  Biso   1.000  N
  H53      1.0000 0.98620  0.26430  0.70020  Biso   1.000  H
  H54      1.0000 0.01380  0.76430  0.79980  Biso   1.000  H
  H55      1.0000 0.01380  0.73570  0.29980  Biso   1.000  H
  H56      1.0000 0.98620  0.23570  0.20020  Biso   1.000  H
  O33      1.0000 0.88520  0.31678  0.00370  Biso   1.000  O
  O34      1.0000 0.11480  0.81678  0.49630  Biso   1.000  O
  O35      1.0000 0.11480  0.68322  0.99630  Biso   1.000  O
  O36      1.0000 0.88520  0.18322  0.50370  Biso   1.000  O
  N29      1.0000 0.91610  0.26900  0.78630  Biso   1.000  N
  N30      1.0000 0.08390  0.76900  0.71370  Biso   1.000  N
  N31      1.0000 0.08390  0.73100  0.21370  Biso   1.000  N
  N32      1.0000 0.91610  0.23100  0.28630  Biso   1.000  N
  C25      1.0000 0.87780  0.23340  0.82360  Biso   1.000  C
  C26      1.0000 0.12220  0.73340  0.67640  Biso   1.000  C
  C27      1.0000 0.12220  0.76660  0.17640  Biso   1.000  C
  C28      1.0000 0.87780  0.26660  0.32360  Biso   1.000  C
  H57      1.0000 0.90040  0.20190  0.82330  Biso   1.000  H
  H58      1.0000 0.09960  0.70190  0.67670  Biso   1.000  H
  H59      1.0000 0.09960  0.79810  0.17670  Biso   1.000  H
  H60      1.0000 0.90040  0.29810  0.32330  Biso   1.000  H
  O37      1.0000 0.48780  0.19759  0.87840  Biso   1.000  O
  O38      1.0000 0.51220  0.69759  0.62160  Biso   1.000  O
  O39      1.0000 0.51220  0.80241  0.12160  Biso   1.000  O
  O40      1.0000 0.48780  0.30241  0.37840  Biso   1.000  O
  N33      1.0000 0.60670  0.47470  0.25100  Biso   1.000  N
  N34      1.0000 0.39330  0.97470  0.24900  Biso   1.000  N
  N35      1.0000 0.39330  0.52530  0.74900  Biso   1.000  N
  N36      1.0000 0.60670  0.02530  0.75100  Biso   1.000  N
  C29      1.0000 0.80280  0.12550  0.94670  Biso   1.000  C
  C30      1.0000 0.19720  0.62550  0.55330  Biso   1.000  C
  C31      1.0000 0.19720  0.87450  0.05330  Biso   1.000  C
  C32      1.0000 0.80280  0.37450  0.44670  Biso   1.000  C
  O41      1.0000 0.85050  0.08740  0.17480  Biso   1.000  O
  O42      1.0000 0.14950  0.58740  0.32520  Biso   1.000  O
  O43      1.0000 0.14950  0.91260  0.82520  Biso   1.000  O
  O44      1.0000 0.85050  0.41260  0.67480  Biso   1.000  O
  N37      1.0000 0.68920  0.60920  0.83800  Biso   1.000  N
  N38      1.0000 0.31080  0.10920  0.66200  Biso   1.000  N
  N39      1.0000 0.31080  0.39080  0.16200  Biso   1.000  N
  N40      1.0000 0.68920  0.89080  0.33800  Biso   1.000  N
  C33      1.0000 0.84900  0.03930  0.95670  Biso   1.000  C
  C34      1.0000 0.15100  0.53930  0.54330  Biso   1.000  C
  C35      1.0000 0.15100  0.96070  0.04330  Biso   1.000  C
  C36      1.0000 0.84900  0.46070  0.45670  Biso   1.000  C
  H61      1.0000 0.83380  0.04000  0.00270  Biso   1.000  H
  H62      1.0000 0.16620  0.54000  0.49730  Biso   1.000  H
  H63      1.0000 0.16620  0.96000  0.99730  Biso   1.000  H
  H64      1.0000 0.83380  0.46000  0.50270  Biso   1.000  H
  O45      1.0000 0.80790  0.12651  0.01130  Biso   1.000  O
  O46      1.0000 0.19210  0.62651  0.48870  Biso   1.000  O
  O47      1.0000 0.19210  0.87349  0.98870  Biso   1.000  O
  O48      1.0000 0.80790  0.37349  0.51130  Biso   1.000  O
  N41      1.0000 0.03520  0.53470  0.93180  Biso   1.000  N
  N42      1.0000 0.96480  0.03470  0.56820  Biso   1.000  N
  N43      1.0000 0.96480  0.46530  0.06820  Biso   1.000  N
  N44      1.0000 0.03520  0.96530  0.43180  Biso   1.000  N
  C37      1.0000 0.71960  0.43330  0.84270  Biso   1.000  C
  C38      1.0000 0.28040  0.93330  0.65730  Biso   1.000  C
  C39      1.0000 0.28040  0.56670  0.15730  Biso   1.000  C
  C40      1.0000 0.71960  0.06670  0.34270  Biso   1.000  C
  O49      1.0000 0.77250  0.15896  0.90490  Biso   1.000  O
  O50      1.0000 0.22750  0.65896  0.59510  Biso   1.000  O
  O51      1.0000 0.22750  0.84104  0.09510  Biso   1.000  O
  O52      1.0000 0.77250  0.34104  0.40490  Biso   1.000  O
  N45      1.0000 0.60270  0.55940  0.03060  Biso   1.000  N
  N46      1.0000 0.39730  0.05940  0.46940  Biso   1.000  N
  N47      1.0000 0.39730  0.44060  0.96940  Biso   1.000  N
  N48      1.0000 0.60270  0.94060  0.53060  Biso   1.000  N
  O53      1.0000 0.77800  0.39709  0.86310  Biso   1.000  O
  O54      1.0000 0.22200  0.89709  0.63690  Biso   1.000  O
  O55      1.0000 0.22200  0.60291  0.13690  Biso   1.000  O
  O56      1.0000 0.77800  0.10291  0.36310  Biso   1.000  O
  N49      1.0000 0.37110  0.12050  0.15370  Biso   1.000  N
  N50      1.0000 0.62890  0.62050  0.34630  Biso   1.000  N
  N51      1.0000 0.62890  0.87950  0.84630  Biso   1.000  N
  N52      1.0000 0.37110  0.37950  0.65370  Biso   1.000  N
  C41      1.0000 0.89340  0.03480  0.82110  Biso   1.000  C
  C42      1.0000 0.10660  0.53480  0.67890  Biso   1.000  C
  C43      1.0000 0.10660  0.96520  0.17890  Biso   1.000  C
  C44      1.0000 0.89340  0.46520  0.32110  Biso   1.000  C
  O57      1.0000 0.62450  0.43238  0.81570  Biso   1.000  O
  O58      1.0000 0.37550  0.93238  0.68430  Biso   1.000  O
  O59      1.0000 0.37550  0.56762  0.18430  Biso   1.000  O
  O60      1.0000 0.62450  0.06762  0.31570  Biso   1.000  O
  N53      1.0000 0.10840  0.17730  0.96500  Biso   1.000  N
  N54      1.0000 0.89160  0.67730  0.53500  Biso   1.000  N
  N55      1.0000 0.89160  0.82270  0.03500  Biso   1.000  N
  N56      1.0000 0.10840  0.32270  0.46500  Biso   1.000  N
  C45      1.0000 0.90610  0.99460  0.85940  Biso   1.000  C
  C46      1.0000 0.09390  0.49460  0.64060  Biso   1.000  C
  C47      1.0000 0.09390  0.00540  0.14060  Biso   1.000  C
  C48      1.0000 0.90610  0.50540  0.35940  Biso   1.000  C
  H65      1.0000 0.92880  0.96620  0.84080  Biso   1.000  H
  H66      1.0000 0.07120  0.46620  0.65920  Biso   1.000  H
  H67      1.0000 0.07120  0.03380  0.15920  Biso   1.000  H
  H68      1.0000 0.92880  0.53380  0.34080  Biso   1.000  H
  O61      1.0000 0.00800  0.29490  0.09140  Biso   1.000  O
  O62      1.0000 0.99200  0.79490  0.40860  Biso   1.000  O
  O63      1.0000 0.99200  0.70510  0.90860  Biso   1.000  O
  O64      1.0000 0.00800  0.20510  0.59140  Biso   1.000  O
  N57      1.0000 0.79180  0.90980  0.18930  Biso   1.000  N
  N58      1.0000 0.20820  0.40980  0.31070  Biso   1.000  N
  N59      1.0000 0.20820  0.09020  0.81070  Biso   1.000  N
  N60      1.0000 0.79180  0.59020  0.68930  Biso   1.000  N
  O65      1.0000 0.88080  0.06430  0.70910  Biso   1.000  O
  O66      1.0000 0.11920  0.56430  0.79090  Biso   1.000  O
  O67      1.0000 0.11920  0.93570  0.29090  Biso   1.000  O
  O68      1.0000 0.88080  0.43570  0.20910  Biso   1.000  O
  N61      1.0000 0.45050  0.97280  0.06920  Biso   1.000  N
  N62      1.0000 0.54950  0.47280  0.43080  Biso   1.000  N
  N63      1.0000 0.54950  0.02720  0.93080  Biso   1.000  N
  N64      1.0000 0.45050  0.52720  0.56920  Biso   1.000  N
  C49      1.0000 0.68480  0.38660  0.03940  Biso   1.000  C
  C50      1.0000 0.31520  0.88660  0.46060  Biso   1.000  C
  C51      1.0000 0.31520  0.61340  0.96060  Biso   1.000  C
  C52      1.0000 0.68480  0.11340  0.53940  Biso   1.000  C
  O69      1.0000 0.97170  0.99980  0.73070  Biso   1.000  O
  O70      1.0000 0.02830  0.49980  0.76930  Biso   1.000  O
  O71      1.0000 0.02830  0.00020  0.26930  Biso   1.000  O
  O72      1.0000 0.97170  0.50020  0.23070  Biso   1.000  O
  N65      1.0000 0.36880  0.30320  0.98220  Biso   1.000  N
  N66      1.0000 0.63120  0.80320  0.51780  Biso   1.000  N
  N67      1.0000 0.63120  0.69680  0.01780  Biso   1.000  N
  N68      1.0000 0.36880  0.19680  0.48220  Biso   1.000  N
  O73      1.0000 0.86260  0.95480  0.02700  Biso   1.000  O
  O74      1.0000 0.13740  0.45480  0.47300  Biso   1.000  O
  O75      1.0000 0.13740  0.04520  0.97300  Biso   1.000  O
  O76      1.0000 0.86260  0.54520  0.52700  Biso   1.000  O
  N69      1.0000 0.10840  0.39630  0.82930  Biso   1.000  N
  N70      1.0000 0.89160  0.89630  0.67070  Biso   1.000  N
  N71      1.0000 0.89160  0.60370  0.17070  Biso   1.000  N
  N72      1.0000 0.10840  0.10370  0.32930  Biso   1.000  N
  O77      1.0000 0.42510  0.29915  0.93430  Biso   1.000  O
  O78      1.0000 0.57490  0.79915  0.56570  Biso   1.000  O
  O79      1.0000 0.57490  0.70085  0.06570  Biso   1.000  O
  O80      1.0000 0.42510  0.20085  0.43430  Biso   1.000  O
  N73      1.0000 0.89640  0.95420  0.97090  Biso   1.000  N
  N74      1.0000 0.10360  0.45420  0.52910  Biso   1.000  N
  N75      1.0000 0.10360  0.04580  0.02910  Biso   1.000  N
  N76      1.0000 0.89640  0.54580  0.47090  Biso   1.000  N
  C53      1.0000 0.64450  0.43210  0.14480  Biso   1.000  C
  C54      1.0000 0.35550  0.93210  0.35520  Biso   1.000  C
  C55      1.0000 0.35550  0.56790  0.85520  Biso   1.000  C
  C56      1.0000 0.64450  0.06790  0.64480  Biso   1.000  C
  H69      1.0000 0.65420  0.40430  0.17100  Biso   1.000  H
  H70      1.0000 0.34580  0.90430  0.32900  Biso   1.000  H
  H71      1.0000 0.34580  0.59570  0.82900  Biso   1.000  H
  H72      1.0000 0.65420  0.09570  0.67100  Biso   1.000  H
  O81      1.0000 0.88770  0.91630  0.20910  Biso   1.000  O
  O82      1.0000 0.11230  0.41630  0.29090  Biso   1.000  O
  O83      1.0000 0.11230  0.08370  0.79090  Biso   1.000  O
  O84      1.0000 0.88770  0.58370  0.70910  Biso   1.000  O
  N77      1.0000 0.91570  0.03300  0.74810  Biso   1.000  N
  N78      1.0000 0.08430  0.53300  0.75190  Biso   1.000  N
  N79      1.0000 0.08430  0.96700  0.25190  Biso   1.000  N
  N80      1.0000 0.91570  0.46700  0.24810  Biso   1.000  N
  O85      1.0000 0.74670  0.87110  0.19160  Biso   1.000  O
  O86      1.0000 0.25330  0.37110  0.30840  Biso   1.000  O
  O87      1.0000 0.25330  0.12890  0.80840  Biso   1.000  O
  O88      1.0000 0.74670  0.62890  0.69160  Biso   1.000  O
  C57      1.0000 0.60230  0.51580  0.14080  Biso   1.000  C
  C58      1.0000 0.39770  0.01580  0.35920  Biso   1.000  C
  C59      1.0000 0.39770  0.48420  0.85920  Biso   1.000  C
  C60      1.0000 0.60230  0.98420  0.64080  Biso   1.000  C
  H73      1.0000 0.58340  0.54360  0.16280  Biso   1.000  H
  H74      1.0000 0.41660  0.04360  0.33720  Biso   1.000  H
  H75      1.0000 0.41660  0.45640  0.83720  Biso   1.000  H
  H76      1.0000 0.58340  0.95640  0.66280  Biso   1.000  H
  O89      1.0000 0.39520  0.00760  0.05240  Biso   1.000  O
  O90      1.0000 0.60480  0.50760  0.44760  Biso   1.000  O
  O91      1.0000 0.60480  0.99240  0.94760  Biso   1.000  O
  O92      1.0000 0.39520  0.49240  0.55240  Biso   1.000  O
  C61      1.0000 0.61620  0.51500  0.07110  Biso   1.000  C
  C62      1.0000 0.38380  0.01500  0.42890  Biso   1.000  C
  C63      1.0000 0.38380  0.48500  0.92890  Biso   1.000  C
  C64      1.0000 0.61620  0.98500  0.57110  Biso   1.000  C
  O93      1.0000 0.42050  0.93190  0.05660  Biso   1.000  O
  O94      1.0000 0.57950  0.43190  0.44340  Biso   1.000  O
  O95      1.0000 0.57950  0.06810  0.94340  Biso   1.000  O
  O96      1.0000 0.42050  0.56810  0.55660  Biso   1.000  O
  C65      1.0000 0.77290  0.48110  0.85470  Biso   1.000  C
  C66      1.0000 0.22710  0.98110  0.64530  Biso   1.000  C
  C67      1.0000 0.22710  0.51890  0.14530  Biso   1.000  C
  C68      1.0000 0.77290  0.01890  0.35470  Biso   1.000  C
  C69      1.0000 0.71100  0.52170  0.83820  Biso   1.000  C
  C70      1.0000 0.28900  0.02170  0.66180  Biso   1.000  C
  C71      1.0000 0.28900  0.47830  0.16180  Biso   1.000  C
  C72      1.0000 0.71100  0.97830  0.33820  Biso   1.000  C
  H77      1.0000 0.63920  0.51910  0.81770  Biso   1.000  H
  H78      1.0000 0.36080  0.01910  0.68230  Biso   1.000  H
  H79      1.0000 0.36080  0.48090  0.18230  Biso   1.000  H
  H80      1.0000 0.63920  0.98090  0.31770  Biso   1.000  H
  O97      1.0000 0.29370  0.11370  0.18490  Biso   1.000  O
  O98      1.0000 0.70630  0.61370  0.31510  Biso   1.000  O
  O99      1.0000 0.70630  0.88630  0.81510  Biso   1.000  O
  O100     1.0000 0.29370  0.38630  0.68490  Biso   1.000  O
  C73      1.0000 0.75730  0.56580  0.85270  Biso   1.000  C
  C74      1.0000 0.24270  0.06580  0.64730  Biso   1.000  C
  C75      1.0000 0.24270  0.43420  0.14730  Biso   1.000  C
  C76      1.0000 0.75730  0.93420  0.35270  Biso   1.000  C
  O101     1.0000 0.04620  0.19150  0.00440  Biso   1.000  O
  O102     1.0000 0.95380  0.69150  0.49560  Biso   1.000  O
  O103     1.0000 0.95380  0.80850  0.99560  Biso   1.000  O
  O104     1.0000 0.04620  0.30850  0.50440  Biso   1.000  O
  C77      1.0000 0.87840  0.48530  0.88500  Biso   1.000  C
  C78      1.0000 0.12160  0.98530  0.61500  Biso   1.000  C
  C79      1.0000 0.12160  0.51470  0.11500  Biso   1.000  C
  C80      1.0000 0.87840  0.01470  0.38500  Biso   1.000  C
  H81      1.0000 0.92040  0.45830  0.89630  Biso   1.000  H
  H82      1.0000 0.07960  0.95830  0.60370  Biso   1.000  H
  H83      1.0000 0.07960  0.54170  0.10370  Biso   1.000  H
  H84      1.0000 0.92040  0.04170  0.39630  Biso   1.000  H
  O105     1.0000 0.12000  0.25610  0.83850  Biso   1.000  O
  O106     1.0000 0.88000  0.75610  0.66150  Biso   1.000  O
  O107     1.0000 0.88000  0.74390  0.16150  Biso   1.000  O
  O108     1.0000 0.12000  0.24390  0.33850  Biso   1.000  O
  C81      1.0000 0.92170  0.53030  0.89870  Biso   1.000  C
  C82      1.0000 0.07830  0.03030  0.60130  Biso   1.000  C
  C83      1.0000 0.07830  0.46970  0.10130  Biso   1.000  C
  C84      1.0000 0.92170  0.96970  0.39870  Biso   1.000  C
  O109     1.0000 0.37020  0.27160  0.65850  Biso   1.000  O
  O110     1.0000 0.62980  0.77160  0.84150  Biso   1.000  O
  O111     1.0000 0.62980  0.72840  0.34150  Biso   1.000  O
  O112     1.0000 0.37020  0.22840  0.15850  Biso   1.000  O
  C85      1.0000 0.86310  0.57070  0.88290  Biso   1.000  C
  C86      1.0000 0.13690  0.07070  0.61710  Biso   1.000  C
  C87      1.0000 0.13690  0.42930  0.11710  Biso   1.000  C
  C88      1.0000 0.86310  0.92930  0.38290  Biso   1.000  C
  H85      1.0000 0.89350  0.60070  0.89230  Biso   1.000  H
  H86      1.0000 0.10650  0.10070  0.60770  Biso   1.000  H
  H87      1.0000 0.10650  0.39930  0.10770  Biso   1.000  H
  H88      1.0000 0.89350  0.89930  0.39230  Biso   1.000  H
  O113     1.0000 0.61390  0.43800  0.28220  Biso   1.000  O
  O114     1.0000 0.38610  0.93800  0.21780  Biso   1.000  O
  O115     1.0000 0.38610  0.56200  0.71780  Biso   1.000  O
  O116     1.0000 0.61390  0.06200  0.78220  Biso   1.000  O
  C89      1.0000 0.75690  0.08370  0.14830  Biso   1.000  C
  C90      1.0000 0.24310  0.58370  0.35170  Biso   1.000  C
  C91      1.0000 0.24310  0.91630  0.85170  Biso   1.000  C
  C92      1.0000 0.75690  0.41630  0.64830  Biso   1.000  C
  O117     1.0000 0.58990  0.51050  0.27870  Biso   1.000  O
  O118     1.0000 0.41010  0.01050  0.22130  Biso   1.000  O
  O119     1.0000 0.41010  0.48950  0.72130  Biso   1.000  O
  O120     1.0000 0.58990  0.98950  0.77870  Biso   1.000  O
  C93      1.0000 0.70700  0.03470  0.14340  Biso   1.000  C
  C94      1.0000 0.29300  0.53470  0.35660  Biso   1.000  C
  C95      1.0000 0.29300  0.96530  0.85660  Biso   1.000  C
  C96      1.0000 0.70700  0.46530  0.64340  Biso   1.000  C
  O121     1.0000 0.56510  0.59380  0.05860  Biso   1.000  O
  O122     1.0000 0.43490  0.09380  0.44140  Biso   1.000  O
  O123     1.0000 0.43490  0.40620  0.94140  Biso   1.000  O
  O124     1.0000 0.56510  0.90620  0.55860  Biso   1.000  O
  C97      1.0000 0.60170  0.02680  0.11090  Biso   1.000  C
  C98      1.0000 0.39830  0.52680  0.38910  Biso   1.000  C
  C99      1.0000 0.39830  0.97320  0.88910  Biso   1.000  C
  C100     1.0000 0.60170  0.47320  0.61090  Biso   1.000  C
  H89      1.0000 0.55910  0.05220  0.09280  Biso   1.000  H
  H90      1.0000 0.44090  0.55220  0.40720  Biso   1.000  H
  H91      1.0000 0.44090  0.94780  0.90720  Biso   1.000  H
  H92      1.0000 0.55910  0.44780  0.59280  Biso   1.000  H
  C101     1.0000 0.56110  0.98060  0.10580  Biso   1.000  C
  C102     1.0000 0.43890  0.48060  0.39420  Biso   1.000  C
  C103     1.0000 0.43890  0.01940  0.89420  Biso   1.000  C
  C104     1.0000 0.56110  0.51940  0.60580  Biso   1.000  C
  O125     1.0000 0.59440  0.60340  0.81260  Biso   1.000  O
  O126     1.0000 0.40560  0.10340  0.68740  Biso   1.000  O
  O127     1.0000 0.40560  0.39660  0.18740  Biso   1.000  O
  O128     1.0000 0.59440  0.89660  0.31260  Biso   1.000  O
  C105     1.0000 0.62110  0.94180  0.13100  Biso   1.000  C
  C106     1.0000 0.37890  0.44180  0.36900  Biso   1.000  C
  C107     1.0000 0.37890  0.05820  0.86900  Biso   1.000  C
  C108     1.0000 0.62110  0.55820  0.63100  Biso   1.000  C
  H93      1.0000 0.59320  0.91100  0.12710  Biso   1.000  H
  H94      1.0000 0.40680  0.41100  0.37290  Biso   1.000  H
  H95      1.0000 0.40680  0.08900  0.87290  Biso   1.000  H
  H96      1.0000 0.59320  0.58900  0.62710  Biso   1.000  H
  O129     1.0000 0.73120  0.64790  0.85060  Biso   1.000  O
  O130     1.0000 0.26880  0.14790  0.64940  Biso   1.000  O
  O131     1.0000 0.26880  0.35210  0.14940  Biso   1.000  O
  O132     1.0000 0.73120  0.85210  0.35060  Biso   1.000  O
  C109     1.0000 0.72390  0.95090  0.16200  Biso   1.000  C
  C110     1.0000 0.27610  0.45090  0.33800  Biso   1.000  C
  C111     1.0000 0.27610  0.04910  0.83800  Biso   1.000  C
  C112     1.0000 0.72390  0.54910  0.66200  Biso   1.000  C
  O133     1.0000 0.06980  0.57440  0.94950  Biso   1.000  O
  O134     1.0000 0.93020  0.07440  0.55050  Biso   1.000  O
  O135     1.0000 0.93020  0.42560  0.05050  Biso   1.000  O
  O136     1.0000 0.06980  0.92560  0.44950  Biso   1.000  O
  C113     1.0000 0.76800  0.99600  0.16890  Biso   1.000  C
  C114     1.0000 0.23200  0.49600  0.33110  Biso   1.000  C
  C115     1.0000 0.23200  0.00400  0.83110  Biso   1.000  C
  C116     1.0000 0.76800  0.50400  0.66890  Biso   1.000  C
  H97      1.0000 0.83850  0.00030  0.19080  Biso   1.000  H
  H98      1.0000 0.16150  0.50030  0.30920  Biso   1.000  H
  H99      1.0000 0.16150  0.99970  0.80920  Biso   1.000  H
  H100     1.0000 0.83850  0.49970  0.69080  Biso   1.000  H
  O137     1.0000 0.08900  0.49840  0.94180  Biso   1.000  O
  O138     1.0000 0.91100  0.99840  0.55820  Biso   1.000  O
  O139     1.0000 0.91100  0.50160  0.05820  Biso   1.000  O
  O140     1.0000 0.08900  0.00160  0.44180  Biso   1.000  O
  C117     1.0000 0.30590  0.17940  0.95250  Biso   1.000  C
  C118     1.0000 0.69410  0.67940  0.54750  Biso   1.000  C
  C119     1.0000 0.69410  0.82060  0.04750  Biso   1.000  C
  C120     1.0000 0.30590  0.32060  0.45250  Biso   1.000  C
  H101     1.0000 0.29040  0.19170  0.90780  Biso   1.000  H
  H102     1.0000 0.70960  0.69170  0.59220  Biso   1.000  H
  H103     1.0000 0.70960  0.80830  0.09220  Biso   1.000  H
  H104     1.0000 0.29040  0.30830  0.40780  Biso   1.000  H
  O141     1.0000 0.01580  0.40000  0.80260  Biso   1.000  O
  O142     1.0000 0.98420  0.90000  0.69740  Biso   1.000  O
  O143     1.0000 0.98420  0.60000  0.19740  Biso   1.000  O
  O144     1.0000 0.01580  0.10000  0.30260  Biso   1.000  O
  C121     1.0000 0.41300  0.17130  0.98060  Biso   1.000  C
  C122     1.0000 0.58700  0.67130  0.51940  Biso   1.000  C
  C123     1.0000 0.58700  0.82870  0.01940  Biso   1.000  C
  C124     1.0000 0.41300  0.32870  0.48060  Biso   1.000  C
  O145     1.0000 0.18490  0.41720  0.80910  Biso   1.000  O
  O146     1.0000 0.81510  0.91720  0.69090  Biso   1.000  O
  O147     1.0000 0.81510  0.58280  0.19090  Biso   1.000  O
  O148     1.0000 0.18490  0.08280  0.30910  Biso   1.000  O
  C125     1.0000 0.22290  0.16910  0.99210  Biso   1.000  C
  C126     1.0000 0.77710  0.66910  0.50790  Biso   1.000  C
  C127     1.0000 0.77710  0.83090  0.00790  Biso   1.000  C
  C128     1.0000 0.22290  0.33090  0.49210  Biso   1.000  C
  O149     1.0000 0.39710  0.29230  0.04080  Biso   1.000  O
  O150     1.0000 0.60290  0.79230  0.45920  Biso   1.000  O
  O151     1.0000 0.60290  0.70770  0.95920  Biso   1.000  O
  O152     1.0000 0.39710  0.20770  0.54080  Biso   1.000  O
  C129     1.0000 0.24210  0.15080  0.05820  Biso   1.000  C
  C130     1.0000 0.75790  0.65080  0.44180  Biso   1.000  C
  C131     1.0000 0.75790  0.84920  0.94180  Biso   1.000  C
  C132     1.0000 0.24210  0.34920  0.55820  Biso   1.000  C
  H105     1.0000 0.18540  0.14550  0.08500  Biso   1.000  H
  H106     1.0000 0.81460  0.64550  0.41500  Biso   1.000  H
  H107     1.0000 0.81460  0.85450  0.91500  Biso   1.000  H
  H108     1.0000 0.18540  0.35450  0.58500  Biso   1.000  H
  O153     1.0000 0.62620  0.56020  0.97230  Biso   1.000  O
  O154     1.0000 0.37380  0.06020  0.52770  Biso   1.000  O
  O155     1.0000 0.37380  0.43980  0.02770  Biso   1.000  O
  O156     1.0000 0.62620  0.93980  0.47230  Biso   1.000  O
  C133     1.0000 0.34770  0.14080  0.08300  Biso   1.000  C
  C134     1.0000 0.65230  0.64080  0.41700  Biso   1.000  C
  C135     1.0000 0.65230  0.85920  0.91700  Biso   1.000  C
  C136     1.0000 0.34770  0.35920  0.58300  Biso   1.000  C
  O157     1.0000 0.08070  0.16610  0.90430  Biso   1.000  O
  O158     1.0000 0.91930  0.66610  0.59570  Biso   1.000  O
  O159     1.0000 0.91930  0.83390  0.09570  Biso   1.000  O
  O160     1.0000 0.08070  0.33390  0.40430  Biso   1.000  O
  C137     1.0000 0.43320  0.15160  0.04560  Biso   1.000  C
  C138     1.0000 0.56680  0.65160  0.45440  Biso   1.000  C
  C139     1.0000 0.56680  0.84840  0.95440  Biso   1.000  C
  C140     1.0000 0.43320  0.34840  0.54560  Biso   1.000  C
  H109     1.0000 0.50450  0.14560  0.06460  Biso   1.000  H
  H110     1.0000 0.49550  0.64560  0.43540  Biso   1.000  H
  H111     1.0000 0.49550  0.85440  0.93540  Biso   1.000  H
  H112     1.0000 0.50450  0.35440  0.56460  Biso   1.000  H
  C141     1.0000 0.23580  0.34910  0.90690  Biso   1.000  C
  C142     1.0000 0.76420  0.84910  0.59310  Biso   1.000  C
  C143     1.0000 0.76420  0.65090  0.09310  Biso   1.000  C
  C144     1.0000 0.23580  0.15090  0.40690  Biso   1.000  C
  H113     1.0000 0.29000  0.35590  0.87880  Biso   1.000  H
  H114     1.0000 0.71000  0.85590  0.62120  Biso   1.000  H
  H115     1.0000 0.71000  0.64410  0.12120  Biso   1.000  H
  H116     1.0000 0.29000  0.14410  0.37880  Biso   1.000  H
  O161     1.0000 0.94260  0.91984  0.94900  Biso   1.000  O
  O162     1.0000 0.05740  0.41984  0.55100  Biso   1.000  O
  O163     1.0000 0.05740  0.08016  0.05100  Biso   1.000  O
  O164     1.0000 0.94260  0.58016  0.44900  Biso   1.000  O
  C145     1.0000 0.25610  0.32140  0.96510  Biso   1.000  C
  C146     1.0000 0.74390  0.82140  0.53490  Biso   1.000  C
  C147     1.0000 0.74390  0.67860  0.03490  Biso   1.000  C
  C148     1.0000 0.25610  0.17860  0.46510  Biso   1.000  C
  C149     1.0000 0.17700  0.30980  0.00790  Biso   1.000  C
  C150     1.0000 0.82300  0.80980  0.49210  Biso   1.000  C
  C151     1.0000 0.82300  0.69020  0.99210  Biso   1.000  C
  C152     1.0000 0.17700  0.19020  0.50790  Biso   1.000  C
  H117     1.0000 0.19440  0.29150  0.04770  Biso   1.000  H
  H118     1.0000 0.80560  0.79150  0.45230  Biso   1.000  H
  H119     1.0000 0.80560  0.70850  0.95230  Biso   1.000  H
  H120     1.0000 0.19440  0.20850  0.54770  Biso   1.000  H
  C153     1.0000 0.07260  0.32610  0.99000  Biso   1.000  C
  C154     1.0000 0.92740  0.82610  0.51000  Biso   1.000  C
  C155     1.0000 0.92740  0.67390  0.01000  Biso   1.000  C
  C156     1.0000 0.07260  0.17390  0.49000  Biso   1.000  C
  C157     1.0000 0.13110  0.36660  0.89160  Biso   1.000  C
  C158     1.0000 0.86890  0.86660  0.60840  Biso   1.000  C
  C159     1.0000 0.86890  0.63340  0.10840  Biso   1.000  C
  C160     1.0000 0.13110  0.13340  0.39160  Biso   1.000  C
  C161     1.0000 0.86440  0.30870  0.80180  Biso   1.000  C
  C162     1.0000 0.13560  0.80870  0.69820  Biso   1.000  C
  C163     1.0000 0.13560  0.69130  0.19820  Biso   1.000  C
  C164     1.0000 0.86440  0.19130  0.30180  Biso   1.000  C
  H121     1.0000 0.87550  0.33880  0.78370  Biso   1.000  H
  H122     1.0000 0.12450  0.83880  0.71630  Biso   1.000  H
  H123     1.0000 0.12450  0.66120  0.21630  Biso   1.000  H
  H124     1.0000 0.87550  0.16120  0.28370  Biso   1.000  H
  C165     1.0000 0.83780  0.07980  0.91530  Biso   1.000  C
  C166     1.0000 0.16220  0.57980  0.58470  Biso   1.000  C
  C167     1.0000 0.16220  0.92020  0.08470  Biso   1.000  C
  C168     1.0000 0.83780  0.42020  0.41530  Biso   1.000  C
  C169     1.0000 0.88370  0.99770  0.92700  Biso   1.000  C
  C170     1.0000 0.11630  0.49770  0.57300  Biso   1.000  C
  C171     1.0000 0.11630  0.00230  0.07300  Biso   1.000  C
  C172     1.0000 0.88370  0.50230  0.42700  Biso   1.000  C
  C173     1.0000 0.85870  0.07740  0.84680  Biso   1.000  C
  C174     1.0000 0.14130  0.57740  0.65320  Biso   1.000  C
  C175     1.0000 0.14130  0.92260  0.15320  Biso   1.000  C
  C176     1.0000 0.85870  0.42260  0.34680  Biso   1.000  C
  H125     1.0000 0.84940  0.10410  0.81820  Biso   1.000  H
  H126     1.0000 0.15060  0.60410  0.68180  Biso   1.000  H
  H127     1.0000 0.15060  0.89590  0.18180  Biso   1.000  H
  H128     1.0000 0.84940  0.39590  0.31820  Biso   1.000  H
  C177     1.0000 0.64430  0.47410  0.03830  Biso   1.000  C
  C178     1.0000 0.35570  0.97410  0.46170  Biso   1.000  C
  C179     1.0000 0.35570  0.52590  0.96170  Biso   1.000  C
  C180     1.0000 0.64430  0.02590  0.53830  Biso   1.000  C
  H129     1.0000 0.65500  0.47500  0.99140  Biso   1.000  H
  H130     1.0000 0.34500  0.97500  0.50860  Biso   1.000  H
  H131     1.0000 0.34500  0.52500  0.00860  Biso   1.000  H
  H132     1.0000 0.65500  0.02500  0.49140  Biso   1.000  H
  C181     1.0000 0.65690  0.43150  0.07510  Biso   1.000  C
  C182     1.0000 0.34310  0.93150  0.42490  Biso   1.000  C
  C183     1.0000 0.34310  0.56850  0.92490  Biso   1.000  C
  C184     1.0000 0.65690  0.06850  0.57510  Biso   1.000  C
  C185     1.0000 0.61800  0.47370  0.17570  Biso   1.000  C
  C186     1.0000 0.38200  0.97370  0.32430  Biso   1.000  C
  C187     1.0000 0.38200  0.52630  0.82430  Biso   1.000  C
  C188     1.0000 0.61800  0.02630  0.67570  Biso   1.000  C
  C189     1.0000 0.04830  0.35490  0.93150  Biso   1.000  C
  C190     1.0000 0.95170  0.85490  0.56850  Biso   1.000  C
  C191     1.0000 0.95170  0.64510  0.06850  Biso   1.000  C
  C192     1.0000 0.04830  0.14510  0.43150  Biso   1.000  C
  H133     1.0000 0.97770  0.36610  0.91940  Biso   1.000  H
  H134     1.0000 0.02230  0.86610  0.58060  Biso   1.000  H
  H135     1.0000 0.02230  0.63390  0.08060  Biso   1.000  H
  H136     1.0000 0.97770  0.13390  0.41940  Biso   1.000  H
  C193     1.0000 0.98150  0.31220  0.03290  Biso   1.000  C
  C194     1.0000 0.01850  0.81220  0.46710  Biso   1.000  C
  C195     1.0000 0.01850  0.68780  0.96710  Biso   1.000  C
  C196     1.0000 0.98150  0.18780  0.53290  Biso   1.000  C
  C197     1.0000 0.50580  0.18780  0.94090  Biso   1.000  C
  C198     1.0000 0.49420  0.68780  0.55910  Biso   1.000  C
  C199     1.0000 0.49420  0.81220  0.05910  Biso   1.000  C
  C200     1.0000 0.50580  0.31220  0.44090  Biso   1.000  C
  O165     1.0000 0.46420  0.11320  0.17760  Biso   1.000  O
  O166     1.0000 0.53580  0.61320  0.32240  Biso   1.000  O
  O167     1.0000 0.53580  0.88680  0.82240  Biso   1.000  O
  O168     1.0000 0.46420  0.38680  0.67760  Biso   1.000  O
  O169     1.0000 0.90320  0.16870  0.70710  Biso   1.000  O
  O170     1.0000 0.09680  0.66870  0.79290  Biso   1.000  O
  O171     1.0000 0.09680  0.83130  0.29290  Biso   1.000  O
  O172     1.0000 0.90320  0.33130  0.20710  Biso   1.000  O
  H137     1.0000 0.84120  0.15930  0.68250  Biso   1.000  H
  H138     1.0000 0.15880  0.65930  0.81750  Biso   1.000  H
  H139     1.0000 0.15880  0.84070  0.31750  Biso   1.000  H
  H140     1.0000 0.84120  0.34070  0.18250  Biso   1.000  H
  H141     1.0000 0.94910  0.16850  0.67720  Biso   1.000  H
  H142     1.0000 0.05090  0.66850  0.82280  Biso   1.000  H
  H143     1.0000 0.05090  0.83150  0.32280  Biso   1.000  H
  H144     1.0000 0.94910  0.33150  0.17720  Biso   1.000  H
  O173     1.0000 0.63700  0.15770  0.77360  Biso   1.000  O
  O174     1.0000 0.36300  0.65770  0.72640  Biso   1.000  O
  O175     1.0000 0.36300  0.84230  0.22640  Biso   1.000  O
  O176     1.0000 0.63700  0.34230  0.27360  Biso   1.000  O
  H145     1.0000 0.61490  0.17770  0.80070  Biso   1.000  H
  H146     1.0000 0.38510  0.67770  0.69930  Biso   1.000  H
  H147     1.0000 0.38510  0.82230  0.19930  Biso   1.000  H
  H148     1.0000 0.61490  0.32230  0.30070  Biso   1.000  H
  H149     1.0000 0.63120  0.12970  0.79330  Biso   1.000  H
  H150     1.0000 0.36880  0.62970  0.70670  Biso   1.000  H
  H151     1.0000 0.36880  0.87030  0.20670  Biso   1.000  H
  H152     1.0000 0.63120  0.37030  0.29330  Biso   1.000  H
