data_image0
_cell_length_a       11.558
_cell_length_b       5.735
_cell_length_c       22.622
_cell_angle_alpha    90
_cell_angle_beta     110.352
_cell_angle_gamma    90

_symmetry_space_group_name_H-M    "P 1"
_symmetry_int_tables_number       1

loop_
  _symmetry_equiv_pos_as_xyz
  'x, y, z'

loop_
  _atom_site_label
  _atom_site_occupancy
  _atom_site_fract_x
  _atom_site_fract_y
  _atom_site_fract_z
  _atom_site_thermal_displace_type
  _atom_site_B_iso_or_equiv
  _atom_site_type_symbol
  Cu1      1.0000 0.00000  0.00000  0.00000  Biso   1.000  Cu
  Cu2      1.0000 0.00000  0.50000  0.50000  Biso   1.000  Cu
  O1       1.0000 0.93305  0.88460  0.91380  Biso   1.000  O
  O2       1.0000 0.06695  0.38460  0.58620  Biso   1.000  O
  O3       1.0000 0.06695  0.11540  0.08620  Biso   1.000  O
  O4       1.0000 0.93305  0.61540  0.41380  Biso   1.000  O
  N1       1.0000 0.72190  0.26100  0.00393  Biso   1.000  N
  N2       1.0000 0.27810  0.76100  0.49607  Biso   1.000  N
  N3       1.0000 0.27810  0.73900  0.99607  Biso   1.000  N
  N4       1.0000 0.72190  0.23900  0.50393  Biso   1.000  N
  H1       1.0000 0.73710  0.15720  0.98020  Biso   1.000  H
  H2       1.0000 0.26290  0.65720  0.51980  Biso   1.000  H
  H3       1.0000 0.26290  0.84280  0.01980  Biso   1.000  H
  H4       1.0000 0.73710  0.34280  0.48020  Biso   1.000  H
  C1       1.0000 0.87200  0.49490  0.08647  Biso   1.000  C
  C2       1.0000 0.12800  0.99490  0.41353  Biso   1.000  C
  C3       1.0000 0.12800  0.50510  0.91353  Biso   1.000  C
  C4       1.0000 0.87200  0.00510  0.58647  Biso   1.000  C
  H5       1.0000 0.87150  0.41020  0.12140  Biso   1.000  H
  H6       1.0000 0.12850  0.91020  0.37860  Biso   1.000  H
  H7       1.0000 0.12850  0.58980  0.87860  Biso   1.000  H
  H8       1.0000 0.87150  0.08980  0.62140  Biso   1.000  H
  O5       1.0000 0.79160  0.15710  0.90459  Biso   1.000  O
  O6       1.0000 0.20840  0.65710  0.59541  Biso   1.000  O
  O7       1.0000 0.20840  0.84290  0.09541  Biso   1.000  O
  O8       1.0000 0.79160  0.34290  0.40459  Biso   1.000  O
  N5       1.0000 0.80190  0.44550  0.02621  Biso   1.000  N
  N6       1.0000 0.19810  0.94550  0.47379  Biso   1.000  N
  N7       1.0000 0.19810  0.55450  0.97379  Biso   1.000  N
  N8       1.0000 0.80190  0.05450  0.52621  Biso   1.000  N
  C5       1.0000 0.83160  0.60380  0.99062  Biso   1.000  C
  C6       1.0000 0.16840  0.10380  0.50938  Biso   1.000  C
  C7       1.0000 0.16840  0.39620  0.00938  Biso   1.000  C
  C8       1.0000 0.83160  0.89620  0.49062  Biso   1.000  C
  H9       1.0000 0.79830  0.61210  0.94690  Biso   1.000  H
  H10      1.0000 0.20170  0.11210  0.55310  Biso   1.000  H
  H11      1.0000 0.20170  0.38790  0.05310  Biso   1.000  H
  H12      1.0000 0.79830  0.88790  0.44690  Biso   1.000  H
  O9       1.0000 0.90330  0.40560  0.73162  Biso   1.000  O
  O10      1.0000 0.09670  0.90560  0.76838  Biso   1.000  O
  O11      1.0000 0.09670  0.59440  0.26838  Biso   1.000  O
  O12      1.0000 0.90330  0.09440  0.23162  Biso   1.000  O
  N9       1.0000 0.94010  0.67650  0.08881  Biso   1.000  N
  N10      1.0000 0.05990  0.17650  0.41119  Biso   1.000  N
  N11      1.0000 0.05990  0.32350  0.91119  Biso   1.000  N
  N12      1.0000 0.94010  0.82350  0.58881  Biso   1.000  N
  C9       1.0000 0.67170  0.83760  0.68601  Biso   1.000  C
  C10      1.0000 0.32830  0.33760  0.81399  Biso   1.000  C
  C11      1.0000 0.32830  0.16240  0.31399  Biso   1.000  C
  C12      1.0000 0.67170  0.66240  0.18601  Biso   1.000  C
  H13      1.0000 0.63280  0.79740  0.64390  Biso   1.000  H
  H14      1.0000 0.36720  0.29740  0.85610  Biso   1.000  H
  H15      1.0000 0.36720  0.20260  0.35610  Biso   1.000  H
  H16      1.0000 0.63280  0.70260  0.14390  Biso   1.000  H
  O13      1.0000 0.77090  0.48290  0.64160  Biso   1.000  O
  O14      1.0000 0.22910  0.98290  0.85840  Biso   1.000  O
  O15      1.0000 0.22910  0.51710  0.35840  Biso   1.000  O
  O16      1.0000 0.77090  0.01710  0.14160  Biso   1.000  O
  N13      1.0000 0.91420  0.74410  0.02665  Biso   1.000  N
  N14      1.0000 0.08580  0.24410  0.47335  Biso   1.000  N
  N15      1.0000 0.08580  0.25590  0.97335  Biso   1.000  N
  N16      1.0000 0.91420  0.75590  0.52665  Biso   1.000  N
  C13      1.0000 0.77270  0.71650  0.72438  Biso   1.000  C
  C14      1.0000 0.22730  0.21650  0.77562  Biso   1.000  C
  C15      1.0000 0.22730  0.28350  0.27562  Biso   1.000  C
  C16      1.0000 0.77270  0.78350  0.22438  Biso   1.000  C
  O17      1.0000 0.44010  0.04180  0.63458  Biso   1.000  O
  O18      1.0000 0.55990  0.54180  0.86542  Biso   1.000  O
  O19      1.0000 0.55990  0.95820  0.36542  Biso   1.000  O
  O20      1.0000 0.44010  0.45820  0.13458  Biso   1.000  O
  N17      1.0000 0.81990  0.52100  0.69721  Biso   1.000  N
  N18      1.0000 0.18010  0.02100  0.80279  Biso   1.000  N
  N19      1.0000 0.18010  0.47900  0.30279  Biso   1.000  N
  N20      1.0000 0.81990  0.97900  0.19721  Biso   1.000  N
  C17      1.0000 0.82980  0.76850  0.78768  Biso   1.000  C
  C18      1.0000 0.17020  0.26850  0.71232  Biso   1.000  C
  C19      1.0000 0.17020  0.23150  0.21232  Biso   1.000  C
  C20      1.0000 0.82980  0.73150  0.28768  Biso   1.000  C
  H17      1.0000 0.89710  0.68200  0.81270  Biso   1.000  H
  H18      1.0000 0.10290  0.18200  0.68730  Biso   1.000  H
  H19      1.0000 0.10290  0.31800  0.18730  Biso   1.000  H
  H20      1.0000 0.89710  0.81800  0.31270  Biso   1.000  H
  O21      1.0000 0.51790  0.36130  0.68409  Biso   1.000  O
  O22      1.0000 0.48210  0.86130  0.81591  Biso   1.000  O
  O23      1.0000 0.48210  0.63870  0.31591  Biso   1.000  O
  O24      1.0000 0.51790  0.13870  0.18409  Biso   1.000  O
  N21      1.0000 0.52070  0.15120  0.67374  Biso   1.000  N
  N22      1.0000 0.47930  0.65120  0.82626  Biso   1.000  N
  N23      1.0000 0.47930  0.84880  0.32626  Biso   1.000  N
  N24      1.0000 0.52070  0.34880  0.17374  Biso   1.000  N
  C21      1.0000 0.78470  0.95140  0.81288  Biso   1.000  C
  C22      1.0000 0.21530  0.45140  0.68712  Biso   1.000  C
  C23      1.0000 0.21530  0.04860  0.18712  Biso   1.000  C
  C24      1.0000 0.78470  0.54860  0.31288  Biso   1.000  C
  O25      1.0000 0.60020  0.37270  0.05693  Biso   1.000  O
  O26      1.0000 0.39980  0.87270  0.44307  Biso   1.000  O
  O27      1.0000 0.39980  0.62730  0.94307  Biso   1.000  O
  O28      1.0000 0.60020  0.12730  0.55693  Biso   1.000  O
  C25      1.0000 0.68530  0.08120  0.77523  Biso   1.000  C
  C26      1.0000 0.31470  0.58120  0.72477  Biso   1.000  C
  C27      1.0000 0.31470  0.91880  0.22477  Biso   1.000  C
  C28      1.0000 0.68530  0.41880  0.27523  Biso   1.000  C
  H21      1.0000 0.65570  0.20680  0.79180  Biso   1.000  H
  H22      1.0000 0.34430  0.70680  0.70820  Biso   1.000  H
  H23      1.0000 0.34430  0.79320  0.20820  Biso   1.000  H
  H24      1.0000 0.65570  0.29320  0.29180  Biso   1.000  H
  C29      1.0000 0.63100  0.02000  0.71267  Biso   1.000  C
  C30      1.0000 0.36900  0.52000  0.78733  Biso   1.000  C
  C31      1.0000 0.36900  0.98000  0.28733  Biso   1.000  C
  C32      1.0000 0.63100  0.48000  0.21267  Biso   1.000  C
  C33      1.0000 0.84030  0.00530  0.88223  Biso   1.000  C
  C34      1.0000 0.15970  0.50530  0.61777  Biso   1.000  C
  C35      1.0000 0.15970  0.99470  0.11777  Biso   1.000  C
  C36      1.0000 0.84030  0.49470  0.38223  Biso   1.000  C
  C37      1.0000 0.62030  0.24410  0.01944  Biso   1.000  C
  C38      1.0000 0.37970  0.74410  0.48056  Biso   1.000  C
  C39      1.0000 0.37970  0.75590  0.98056  Biso   1.000  C
  C40      1.0000 0.62030  0.25590  0.51944  Biso   1.000  C
  C41      1.0000 0.54210  0.03890  0.98795  Biso   1.000  C
  C42      1.0000 0.45790  0.53890  0.51205  Biso   1.000  C
  C43      1.0000 0.45790  0.96110  0.01205  Biso   1.000  C
  C44      1.0000 0.54210  0.46110  0.48795  Biso   1.000  C
  H25      1.0000 0.49900  0.07950  0.94420  Biso   1.000  H
  H26      1.0000 0.50100  0.57950  0.55580  Biso   1.000  H
  H27      1.0000 0.50100  0.92050  0.05580  Biso   1.000  H
  H28      1.0000 0.49900  0.42050  0.44420  Biso   1.000  H
  H29      1.0000 0.59700  0.91040  0.98840  Biso   1.000  H
  H30      1.0000 0.40300  0.41040  0.51160  Biso   1.000  H
  H31      1.0000 0.40300  0.08960  0.01160  Biso   1.000  H
  H32      1.0000 0.59700  0.58960  0.48840  Biso   1.000  H
