data_image0
_cell_length_a       17.943
_cell_length_b       19.378
_cell_length_c       7.853
_cell_angle_alpha    90
_cell_angle_beta     95.009
_cell_angle_gamma    90

_symmetry_space_group_name_H-M    "P 1"
_symmetry_int_tables_number       1

loop_
  _symmetry_equiv_pos_as_xyz
  'x, y, z'

loop_
  _atom_site_label
  _atom_site_occupancy
  _atom_site_fract_x
  _atom_site_fract_y
  _atom_site_fract_z
  _atom_site_thermal_displace_type
  _atom_site_B_iso_or_equiv
  _atom_site_type_symbol
  Pb1      1.0000 0.62761  0.74952  0.26670  Biso   1.000  Pb
  Pb2      1.0000 0.37239  0.24952  0.23330  Biso   1.000  Pb
  Pb3      1.0000 0.37239  0.25048  0.73330  Biso   1.000  Pb
  Pb4      1.0000 0.62761  0.75048  0.76670  Biso   1.000  Pb
  I1       1.0000 0.50832  0.68223  0.99200  Biso   1.000  I
  I2       1.0000 0.49168  0.18223  0.50800  Biso   1.000  I
  I3       1.0000 0.49168  0.31777  0.00800  Biso   1.000  I
  I4       1.0000 0.50832  0.81777  0.49200  Biso   1.000  I
  I5       1.0000 0.75958  0.69112  0.04390  Biso   1.000  I
  I6       1.0000 0.24042  0.19112  0.45610  Biso   1.000  I
  I7       1.0000 0.24042  0.30888  0.95610  Biso   1.000  I
  I8       1.0000 0.75958  0.80888  0.54390  Biso   1.000  I
  I9       1.0000 0.61225  0.61740  0.52603  Biso   1.000  I
  I10      1.0000 0.38775  0.11740  0.97397  Biso   1.000  I
  I11      1.0000 0.38775  0.38260  0.47397  Biso   1.000  I
  I12      1.0000 0.61225  0.88260  0.02603  Biso   1.000  I
  Cu1      1.0000 0.17121  0.59258  0.66798  Biso   1.000  Cu
  Cu2      1.0000 0.82879  0.09258  0.83202  Biso   1.000  Cu
  Cu3      1.0000 0.82879  0.40742  0.33202  Biso   1.000  Cu
  Cu4      1.0000 0.17121  0.90742  0.16798  Biso   1.000  Cu
  I13      1.0000 0.11320  0.62399  0.94903  Biso   1.000  I
  I14      1.0000 0.88680  0.12399  0.55097  Biso   1.000  I
  I15      1.0000 0.88680  0.37601  0.05097  Biso   1.000  I
  I16      1.0000 0.11320  0.87601  0.44903  Biso   1.000  I
  N1       1.0000 0.08180  0.62590  0.52400  Biso   1.000  N
  N2       1.0000 0.91820  0.12590  0.97600  Biso   1.000  N
  N3       1.0000 0.91820  0.37410  0.47600  Biso   1.000  N
  N4       1.0000 0.08180  0.87410  0.02400  Biso   1.000  N
  N5       1.0000 0.14590  0.50320  0.51840  Biso   1.000  N
  N6       1.0000 0.85410  0.00320  0.98160  Biso   1.000  N
  N7       1.0000 0.85410  0.49680  0.48160  Biso   1.000  N
  N8       1.0000 0.14590  0.99680  0.01840  Biso   1.000  N
  C1       1.0000 0.95450  0.66390  0.32510  Biso   1.000  C
  C2       1.0000 0.04550  0.16390  0.17490  Biso   1.000  C
  C3       1.0000 0.04550  0.33610  0.67490  Biso   1.000  C
  C4       1.0000 0.95450  0.83610  0.82510  Biso   1.000  C
  H1       1.0000 0.91160  0.67710  0.25780  Biso   1.000  H
  H2       1.0000 0.08840  0.17710  0.24220  Biso   1.000  H
  H3       1.0000 0.08840  0.32290  0.74220  Biso   1.000  H
  H4       1.0000 0.91160  0.82290  0.75780  Biso   1.000  H
  C5       1.0000 0.98730  0.70770  0.44130  Biso   1.000  C
  C6       1.0000 0.01270  0.20770  0.05870  Biso   1.000  C
  C7       1.0000 0.01270  0.29230  0.55870  Biso   1.000  C
  C8       1.0000 0.98730  0.79230  0.94130  Biso   1.000  C
  H5       1.0000 0.96710  0.75130  0.45570  Biso   1.000  H
  H6       1.0000 0.03290  0.25130  0.04430  Biso   1.000  H
  H7       1.0000 0.03290  0.24870  0.54430  Biso   1.000  H
  H8       1.0000 0.96710  0.74870  0.95570  Biso   1.000  H
  C9       1.0000 0.18410  0.44480  0.51560  Biso   1.000  C
  C10      1.0000 0.81590  0.94480  0.98440  Biso   1.000  C
  C11      1.0000 0.81590  0.55520  0.48440  Biso   1.000  C
  C12      1.0000 0.18410  0.05520  0.01560  Biso   1.000  C
  H9       1.0000 0.22320  0.43760  0.59950  Biso   1.000  H
  H10      1.0000 0.77680  0.93760  0.90050  Biso   1.000  H
  H11      1.0000 0.77680  0.56240  0.40050  Biso   1.000  H
  H12      1.0000 0.22320  0.06240  0.09950  Biso   1.000  H
  C13      1.0000 0.08960  0.51370  0.39680  Biso   1.000  C
  C14      1.0000 0.91040  0.01370  0.10320  Biso   1.000  C
  C15      1.0000 0.91040  0.48630  0.60320  Biso   1.000  C
  C16      1.0000 0.08960  0.98630  0.89680  Biso   1.000  C
  C17      1.0000 0.98500  0.59930  0.30660  Biso   1.000  C
  C18      1.0000 0.01500  0.09930  0.19340  Biso   1.000  C
  C19      1.0000 0.01500  0.40070  0.69340  Biso   1.000  C
  C20      1.0000 0.98500  0.90070  0.80660  Biso   1.000  C
  H13      1.0000 0.96240  0.56840  0.22760  Biso   1.000  H
  H14      1.0000 0.03760  0.06840  0.27240  Biso   1.000  H
  H15      1.0000 0.03760  0.43160  0.77240  Biso   1.000  H
  H16      1.0000 0.96240  0.93160  0.72760  Biso   1.000  H
  C21      1.0000 0.10950  0.40470  0.26930  Biso   1.000  C
  C22      1.0000 0.89050  0.90470  0.23070  Biso   1.000  C
  C23      1.0000 0.89050  0.59530  0.73070  Biso   1.000  C
  C24      1.0000 0.10950  0.09530  0.76930  Biso   1.000  C
  H17      1.0000 0.09680  0.37200  0.18490  Biso   1.000  H
  H18      1.0000 0.90320  0.87200  0.31510  Biso   1.000  H
  H19      1.0000 0.90320  0.62800  0.81510  Biso   1.000  H
  H20      1.0000 0.09680  0.12800  0.68490  Biso   1.000  H
  C25      1.0000 0.05030  0.58040  0.40730  Biso   1.000  C
  C26      1.0000 0.94970  0.08040  0.09270  Biso   1.000  C
  C27      1.0000 0.94970  0.41960  0.59270  Biso   1.000  C
  C28      1.0000 0.05030  0.91960  0.90730  Biso   1.000  C
  C29      1.0000 0.05080  0.68760  0.53860  Biso   1.000  C
  C30      1.0000 0.94920  0.18760  0.96140  Biso   1.000  C
  C31      1.0000 0.94920  0.31240  0.46140  Biso   1.000  C
  C32      1.0000 0.05080  0.81240  0.03860  Biso   1.000  C
  H21      1.0000 0.07310  0.71850  0.61810  Biso   1.000  H
  H22      1.0000 0.92690  0.21850  0.88190  Biso   1.000  H
  H23      1.0000 0.92690  0.28150  0.38190  Biso   1.000  H
  H24      1.0000 0.07310  0.78150  0.11810  Biso   1.000  H
  C33      1.0000 0.16820  0.39310  0.39200  Biso   1.000  C
  C34      1.0000 0.83180  0.89310  0.10800  Biso   1.000  C
  C35      1.0000 0.83180  0.60690  0.60800  Biso   1.000  C
  C36      1.0000 0.16820  0.10690  0.89200  Biso   1.000  C
  H25      1.0000 0.19620  0.35270  0.39270  Biso   1.000  H
  H26      1.0000 0.80380  0.85270  0.10730  Biso   1.000  H
  H27      1.0000 0.80380  0.64730  0.60730  Biso   1.000  H
  H28      1.0000 0.19620  0.14730  0.89270  Biso   1.000  H
  C37      1.0000 0.07110  0.46400  0.27470  Biso   1.000  C
  C38      1.0000 0.92890  0.96400  0.22530  Biso   1.000  C
  C39      1.0000 0.92890  0.53600  0.72530  Biso   1.000  C
  C40      1.0000 0.07110  0.03600  0.77470  Biso   1.000  C
  H29      1.0000 0.03100  0.47190  0.19390  Biso   1.000  H
  H30      1.0000 0.96900  0.97190  0.30610  Biso   1.000  H
  H31      1.0000 0.96900  0.52810  0.80610  Biso   1.000  H
  H32      1.0000 0.03100  0.02810  0.69390  Biso   1.000  H
  N9       1.0000 0.24700  0.63650  0.52080  Biso   1.000  N
  N10      1.0000 0.75300  0.13650  0.97920  Biso   1.000  N
  N11      1.0000 0.75300  0.36350  0.47920  Biso   1.000  N
  N12      1.0000 0.24700  0.86350  0.02080  Biso   1.000  N
  C41      1.0000 0.23130  0.67880  0.37930  Biso   1.000  C
  C42      1.0000 0.76870  0.17880  0.12070  Biso   1.000  C
  C43      1.0000 0.76870  0.32120  0.62070  Biso   1.000  C
  C44      1.0000 0.23130  0.82120  0.87930  Biso   1.000  C
  H33      1.0000 0.18240  0.69300  0.34900  Biso   1.000  H
  H34      1.0000 0.81760  0.19300  0.15100  Biso   1.000  H
  H35      1.0000 0.81760  0.30700  0.65100  Biso   1.000  H
  H36      1.0000 0.18240  0.80700  0.84900  Biso   1.000  H
  C45      1.0000 0.28860  0.70000  0.28320  Biso   1.000  C
  C46      1.0000 0.71140  0.20000  0.21680  Biso   1.000  C
  C47      1.0000 0.71140  0.30000  0.71680  Biso   1.000  C
  C48      1.0000 0.28860  0.80000  0.78320  Biso   1.000  C
  H37      1.0000 0.27810  0.72830  0.18850  Biso   1.000  H
  H38      1.0000 0.72190  0.22830  0.31150  Biso   1.000  H
  H39      1.0000 0.72190  0.27170  0.81150  Biso   1.000  H
  H40      1.0000 0.27810  0.77170  0.68850  Biso   1.000  H
  C49      1.0000 0.36170  0.67880  0.32850  Biso   1.000  C
  C50      1.0000 0.63830  0.17880  0.17150  Biso   1.000  C
  C51      1.0000 0.63830  0.32120  0.67150  Biso   1.000  C
  C52      1.0000 0.36170  0.82120  0.82850  Biso   1.000  C
  H41      1.0000 0.40010  0.69290  0.26420  Biso   1.000  H
  H42      1.0000 0.59990  0.19290  0.23580  Biso   1.000  H
  H43      1.0000 0.59990  0.30710  0.73580  Biso   1.000  H
  H44      1.0000 0.40010  0.80710  0.76420  Biso   1.000  H
  C53      1.0000 0.37740  0.63650  0.47000  Biso   1.000  C
  C54      1.0000 0.62260  0.13650  0.03000  Biso   1.000  C
  C55      1.0000 0.62260  0.36350  0.53000  Biso   1.000  C
  C56      1.0000 0.37740  0.86350  0.97000  Biso   1.000  C
  H45      1.0000 0.42630  0.62230  0.50030  Biso   1.000  H
  H46      1.0000 0.57370  0.12230  0.99970  Biso   1.000  H
  H47      1.0000 0.57370  0.37770  0.49970  Biso   1.000  H
  H48      1.0000 0.42630  0.87770  0.00030  Biso   1.000  H
  C57      1.0000 0.32010  0.61530  0.56610  Biso   1.000  C
  C58      1.0000 0.67990  0.11530  0.93390  Biso   1.000  C
  C59      1.0000 0.67990  0.38470  0.43390  Biso   1.000  C
  C60      1.0000 0.32010  0.88470  0.06610  Biso   1.000  C
  N13      1.0000 0.26340  0.55720  0.78670  Biso   1.000  N
  N14      1.0000 0.73660  0.05720  0.71330  Biso   1.000  N
  N15      1.0000 0.73660  0.44280  0.21330  Biso   1.000  N
  N16      1.0000 0.26340  0.94280  0.28670  Biso   1.000  N
  C61      1.0000 0.32870  0.57100  0.70950  Biso   1.000  C
  C62      1.0000 0.67130  0.07100  0.79050  Biso   1.000  C
  C63      1.0000 0.67130  0.42900  0.29050  Biso   1.000  C
  C64      1.0000 0.32870  0.92900  0.20950  Biso   1.000  C
  C65      1.0000 0.39600  0.54180  0.77460  Biso   1.000  C
  C66      1.0000 0.60400  0.04180  0.72540  Biso   1.000  C
  C67      1.0000 0.60400  0.45820  0.22540  Biso   1.000  C
  C68      1.0000 0.39600  0.95820  0.27460  Biso   1.000  C
  H49      1.0000 0.43970  0.55100  0.72290  Biso   1.000  H
  H50      1.0000 0.56030  0.05100  0.77710  Biso   1.000  H
  H51      1.0000 0.56030  0.44900  0.27710  Biso   1.000  H
  H52      1.0000 0.43970  0.94900  0.22290  Biso   1.000  H
  C69      1.0000 0.39810  0.49890  0.91670  Biso   1.000  C
  C70      1.0000 0.60190  0.99890  0.58330  Biso   1.000  C
  C71      1.0000 0.60190  0.50110  0.08330  Biso   1.000  C
  C72      1.0000 0.39810  0.00110  0.41670  Biso   1.000  C
  H53      1.0000 0.44320  0.47940  0.96030  Biso   1.000  H
  H54      1.0000 0.55680  0.97940  0.53970  Biso   1.000  H
  H55      1.0000 0.55680  0.52060  0.03970  Biso   1.000  H
  H56      1.0000 0.44320  0.02060  0.46030  Biso   1.000  H
  C73      1.0000 0.33290  0.48510  0.99390  Biso   1.000  C
  C74      1.0000 0.66710  0.98510  0.50610  Biso   1.000  C
  C75      1.0000 0.66710  0.51490  0.00610  Biso   1.000  C
  C76      1.0000 0.33290  0.01490  0.49390  Biso   1.000  C
  H57      1.0000 0.33430  0.45640  0.08900  Biso   1.000  H
  H58      1.0000 0.66570  0.95640  0.41100  Biso   1.000  H
  H59      1.0000 0.66570  0.54360  0.91100  Biso   1.000  H
  H60      1.0000 0.33430  0.04360  0.58900  Biso   1.000  H
  C77      1.0000 0.26550  0.51430  0.92880  Biso   1.000  C
  C78      1.0000 0.73450  0.01430  0.57120  Biso   1.000  C
  C79      1.0000 0.73450  0.48570  0.07120  Biso   1.000  C
  C80      1.0000 0.26550  0.98570  0.42880  Biso   1.000  C
  H61      1.0000 0.22190  0.50510  0.98040  Biso   1.000  H
  H62      1.0000 0.77810  0.00510  0.51960  Biso   1.000  H
  H63      1.0000 0.77810  0.49490  0.01960  Biso   1.000  H
  H64      1.0000 0.22190  0.99490  0.48040  Biso   1.000  H
