data_image0
_cell_length_a       15.86
_cell_length_b       14.713
_cell_length_c       7.995
_cell_angle_alpha    104.946
_cell_angle_beta     82.339
_cell_angle_gamma    68.821

_symmetry_space_group_name_H-M    "P 1"
_symmetry_int_tables_number       1

loop_
  _symmetry_equiv_pos_as_xyz
  'x, y, z'

loop_
  _atom_site_label
  _atom_site_occupancy
  _atom_site_fract_x
  _atom_site_fract_y
  _atom_site_fract_z
  _atom_site_thermal_displace_type
  _atom_site_B_iso_or_equiv
  _atom_site_type_symbol
  Pb1      1.0000 0.50000  0.50000  0.00000  Biso   1.000  Pb
  Pb2      1.0000 0.50000  0.50000  0.50000  Biso   1.000  Pb
  I1       1.0000 0.48660  0.32866  0.17213  Biso   1.000  I
  I2       1.0000 0.51340  0.67134  0.82787  Biso   1.000  I
  I3       1.0000 0.36377  0.67489  0.36752  Biso   1.000  I
  I4       1.0000 0.63623  0.32511  0.63248  Biso   1.000  I
  I5       1.0000 0.33676  0.50168  0.79454  Biso   1.000  I
  I6       1.0000 0.66324  0.49832  0.20546  Biso   1.000  I
  I7       1.0000 0.95232  0.73384  0.04930  Biso   1.000  I
  I8       1.0000 0.04768  0.26616  0.95070  Biso   1.000  I
  Cu1      1.0000 0.97790  0.77055  0.74078  Biso   1.000  Cu
  Cu2      1.0000 0.02210  0.22945  0.25922  Biso   1.000  Cu
  C1       1.0000 0.14720  0.61360  0.42190  Biso   1.000  C
  C2       1.0000 0.85280  0.38640  0.57810  Biso   1.000  C
  H1       1.0000 0.18340  0.64310  0.47760  Biso   1.000  H
  H2       1.0000 0.81660  0.35690  0.52240  Biso   1.000  H
  C3       1.0000 0.18890  0.53480  0.25960  Biso   1.000  C
  C4       1.0000 0.81110  0.46520  0.74040  Biso   1.000  C
  H3       1.0000 0.25230  0.51130  0.20750  Biso   1.000  H
  H4       1.0000 0.74770  0.48870  0.79250  Biso   1.000  H
  C5       1.0000 0.13640  0.49210  0.17740  Biso   1.000  C
  C6       1.0000 0.86360  0.50790  0.82260  Biso   1.000  C
  H5       1.0000 0.16280  0.44030  0.06640  Biso   1.000  H
  H6       1.0000 0.83720  0.55970  0.93360  Biso   1.000  H
  C7       1.0000 0.04440  0.52580  0.25860  Biso   1.000  C
  C8       1.0000 0.95560  0.47420  0.74140  Biso   1.000  C
  H7       1.0000 0.00870  0.49430  0.20600  Biso   1.000  H
  H8       1.0000 0.99130  0.50570  0.79400  Biso   1.000  H
  C9       1.0000 0.00400  0.60610  0.41780  Biso   1.000  C
  C10      1.0000 0.99600  0.39390  0.58220  Biso   1.000  C
  C11      1.0000 0.90500  0.65030  0.51330  Biso   1.000  C
  C12      1.0000 0.09500  0.34970  0.48670  Biso   1.000  C
  C13      1.0000 0.84030  0.61690  0.45440  Biso   1.000  C
  C14      1.0000 0.15970  0.38310  0.54560  Biso   1.000  C
  H9       1.0000 0.85770  0.56450  0.34540  Biso   1.000  H
  H10      1.0000 0.14230  0.43550  0.65460  Biso   1.000  H
  C15      1.0000 0.75270  0.65980  0.55340  Biso   1.000  C
  C16      1.0000 0.24730  0.34020  0.44660  Biso   1.000  C
  H11      1.0000 0.70930  0.63590  0.51500  Biso   1.000  H
  H12      1.0000 0.29070  0.36410  0.48500  Biso   1.000  H
  C17      1.0000 0.72590  0.73910  0.71220  Biso   1.000  C
  C18      1.0000 0.27410  0.26090  0.28780  Biso   1.000  C
  H13      1.0000 0.66450  0.77040  0.78120  Biso   1.000  H
  H14      1.0000 0.33550  0.22960  0.21880  Biso   1.000  H
  C19      1.0000 0.79170  0.77050  0.76530  Biso   1.000  C
  C20      1.0000 0.20830  0.22950  0.23470  Biso   1.000  C
  H15      1.0000 0.77470  0.82390  0.87280  Biso   1.000  H
  H16      1.0000 0.22530  0.17610  0.12720  Biso   1.000  H
  C21      1.0000 0.15450  0.76550  0.82920  Biso   1.000  C
  C22      1.0000 0.84550  0.23450  0.17080  Biso   1.000  C
  H17      1.0000 0.16350  0.70100  0.83820  Biso   1.000  H
  H18      1.0000 0.83650  0.29900  0.16180  Biso   1.000  H
  C23      1.0000 0.22230  0.80060  0.85640  Biso   1.000  C
  C24      1.0000 0.77770  0.19940  0.14360  Biso   1.000  C
  H19      1.0000 0.27660  0.76000  0.88010  Biso   1.000  H
  H20      1.0000 0.72340  0.24000  0.11990  Biso   1.000  H
  C25      1.0000 0.20880  0.89420  0.84800  Biso   1.000  C
  C26      1.0000 0.79120  0.10580  0.15200  Biso   1.000  C
  H21      1.0000 0.25390  0.91950  0.86770  Biso   1.000  H
  H22      1.0000 0.74610  0.08050  0.13230  Biso   1.000  H
  C27      1.0000 0.12780  0.95420  0.81010  Biso   1.000  C
  C28      1.0000 0.87220  0.04580  0.18990  Biso   1.000  C
  H23      1.0000 0.11760  0.01960  0.80470  Biso   1.000  H
  H24      1.0000 0.88240  0.98040  0.19530  Biso   1.000  H
  C29      1.0000 0.06380  0.91370  0.78110  Biso   1.000  C
  C30      1.0000 0.93620  0.08630  0.21890  Biso   1.000  C
  C31      1.0000 0.97520  0.96810  0.73530  Biso   1.000  C
  C32      1.0000 0.02480  0.03190  0.26470  Biso   1.000  C
  C33      1.0000 0.94670  0.06760  0.72560  Biso   1.000  C
  C34      1.0000 0.05330  0.93240  0.27440  Biso   1.000  C
  H25      1.0000 0.98340  0.10420  0.74740  Biso   1.000  H
  H26      1.0000 0.01660  0.89580  0.25260  Biso   1.000  H
  C35      1.0000 0.86420  0.11010  0.68370  Biso   1.000  C
  C36      1.0000 0.13580  0.88990  0.31630  Biso   1.000  C
  H27      1.0000 0.84450  0.17610  0.67520  Biso   1.000  H
  H28      1.0000 0.15550  0.82390  0.32480  Biso   1.000  H
  C37      1.0000 0.81020  0.05660  0.65400  Biso   1.000  C
  C38      1.0000 0.18980  0.94340  0.34600  Biso   1.000  C
  H29      1.0000 0.75330  0.08550  0.62670  Biso   1.000  H
  H30      1.0000 0.24670  0.91450  0.37330  Biso   1.000  H
  C39      1.0000 0.84180  0.95940  0.66550  Biso   1.000  C
  C40      1.0000 0.15820  0.04060  0.33450  Biso   1.000  C
  H31      1.0000 0.80530  0.92260  0.64340  Biso   1.000  H
  H32      1.0000 0.19470  0.07740  0.35660  Biso   1.000  H
  N1       1.0000 0.05580  0.64930  0.50230  Biso   1.000  N
  N2       1.0000 0.94420  0.35070  0.49770  Biso   1.000  N
  N3       1.0000 0.87920  0.72740  0.66900  Biso   1.000  N
  N4       1.0000 0.12080  0.27260  0.33100  Biso   1.000  N
  N5       1.0000 0.07630  0.81880  0.79070  Biso   1.000  N
  N6       1.0000 0.92370  0.18120  0.20930  Biso   1.000  N
  N7       1.0000 0.92160  0.91440  0.70630  Biso   1.000  N
  N8       1.0000 0.07840  0.08560  0.29370  Biso   1.000  N
  C41      1.0000 0.53240  0.82210  0.34460  Biso   1.000  C
  C42      1.0000 0.46760  0.17790  0.65540  Biso   1.000  C
  H33      1.0000 0.55800  0.78710  0.21820  Biso   1.000  H
  H34      1.0000 0.44200  0.21290  0.78180  Biso   1.000  H
  H35      1.0000 0.47300  0.87820  0.36560  Biso   1.000  H
  H36      1.0000 0.52700  0.12180  0.63440  Biso   1.000  H
  H37      1.0000 0.52450  0.77450  0.40100  Biso   1.000  H
  H38      1.0000 0.47550  0.22550  0.59900  Biso   1.000  H
  C43      1.0000 0.66210  0.82490  0.26910  Biso   1.000  C
  C44      1.0000 0.33790  0.17510  0.73090  Biso   1.000  C
  H39      1.0000 0.70820  0.84980  0.29980  Biso   1.000  H
  H40      1.0000 0.29180  0.15020  0.70020  Biso   1.000  H
  H41      1.0000 0.63900  0.84930  0.17680  Biso   1.000  H
  H42      1.0000 0.36100  0.15070  0.82320  Biso   1.000  H
  H43      1.0000 0.68990  0.75070  0.22710  Biso   1.000  H
  H44      1.0000 0.31010  0.24930  0.77290  Biso   1.000  H
  C45      1.0000 0.58120  0.91430  0.58550  Biso   1.000  C
  C46      1.0000 0.41880  0.08570  0.41450  Biso   1.000  C
  H45      1.0000 0.53500  0.92100  0.67870  Biso   1.000  H
  H46      1.0000 0.46500  0.07900  0.32130  Biso   1.000  H
  N9       1.0000 0.59150  0.85960  0.41370  Biso   1.000  N
  N10      1.0000 0.40850  0.14040  0.58630  Biso   1.000  N
  O1       1.0000 0.64140  0.95850  0.61430  Biso   1.000  O
  O2       1.0000 0.35860  0.04150  0.38570  Biso   1.000  O
  O3       1.0000 0.61310  0.02370  0.96900  Biso   1.000  O
  O4       1.0000 0.38690  0.97630  0.03100  Biso   1.000  O
  H47      1.0000 0.65690  0.99500  0.01300  Biso   1.000  H
  H48      1.0000 0.34310  0.00500  0.98700  Biso   1.000  H
  H49      1.0000 0.63500  0.05300  0.90800  Biso   1.000  H
  H50      1.0000 0.36500  0.94700  0.09200  Biso   1.000  H
