data_image0
_cell_length_a       7.8497
_cell_length_b       14.0717
_cell_length_c       13.8997
_cell_angle_alpha    90
_cell_angle_beta     109.381
_cell_angle_gamma    90

_symmetry_space_group_name_H-M    "P 1"
_symmetry_int_tables_number       1

loop_
  _symmetry_equiv_pos_as_xyz
  'x, y, z'

loop_
  _atom_site_label
  _atom_site_occupancy
  _atom_site_fract_x
  _atom_site_fract_y
  _atom_site_fract_z
  _atom_site_thermal_displace_type
  _atom_site_B_iso_or_equiv
  _atom_site_type_symbol
  Cu1      1.0000 0.68642  0.93775  0.88526  Biso   1.000  Cu
  Cu2      1.0000 0.31358  0.43775  0.61474  Biso   1.000  Cu
  Cu3      1.0000 0.31358  0.06225  0.11474  Biso   1.000  Cu
  Cu4      1.0000 0.68642  0.56225  0.38526  Biso   1.000  Cu
  O1       1.0000 0.47840  0.00762  0.79938  Biso   1.000  O
  O2       1.0000 0.52160  0.50762  0.70062  Biso   1.000  O
  O3       1.0000 0.52160  0.99238  0.20062  Biso   1.000  O
  O4       1.0000 0.47840  0.49238  0.29938  Biso   1.000  O
  O5       1.0000 0.27610  0.01369  0.88090  Biso   1.000  O
  O6       1.0000 0.72390  0.51369  0.61910  Biso   1.000  O
  O7       1.0000 0.72390  0.98631  0.11910  Biso   1.000  O
  O8       1.0000 0.27610  0.48631  0.38090  Biso   1.000  O
  O9       1.0000 0.82680  0.05919  0.90864  Biso   1.000  O
  O10      1.0000 0.17320  0.55919  0.59136  Biso   1.000  O
  O11      1.0000 0.17320  0.94081  0.09136  Biso   1.000  O
  O12      1.0000 0.82680  0.44081  0.40864  Biso   1.000  O
  O13      1.0000 0.08840  0.11481  0.01541  Biso   1.000  O
  O14      1.0000 0.91160  0.61481  0.48459  Biso   1.000  O
  O15      1.0000 0.91160  0.88519  0.98459  Biso   1.000  O
  O16      1.0000 0.08840  0.38519  0.51541  Biso   1.000  O
  N1       1.0000 0.24250  0.10780  0.25630  Biso   1.000  N
  N2       1.0000 0.75750  0.60780  0.24370  Biso   1.000  N
  N3       1.0000 0.75750  0.89220  0.74370  Biso   1.000  N
  N4       1.0000 0.24250  0.39220  0.75630  Biso   1.000  N
  N5       1.0000 0.95950  0.15061  0.53200  Biso   1.000  N
  N6       1.0000 0.04050  0.65061  0.96800  Biso   1.000  N
  N7       1.0000 0.04050  0.84939  0.46800  Biso   1.000  N
  N8       1.0000 0.95950  0.34939  0.03200  Biso   1.000  N
  N9       1.0000 0.46710  0.32600  0.60540  Biso   1.000  N
  N10      1.0000 0.53290  0.82600  0.89460  Biso   1.000  N
  N11      1.0000 0.53290  0.67400  0.39460  Biso   1.000  N
  N12      1.0000 0.46710  0.17400  0.10540  Biso   1.000  N
  C1       1.0000 0.36980  0.09910  0.34710  Biso   1.000  C
  C2       1.0000 0.63020  0.59910  0.15290  Biso   1.000  C
  C3       1.0000 0.63020  0.90090  0.65290  Biso   1.000  C
  C4       1.0000 0.36980  0.40090  0.84710  Biso   1.000  C
  H1       1.0000 0.48880  0.09130  0.34940  Biso   1.000  H
  H2       1.0000 0.51120  0.59130  0.15060  Biso   1.000  H
  H3       1.0000 0.51120  0.90870  0.65060  Biso   1.000  H
  H4       1.0000 0.48880  0.40870  0.84940  Biso   1.000  H
  C5       1.0000 0.33510  0.10070  0.43780  Biso   1.000  C
  C6       1.0000 0.66490  0.60070  0.06220  Biso   1.000  C
  C7       1.0000 0.66490  0.89930  0.56220  Biso   1.000  C
  C8       1.0000 0.33510  0.39930  0.93780  Biso   1.000  C
  H5       1.0000 0.42900  0.09290  0.49910  Biso   1.000  H
  H6       1.0000 0.57100  0.59290  0.00090  Biso   1.000  H
  H7       1.0000 0.57100  0.90710  0.50090  Biso   1.000  H
  H8       1.0000 0.42900  0.40710  0.99910  Biso   1.000  H
  C9       1.0000 0.15970  0.11440  0.43770  Biso   1.000  C
  C10      1.0000 0.84030  0.61440  0.06230  Biso   1.000  C
  C11      1.0000 0.84030  0.88560  0.56230  Biso   1.000  C
  C12      1.0000 0.15970  0.38560  0.93770  Biso   1.000  C
  C13      1.0000 0.02920  0.12960  0.34390  Biso   1.000  C
  C14      1.0000 0.97080  0.62960  0.15610  Biso   1.000  C
  C15      1.0000 0.97080  0.87040  0.65610  Biso   1.000  C
  C16      1.0000 0.02920  0.37040  0.84390  Biso   1.000  C
  H9       1.0000 0.91120  0.14350  0.33990  Biso   1.000  H
  H10      1.0000 0.08880  0.64350  0.16010  Biso   1.000  H
  H11      1.0000 0.08880  0.85650  0.66010  Biso   1.000  H
  H12      1.0000 0.91120  0.35650  0.83990  Biso   1.000  H
  C17      1.0000 0.07420  0.12420  0.25590  Biso   1.000  C
  C18      1.0000 0.92580  0.62420  0.24410  Biso   1.000  C
  C19      1.0000 0.92580  0.87580  0.74410  Biso   1.000  C
  C20      1.0000 0.07420  0.37580  0.75590  Biso   1.000  C
  H13      1.0000 0.98320  0.13250  0.19340  Biso   1.000  H
  H14      1.0000 0.01680  0.63250  0.30660  Biso   1.000  H
  H15      1.0000 0.01680  0.86750  0.80660  Biso   1.000  H
  H16      1.0000 0.98320  0.36750  0.69340  Biso   1.000  H
  C21      1.0000 0.11750  0.11290  0.53460  Biso   1.000  C
  C22      1.0000 0.88250  0.61290  0.96540  Biso   1.000  C
  C23      1.0000 0.88250  0.88710  0.46540  Biso   1.000  C
  C24      1.0000 0.11750  0.38710  0.03460  Biso   1.000  C
  C25      1.0000 0.23670  0.07420  0.62280  Biso   1.000  C
  C26      1.0000 0.76330  0.57420  0.87720  Biso   1.000  C
  C27      1.0000 0.76330  0.92580  0.37720  Biso   1.000  C
  C28      1.0000 0.23670  0.42580  0.12280  Biso   1.000  C
  H17      1.0000 0.34540  0.04860  0.62190  Biso   1.000  H
  H18      1.0000 0.65460  0.54860  0.87810  Biso   1.000  H
  H19      1.0000 0.65460  0.95140  0.37810  Biso   1.000  H
  H20      1.0000 0.34540  0.45140  0.12190  Biso   1.000  H
  C29      1.0000 0.19600  0.07320  0.71120  Biso   1.000  C
  C30      1.0000 0.80400  0.57320  0.78880  Biso   1.000  C
  C31      1.0000 0.80400  0.92680  0.28880  Biso   1.000  C
  C32      1.0000 0.19600  0.42680  0.21120  Biso   1.000  C
  C33      1.0000 0.03400  0.11370  0.70990  Biso   1.000  C
  C34      1.0000 0.96600  0.61370  0.79010  Biso   1.000  C
  C35      1.0000 0.96600  0.88630  0.29010  Biso   1.000  C
  C36      1.0000 0.03400  0.38630  0.20990  Biso   1.000  C
  H21      1.0000 0.00150  0.11460  0.76840  Biso   1.000  H
  H22      1.0000 0.99850  0.61460  0.73160  Biso   1.000  H
  H23      1.0000 0.99850  0.88540  0.23160  Biso   1.000  H
  H24      1.0000 0.00150  0.38540  0.26840  Biso   1.000  H
  C37      1.0000 0.92130  0.15300  0.61950  Biso   1.000  C
  C38      1.0000 0.07870  0.65300  0.88050  Biso   1.000  C
  C39      1.0000 0.07870  0.84700  0.38050  Biso   1.000  C
  C40      1.0000 0.92130  0.34700  0.11950  Biso   1.000  C
  C41      1.0000 0.52700  0.26020  0.67900  Biso   1.000  C
  C42      1.0000 0.47300  0.76020  0.82100  Biso   1.000  C
  C43      1.0000 0.47300  0.73980  0.32100  Biso   1.000  C
  C44      1.0000 0.52700  0.23980  0.17900  Biso   1.000  C
  H25      1.0000 0.46920  0.25470  0.72730  Biso   1.000  H
  H26      1.0000 0.53080  0.75470  0.77270  Biso   1.000  H
  H27      1.0000 0.53080  0.74530  0.27270  Biso   1.000  H
  H28      1.0000 0.46920  0.24530  0.22730  Biso   1.000  H
  C45      1.0000 0.67030  0.20050  0.68650  Biso   1.000  C
  C46      1.0000 0.32970  0.70050  0.81350  Biso   1.000  C
  C47      1.0000 0.32970  0.79950  0.31350  Biso   1.000  C
  C48      1.0000 0.67030  0.29950  0.18650  Biso   1.000  C
  H29      1.0000 0.70970  0.15700  0.73970  Biso   1.000  H
  H30      1.0000 0.29030  0.65700  0.76030  Biso   1.000  H
  H31      1.0000 0.29030  0.84300  0.26030  Biso   1.000  H
  H32      1.0000 0.70970  0.34300  0.23970  Biso   1.000  H
  C49      1.0000 0.75450  0.20660  0.61320  Biso   1.000  C
  C50      1.0000 0.24550  0.70660  0.88680  Biso   1.000  C
  C51      1.0000 0.24550  0.79340  0.38680  Biso   1.000  C
  C52      1.0000 0.75450  0.29340  0.11320  Biso   1.000  C
  C53      1.0000 0.68490  0.27090  0.53380  Biso   1.000  C
  C54      1.0000 0.31510  0.77090  0.96620  Biso   1.000  C
  C55      1.0000 0.31510  0.72910  0.46620  Biso   1.000  C
  C56      1.0000 0.68490  0.22910  0.03380  Biso   1.000  C
  H33      1.0000 0.73320  0.27450  0.48120  Biso   1.000  H
  H34      1.0000 0.26680  0.77450  0.01880  Biso   1.000  H
  H35      1.0000 0.26680  0.72550  0.51880  Biso   1.000  H
  H36      1.0000 0.73320  0.22550  0.98120  Biso   1.000  H
  C57      1.0000 0.54430  0.32900  0.53350  Biso   1.000  C
  C58      1.0000 0.45570  0.82900  0.96650  Biso   1.000  C
  C59      1.0000 0.45570  0.67100  0.46650  Biso   1.000  C
  C60      1.0000 0.54430  0.17100  0.03350  Biso   1.000  C
  H37      1.0000 0.50100  0.37240  0.48060  Biso   1.000  H
  H38      1.0000 0.49900  0.87240  0.01940  Biso   1.000  H
  H39      1.0000 0.49900  0.62760  0.51940  Biso   1.000  H
  H40      1.0000 0.50100  0.12760  0.98060  Biso   1.000  H
  C61      1.0000 0.32450  0.02770  0.80730  Biso   1.000  C
  C62      1.0000 0.67550  0.52770  0.69270  Biso   1.000  C
  C63      1.0000 0.67550  0.97230  0.19270  Biso   1.000  C
  C64      1.0000 0.32450  0.47230  0.30730  Biso   1.000  C
  C65      1.0000 0.97560  0.05000  0.97810  Biso   1.000  C
  C66      1.0000 0.02440  0.55000  0.52190  Biso   1.000  C
  C67      1.0000 0.02440  0.95000  0.02190  Biso   1.000  C
  C68      1.0000 0.97560  0.45000  0.47810  Biso   1.000  C
