data_image0
_cell_length_a       7.5676
_cell_length_b       15.352
_cell_length_c       8.4817
_cell_angle_alpha    90
_cell_angle_beta     97.101
_cell_angle_gamma    90

_symmetry_space_group_name_H-M    "P 1"
_symmetry_int_tables_number       1

loop_
  _symmetry_equiv_pos_as_xyz
  'x, y, z'

loop_
  _atom_site_label
  _atom_site_occupancy
  _atom_site_fract_x
  _atom_site_fract_y
  _atom_site_fract_z
  _atom_site_thermal_displace_type
  _atom_site_B_iso_or_equiv
  _atom_site_type_symbol
  C1       1.0000 0.72500  0.93940  0.00040  Biso   1.000  C
  C2       1.0000 0.27500  0.43940  0.99960  Biso   1.000  C
  H1       1.0000 0.69990  0.88560  0.04280  Biso   1.000  H
  H2       1.0000 0.30010  0.38560  0.95720  Biso   1.000  H
  C3       1.0000 0.59920  0.97680  0.88930  Biso   1.000  C
  C4       1.0000 0.40080  0.47680  0.11070  Biso   1.000  C
  H3       1.0000 0.49160  0.94910  0.85660  Biso   1.000  H
  H4       1.0000 0.50840  0.44910  0.14340  Biso   1.000  H
  C5       1.0000 0.63850  0.05710  0.82820  Biso   1.000  C
  C6       1.0000 0.36150  0.55710  0.17180  Biso   1.000  C
  H5       1.0000 0.55650  0.08540  0.75490  Biso   1.000  H
  H6       1.0000 0.44350  0.58540  0.24510  Biso   1.000  H
  C7       1.0000 0.80210  0.09450  0.87850  Biso   1.000  C
  C8       1.0000 0.19790  0.59450  0.12150  Biso   1.000  C
  H7       1.0000 0.83240  0.14690  0.83390  Biso   1.000  H
  H8       1.0000 0.16760  0.64690  0.16610  Biso   1.000  H
  C9       1.0000 0.92120  0.05550  0.99330  Biso   1.000  C
  C10      1.0000 0.07880  0.55550  0.00670  Biso   1.000  C
  C11      1.0000 0.09450  0.09550  0.05930  Biso   1.000  C
  C12      1.0000 0.90550  0.59550  0.94070  Biso   1.000  C
  H9       1.0000 0.17180  0.10110  0.97530  Biso   1.000  H
  H10      1.0000 0.82820  0.60110  0.02470  Biso   1.000  H
  C13      1.0000 0.06430  0.18520  0.13010  Biso   1.000  C
  C14      1.0000 0.93570  0.68520  0.86990  Biso   1.000  C
  H11      1.0000 0.17690  0.21000  0.17200  Biso   1.000  H
  H12      1.0000 0.82310  0.71000  0.82800  Biso   1.000  H
  H13      1.0000 0.99070  0.17930  0.21380  Biso   1.000  H
  H14      1.0000 0.00930  0.67930  0.78620  Biso   1.000  H
  H15      1.0000 0.00650  0.22260  0.04880  Biso   1.000  H
  H16      1.0000 0.99350  0.72260  0.95120  Biso   1.000  H
  C15      1.0000 0.48130  0.68150  0.90440  Biso   1.000  C
  C16      1.0000 0.51870  0.18150  0.09560  Biso   1.000  C
  C17      1.0000 0.73660  0.64930  0.39190  Biso   1.000  C
  C18      1.0000 0.26340  0.14930  0.60810  Biso   1.000  C
  C19      1.0000 0.78050  0.01450  0.45490  Biso   1.000  C
  C20      1.0000 0.21950  0.51450  0.54510  Biso   1.000  C
  H17      1.0000 0.80040  0.06950  0.41430  Biso   1.000  H
  H18      1.0000 0.19960  0.56950  0.58570  Biso   1.000  H
  C21      1.0000 0.91550  0.97520  0.55410  Biso   1.000  C
  C22      1.0000 0.08450  0.47520  0.44590  Biso   1.000  C
  H19      1.0000 0.02600  0.00180  0.57690  Biso   1.000  H
  H20      1.0000 0.97400  0.50180  0.42310  Biso   1.000  H
  C23      1.0000 0.88260  0.89650  0.61770  Biso   1.000  C
  C24      1.0000 0.11740  0.39650  0.38230  Biso   1.000  C
  H21      1.0000 0.96910  0.87020  0.68960  Biso   1.000  H
  H22      1.0000 0.03090  0.37020  0.31040  Biso   1.000  H
  C25      1.0000 0.72040  0.85500  0.57570  Biso   1.000  C
  C26      1.0000 0.27960  0.35500  0.42430  Biso   1.000  C
  H23      1.0000 0.69930  0.79980  0.61450  Biso   1.000  H
  H24      1.0000 0.30070  0.29980  0.38550  Biso   1.000  H
  C27      1.0000 0.58960  0.89820  0.47370  Biso   1.000  C
  C28      1.0000 0.41040  0.39820  0.52630  Biso   1.000  C
  C29      1.0000 0.40760  0.85830  0.41810  Biso   1.000  C
  C30      1.0000 0.59240  0.35830  0.58190  Biso   1.000  C
  H25      1.0000 0.41970  0.81720  0.33170  Biso   1.000  H
  H26      1.0000 0.58030  0.31720  0.66830  Biso   1.000  H
  C31      1.0000 0.33410  0.81080  0.55070  Biso   1.000  C
  C32      1.0000 0.66590  0.31080  0.44930  Biso   1.000  C
  H27      1.0000 0.21930  0.78710  0.51240  Biso   1.000  H
  H28      1.0000 0.78070  0.28710  0.48760  Biso   1.000  H
  H29      1.0000 0.32260  0.85050  0.63630  Biso   1.000  H
  H30      1.0000 0.67740  0.35050  0.36370  Biso   1.000  H
  H31      1.0000 0.41330  0.76430  0.58800  Biso   1.000  H
  H32      1.0000 0.58670  0.26430  0.41200  Biso   1.000  H
  C33      1.0000 0.90480  0.74820  0.26120  Biso   1.000  C
  C34      1.0000 0.09520  0.24820  0.73880  Biso   1.000  C
  C35      1.0000 0.34300  0.80520  0.00430  Biso   1.000  C
  C36      1.0000 0.65700  0.30520  0.99570  Biso   1.000  C
  Cu1      1.0000 0.08165  0.92585  0.19818  Biso   1.000  Cu
  Cu2      1.0000 0.91835  0.42585  0.80182  Biso   1.000  Cu
  Cu3      1.0000 0.40716  0.03194  0.29906  Biso   1.000  Cu
  Cu4      1.0000 0.59284  0.53194  0.70094  Biso   1.000  Cu
  N1       1.0000 0.88220  0.97710  0.04990  Biso   1.000  N
  N2       1.0000 0.11780  0.47710  0.95010  Biso   1.000  N
  N3       1.0000 0.62110  0.97630  0.41460  Biso   1.000  N
  N4       1.0000 0.37890  0.47630  0.58540  Biso   1.000  N
  N5       1.0000 0.23210  0.85680  0.00520  Biso   1.000  N
  N6       1.0000 0.76790  0.35680  0.99480  Biso   1.000  N
  N7       1.0000 0.47240  0.74710  0.99680  Biso   1.000  N
  N8       1.0000 0.52760  0.24710  0.00320  Biso   1.000  N
  N9       1.0000 0.96770  0.81890  0.24950  Biso   1.000  N
  N10      1.0000 0.03230  0.31890  0.75050  Biso   1.000  N
  N11      1.0000 0.48060  0.62480  0.81410  Biso   1.000  N
  N12      1.0000 0.51940  0.12480  0.18590  Biso   1.000  N
  N13      1.0000 0.65450  0.62420  0.49620  Biso   1.000  N
  N14      1.0000 0.34550  0.12420  0.50380  Biso   1.000  N
  N15      1.0000 0.82370  0.67170  0.27340  Biso   1.000  N
  N16      1.0000 0.17630  0.17170  0.72660  Biso   1.000  N
  O1       1.0000 0.17500  0.03850  0.18090  Biso   1.000  O
  O2       1.0000 0.82500  0.53850  0.81910  Biso   1.000  O
  O3       1.0000 0.29200  0.92520  0.36060  Biso   1.000  O
  O4       1.0000 0.70800  0.42520  0.63940  Biso   1.000  O
