data_image0
_cell_length_a       13.199
_cell_length_b       13.631
_cell_length_c       9.65
_cell_angle_alpha    90
_cell_angle_beta     104.556
_cell_angle_gamma    90

_symmetry_space_group_name_H-M    "P 1"
_symmetry_int_tables_number       1

loop_
  _symmetry_equiv_pos_as_xyz
  'x, y, z'

loop_
  _atom_site_label
  _atom_site_occupancy
  _atom_site_fract_x
  _atom_site_fract_y
  _atom_site_fract_z
  _atom_site_thermal_displace_type
  _atom_site_B_iso_or_equiv
  _atom_site_type_symbol
  Cu1      1.0000 0.58912  0.58158  0.95514  Biso   1.000  Cu
  Cu2      1.0000 0.58912  0.91842  0.45514  Biso   1.000  Cu
  Cu3      1.0000 0.41088  0.41842  0.04486  Biso   1.000  Cu
  Cu4      1.0000 0.41088  0.08158  0.54486  Biso   1.000  Cu
  O1       1.0000 0.61060  0.71910  0.99920  Biso   1.000  O
  O2       1.0000 0.61060  0.78090  0.49920  Biso   1.000  O
  O3       1.0000 0.38940  0.28090  0.00080  Biso   1.000  O
  O4       1.0000 0.38940  0.21910  0.50080  Biso   1.000  O
  O5       1.0000 0.56490  0.86930  0.92080  Biso   1.000  O
  O6       1.0000 0.56490  0.63070  0.42080  Biso   1.000  O
  O7       1.0000 0.43510  0.13070  0.07920  Biso   1.000  O
  O8       1.0000 0.43510  0.36930  0.57920  Biso   1.000  O
  O9       1.0000 0.45280  0.94390  0.58980  Biso   1.000  O
  O10      1.0000 0.45280  0.55610  0.08980  Biso   1.000  O
  O11      1.0000 0.54720  0.05610  0.41020  Biso   1.000  O
  O12      1.0000 0.54720  0.44390  0.91020  Biso   1.000  O
  O13      1.0000 0.34060  0.92990  0.72540  Biso   1.000  O
  O14      1.0000 0.34060  0.57010  0.22540  Biso   1.000  O
  O15      1.0000 0.65940  0.07010  0.27460  Biso   1.000  O
  O16      1.0000 0.65940  0.42990  0.77460  Biso   1.000  O
  O17      1.0000 0.91900  0.49300  0.62500  Biso   1.000  O
  O18      1.0000 0.91900  0.00700  0.12500  Biso   1.000  O
  O19      1.0000 0.08100  0.50700  0.37500  Biso   1.000  O
  O20      1.0000 0.08100  0.99300  0.87500  Biso   1.000  O
  O21      1.0000 0.94400  0.39100  0.55300  Biso   1.000  O
  O22      1.0000 0.94400  0.10900  0.05300  Biso   1.000  O
  O23      1.0000 0.05600  0.60900  0.44700  Biso   1.000  O
  O24      1.0000 0.05600  0.89100  0.94700  Biso   1.000  O
  O25      1.0000 0.71330  0.62060  0.72200  Biso   1.000  O
  O26      1.0000 0.71330  0.87940  0.22200  Biso   1.000  O
  O27      1.0000 0.28670  0.37940  0.27800  Biso   1.000  O
  O28      1.0000 0.28670  0.12060  0.77800  Biso   1.000  O
  O29      1.0000 0.91800  0.82500  0.26700  Biso   1.000  O
  O30      1.0000 0.91800  0.67500  0.76700  Biso   1.000  O
  O31      1.0000 0.08200  0.17500  0.73300  Biso   1.000  O
  O32      1.0000 0.08200  0.32500  0.23300  Biso   1.000  O
  O33      1.0000 0.14800  0.66000  0.22900  Biso   1.000  O
  O34      1.0000 0.14800  0.84000  0.72900  Biso   1.000  O
  O35      1.0000 0.85200  0.34000  0.77100  Biso   1.000  O
  O36      1.0000 0.85200  0.16000  0.27100  Biso   1.000  O
  O37      1.0000 0.99600  0.69600  0.04300  Biso   1.000  O
  O38      1.0000 0.99600  0.80400  0.54300  Biso   1.000  O
  O39      1.0000 0.00400  0.30400  0.95700  Biso   1.000  O
  O40      1.0000 0.00400  0.19600  0.45700  Biso   1.000  O
  N1       1.0000 0.48820  0.63610  0.77860  Biso   1.000  N
  N2       1.0000 0.48820  0.86390  0.27860  Biso   1.000  N
  N3       1.0000 0.51180  0.36390  0.22140  Biso   1.000  N
  N4       1.0000 0.51180  0.13610  0.72140  Biso   1.000  N
  N5       1.0000 0.35770  0.73930  0.55850  Biso   1.000  N
  N6       1.0000 0.35770  0.76070  0.05850  Biso   1.000  N
  N7       1.0000 0.64230  0.26070  0.44150  Biso   1.000  N
  N8       1.0000 0.64230  0.23930  0.94150  Biso   1.000  N
  N9       1.0000 0.70800  0.54680  0.12210  Biso   1.000  N
  N10      1.0000 0.70800  0.95320  0.62210  Biso   1.000  N
  N11      1.0000 0.29200  0.45320  0.87790  Biso   1.000  N
  N12      1.0000 0.29200  0.04680  0.37790  Biso   1.000  N
  C1       1.0000 0.48470  0.73460  0.78150  Biso   1.000  C
  C2       1.0000 0.48470  0.76540  0.28150  Biso   1.000  C
  C3       1.0000 0.51530  0.26540  0.21850  Biso   1.000  C
  C4       1.0000 0.51530  0.23460  0.71850  Biso   1.000  C
  C5       1.0000 0.41880  0.78490  0.66980  Biso   1.000  C
  C6       1.0000 0.41880  0.71510  0.16980  Biso   1.000  C
  C7       1.0000 0.58120  0.21510  0.33020  Biso   1.000  C
  C8       1.0000 0.58120  0.28490  0.83020  Biso   1.000  C
  C9       1.0000 0.36080  0.64170  0.55870  Biso   1.000  C
  C10      1.0000 0.36080  0.85830  0.05870  Biso   1.000  C
  C11      1.0000 0.63920  0.35830  0.44130  Biso   1.000  C
  C12      1.0000 0.63920  0.14170  0.94130  Biso   1.000  C
  C13      1.0000 0.42640  0.58970  0.66830  Biso   1.000  C
  C14      1.0000 0.42640  0.91030  0.16830  Biso   1.000  C
  C15      1.0000 0.57360  0.41030  0.33170  Biso   1.000  C
  C16      1.0000 0.57360  0.08970  0.83170  Biso   1.000  C
  C17      1.0000 0.55820  0.78040  0.90980  Biso   1.000  C
  C18      1.0000 0.55820  0.71960  0.40980  Biso   1.000  C
  C19      1.0000 0.44180  0.21960  0.09020  Biso   1.000  C
  C20      1.0000 0.44180  0.28040  0.59020  Biso   1.000  C
  C21      1.0000 0.40410  0.89610  0.66570  Biso   1.000  C
  C22      1.0000 0.40410  0.60390  0.16570  Biso   1.000  C
  C23      1.0000 0.59590  0.10390  0.33430  Biso   1.000  C
  C24      1.0000 0.59590  0.39610  0.83430  Biso   1.000  C
  C25      1.0000 0.75570  0.46030  0.14350  Biso   1.000  C
  C26      1.0000 0.75570  0.03970  0.64350  Biso   1.000  C
  C27      1.0000 0.24430  0.53970  0.85650  Biso   1.000  C
  C28      1.0000 0.24430  0.96030  0.35650  Biso   1.000  C
  C29      1.0000 0.83630  0.43650  0.25930  Biso   1.000  C
  C30      1.0000 0.83630  0.06350  0.75930  Biso   1.000  C
  C31      1.0000 0.16370  0.56350  0.74070  Biso   1.000  C
  C32      1.0000 0.16370  0.93650  0.24070  Biso   1.000  C
  C33      1.0000 0.86680  0.50240  0.36790  Biso   1.000  C
  C34      1.0000 0.86680  0.99760  0.86790  Biso   1.000  C
  C35      1.0000 0.13320  0.49760  0.63210  Biso   1.000  C
  C36      1.0000 0.13320  0.00240  0.13210  Biso   1.000  C
  C37      1.0000 0.81180  0.58910  0.35500  Biso   1.000  C
  C38      1.0000 0.81180  0.91090  0.85500  Biso   1.000  C
  C39      1.0000 0.18820  0.41090  0.64500  Biso   1.000  C
  C40      1.0000 0.18820  0.08910  0.14500  Biso   1.000  C
  C41      1.0000 0.73530  0.60860  0.23240  Biso   1.000  C
  C42      1.0000 0.73530  0.89140  0.73240  Biso   1.000  C
  C43      1.0000 0.26470  0.39140  0.76760  Biso   1.000  C
  C44      1.0000 0.26470  0.10860  0.26760  Biso   1.000  C
  C45      1.0000 0.94930  0.48100  0.50800  Biso   1.000  C
  C46      1.0000 0.94930  0.01900  0.00800  Biso   1.000  C
  C47      1.0000 0.05070  0.51900  0.49200  Biso   1.000  C
  C48      1.0000 0.05070  0.98100  0.99200  Biso   1.000  C
  H1       1.0000 0.31730  0.60660  0.48120  Biso   1.000  H
  H2       1.0000 0.31730  0.89340  0.98120  Biso   1.000  H
  H3       1.0000 0.68270  0.39340  0.51880  Biso   1.000  H
  H4       1.0000 0.68270  0.10660  0.01880  Biso   1.000  H
  H5       1.0000 0.42710  0.52000  0.66480  Biso   1.000  H
  H6       1.0000 0.42710  0.98000  0.16480  Biso   1.000  H
  H7       1.0000 0.57290  0.48000  0.33520  Biso   1.000  H
  H8       1.0000 0.57290  0.02000  0.83520  Biso   1.000  H
  H9       1.0000 0.73330  0.41090  0.07230  Biso   1.000  H
  H10      1.0000 0.73330  0.08910  0.57230  Biso   1.000  H
  H11      1.0000 0.26670  0.58910  0.92770  Biso   1.000  H
  H12      1.0000 0.26670  0.91090  0.42770  Biso   1.000  H
  H13      1.0000 0.87020  0.37520  0.26410  Biso   1.000  H
  H14      1.0000 0.87020  0.12480  0.76410  Biso   1.000  H
  H15      1.0000 0.12980  0.62480  0.73590  Biso   1.000  H
  H16      1.0000 0.12980  0.87520  0.23590  Biso   1.000  H
  H17      1.0000 0.82550  0.63530  0.43200  Biso   1.000  H
  H18      1.0000 0.82550  0.86470  0.93200  Biso   1.000  H
  H19      1.0000 0.17450  0.36470  0.56800  Biso   1.000  H
  H20      1.0000 0.17450  0.13530  0.06800  Biso   1.000  H
  H21      1.0000 0.70040  0.66980  0.22610  Biso   1.000  H
  H22      1.0000 0.70040  0.83020  0.72610  Biso   1.000  H
  H23      1.0000 0.29960  0.33020  0.77390  Biso   1.000  H
  H24      1.0000 0.29960  0.16980  0.27390  Biso   1.000  H
