data_image0
_cell_length_a       11.859
_cell_length_b       6.3786
_cell_length_c       10.7701
_cell_angle_alpha    90
_cell_angle_beta     95.931
_cell_angle_gamma    90

_symmetry_space_group_name_H-M    "P 1"
_symmetry_int_tables_number       1

loop_
  _symmetry_equiv_pos_as_xyz
  'x, y, z'

loop_
  _atom_site_label
  _atom_site_occupancy
  _atom_site_fract_x
  _atom_site_fract_y
  _atom_site_fract_z
  _atom_site_thermal_displace_type
  _atom_site_B_iso_or_equiv
  _atom_site_type_symbol
  Cu1      1.0000 0.54906  0.95775  0.87338  Biso   1.000  Cu
  Cu2      1.0000 0.45094  0.45775  0.62662  Biso   1.000  Cu
  Cu3      1.0000 0.45094  0.04225  0.12662  Biso   1.000  Cu
  Cu4      1.0000 0.54906  0.54225  0.37338  Biso   1.000  Cu
  N1       1.0000 0.40410  0.94980  0.95160  Biso   1.000  N
  N2       1.0000 0.59590  0.44980  0.54840  Biso   1.000  N
  N3       1.0000 0.59590  0.05020  0.04840  Biso   1.000  N
  N4       1.0000 0.40410  0.55020  0.45160  Biso   1.000  N
  N5       1.0000 0.31230  0.91970  0.89200  Biso   1.000  N
  N6       1.0000 0.68770  0.41970  0.60800  Biso   1.000  N
  N7       1.0000 0.68770  0.08030  0.10800  Biso   1.000  N
  N8       1.0000 0.31230  0.58030  0.39200  Biso   1.000  N
  N9       1.0000 0.22790  0.89310  0.83360  Biso   1.000  N
  N10      1.0000 0.77210  0.39310  0.66640  Biso   1.000  N
  N11      1.0000 0.77210  0.10690  0.16640  Biso   1.000  N
  N12      1.0000 0.22790  0.60690  0.33360  Biso   1.000  N
  N13      1.0000 0.48240  0.82840  0.71380  Biso   1.000  N
  N14      1.0000 0.51760  0.32840  0.78620  Biso   1.000  N
  N15      1.0000 0.51760  0.17160  0.28620  Biso   1.000  N
  N16      1.0000 0.48240  0.67160  0.21380  Biso   1.000  N
  N17      1.0000 0.42850  0.94410  0.64210  Biso   1.000  N
  N18      1.0000 0.57150  0.44410  0.85790  Biso   1.000  N
  N19      1.0000 0.57150  0.05590  0.35790  Biso   1.000  N
  N20      1.0000 0.42850  0.55590  0.14210  Biso   1.000  N
  N21      1.0000 0.37830  0.05230  0.57180  Biso   1.000  N
  N22      1.0000 0.62170  0.55230  0.92820  Biso   1.000  N
  N23      1.0000 0.62170  0.94770  0.42820  Biso   1.000  N
  N24      1.0000 0.37830  0.44770  0.07180  Biso   1.000  N
  N25      1.0000 0.70230  0.95930  0.81290  Biso   1.000  N
  N26      1.0000 0.29770  0.45930  0.68710  Biso   1.000  N
  N27      1.0000 0.29770  0.04070  0.18710  Biso   1.000  N
  N28      1.0000 0.70230  0.54070  0.31290  Biso   1.000  N
  N29      1.0000 0.79960  0.00580  0.88240  Biso   1.000  N
  N30      1.0000 0.20040  0.50580  0.61760  Biso   1.000  N
  N31      1.0000 0.20040  0.99420  0.11760  Biso   1.000  N
  N32      1.0000 0.79960  0.49420  0.38240  Biso   1.000  N
  N33      1.0000 0.88380  0.97520  0.81800  Biso   1.000  N
  N34      1.0000 0.11620  0.47520  0.68200  Biso   1.000  N
  N35      1.0000 0.11620  0.02480  0.18200  Biso   1.000  N
  N36      1.0000 0.88380  0.52480  0.31800  Biso   1.000  N
  N37      1.0000 0.84100  0.90900  0.70630  Biso   1.000  N
  N38      1.0000 0.15900  0.40900  0.79370  Biso   1.000  N
  N39      1.0000 0.15900  0.09100  0.29370  Biso   1.000  N
  N40      1.0000 0.84100  0.59100  0.20630  Biso   1.000  N
  C1       1.0000 0.73120  0.90210  0.70470  Biso   1.000  C
  C2       1.0000 0.26880  0.40210  0.79530  Biso   1.000  C
  C3       1.0000 0.26880  0.09790  0.29530  Biso   1.000  C
  C4       1.0000 0.73120  0.59790  0.20470  Biso   1.000  C
  H1       1.0000 0.68110  0.86240  0.63670  Biso   1.000  H
  H2       1.0000 0.31890  0.36240  0.86330  Biso   1.000  H
  H3       1.0000 0.31890  0.13760  0.36330  Biso   1.000  H
  H4       1.0000 0.68110  0.63760  0.13670  Biso   1.000  H
  C5       1.0000 0.91470  0.85720  0.60950  Biso   1.000  C
  C6       1.0000 0.08530  0.35720  0.89050  Biso   1.000  C
  C7       1.0000 0.08530  0.14280  0.39050  Biso   1.000  C
  C8       1.0000 0.91470  0.64280  0.10950  Biso   1.000  C
  H5       1.0000 0.97670  0.77180  0.64720  Biso   1.000  H
  H6       1.0000 0.02330  0.27180  0.85280  Biso   1.000  H
  H7       1.0000 0.02330  0.22820  0.35280  Biso   1.000  H
  H8       1.0000 0.97670  0.72820  0.14720  Biso   1.000  H
  H9       1.0000 0.87160  0.77170  0.54690  Biso   1.000  H
  H10      1.0000 0.12840  0.27170  0.95310  Biso   1.000  H
  H11      1.0000 0.12840  0.22830  0.45310  Biso   1.000  H
  H12      1.0000 0.87160  0.72830  0.04690  Biso   1.000  H
  C9       1.0000 0.96120  0.02570  0.54840  Biso   1.000  C
  C10      1.0000 0.03880  0.52570  0.95160  Biso   1.000  C
  C11      1.0000 0.03880  0.97430  0.45160  Biso   1.000  C
  C12      1.0000 0.96120  0.47430  0.04840  Biso   1.000  C
  H13      1.0000 0.00260  0.11310  0.61120  Biso   1.000  H
  H14      1.0000 0.99740  0.61310  0.88880  Biso   1.000  H
  H15      1.0000 0.99740  0.88690  0.38880  Biso   1.000  H
  H16      1.0000 0.00260  0.38690  0.11120  Biso   1.000  H
  H17      1.0000 0.89910  0.10910  0.50900  Biso   1.000  H
  H18      1.0000 0.10090  0.60910  0.99100  Biso   1.000  H
  H19      1.0000 0.10090  0.89090  0.49100  Biso   1.000  H
  H20      1.0000 0.89910  0.39090  0.00900  Biso   1.000  H
