data_image0
_cell_length_a       10.5567
_cell_length_b       6.3046
_cell_length_c       10.8182
_cell_angle_alpha    90
_cell_angle_beta     95.092
_cell_angle_gamma    90

_symmetry_space_group_name_H-M    "P 1"
_symmetry_int_tables_number       1

loop_
  _symmetry_equiv_pos_as_xyz
  'x, y, z'

loop_
  _atom_site_label
  _atom_site_occupancy
  _atom_site_fract_x
  _atom_site_fract_y
  _atom_site_fract_z
  _atom_site_thermal_displace_type
  _atom_site_B_iso_or_equiv
  _atom_site_type_symbol
  Cu1      1.0000 0.55590  0.03767  0.13714  Biso   1.000  Cu
  Cu2      1.0000 0.44410  0.53767  0.36286  Biso   1.000  Cu
  Cu3      1.0000 0.44410  0.96233  0.86286  Biso   1.000  Cu
  Cu4      1.0000 0.55590  0.46233  0.63714  Biso   1.000  Cu
  N1       1.0000 0.39319  0.05320  0.02921  Biso   1.000  N
  N2       1.0000 0.60681  0.55320  0.47079  Biso   1.000  N
  N3       1.0000 0.60681  0.94680  0.97079  Biso   1.000  N
  N4       1.0000 0.39319  0.44680  0.52921  Biso   1.000  N
  N5       1.0000 0.29046  0.06880  0.07085  Biso   1.000  N
  N6       1.0000 0.70954  0.56880  0.42915  Biso   1.000  N
  N7       1.0000 0.70954  0.93120  0.92915  Biso   1.000  N
  N8       1.0000 0.29046  0.43120  0.57085  Biso   1.000  N
  N9       1.0000 0.19610  0.08440  0.11250  Biso   1.000  N
  N10      1.0000 0.80390  0.58440  0.38750  Biso   1.000  N
  N11      1.0000 0.80390  0.91560  0.88750  Biso   1.000  N
  N12      1.0000 0.19610  0.41560  0.61250  Biso   1.000  N
  N13      1.0000 0.48326  0.16400  0.28524  Biso   1.000  N
  N14      1.0000 0.51674  0.66400  0.21476  Biso   1.000  N
  N15      1.0000 0.51674  0.83600  0.71476  Biso   1.000  N
  N16      1.0000 0.48326  0.33600  0.78524  Biso   1.000  N
  N17      1.0000 0.42030  0.05000  0.34400  Biso   1.000  N
  N18      1.0000 0.57970  0.55000  0.15600  Biso   1.000  N
  N19      1.0000 0.57970  0.95000  0.65600  Biso   1.000  N
  N20      1.0000 0.42030  0.45000  0.84400  Biso   1.000  N
  N21      1.0000 0.36040  0.94450  0.40270  Biso   1.000  N
  N22      1.0000 0.63960  0.44450  0.09730  Biso   1.000  N
  N23      1.0000 0.63960  0.05550  0.59730  Biso   1.000  N
  N24      1.0000 0.36040  0.55550  0.90270  Biso   1.000  N
  N25      1.0000 0.72908  0.02880  0.22720  Biso   1.000  N
  N26      1.0000 0.27092  0.52880  0.27280  Biso   1.000  N
  N27      1.0000 0.27092  0.97120  0.77280  Biso   1.000  N
  N28      1.0000 0.72908  0.47120  0.72720  Biso   1.000  N
  N29      1.0000 0.83730  0.97650  0.17650  Biso   1.000  N
  N30      1.0000 0.16270  0.47650  0.32350  Biso   1.000  N
  N31      1.0000 0.16270  0.02350  0.82350  Biso   1.000  N
  N32      1.0000 0.83730  0.52350  0.67650  Biso   1.000  N
  N33      1.0000 0.93340  0.99420  0.25750  Biso   1.000  N
  N34      1.0000 0.06660  0.49420  0.24250  Biso   1.000  N
  N35      1.0000 0.06660  0.00580  0.74250  Biso   1.000  N
  N36      1.0000 0.93340  0.50580  0.75750  Biso   1.000  N
  N37      1.0000 0.88760  0.06140  0.36231  Biso   1.000  N
  N38      1.0000 0.11240  0.56140  0.13769  Biso   1.000  N
  N39      1.0000 0.11240  0.93860  0.63769  Biso   1.000  N
  N40      1.0000 0.88760  0.43860  0.86231  Biso   1.000  N
  C1       1.0000 0.76310  0.08110  0.34340  Biso   1.000  C
  C2       1.0000 0.23690  0.58110  0.15660  Biso   1.000  C
  C3       1.0000 0.23690  0.91890  0.65660  Biso   1.000  C
  C4       1.0000 0.76310  0.41890  0.84340  Biso   1.000  C
  H1       1.0000 0.70880  0.12420  0.40180  Biso   1.000  H
  H2       1.0000 0.29120  0.62420  0.09820  Biso   1.000  H
  H3       1.0000 0.29120  0.87580  0.59820  Biso   1.000  H
  H4       1.0000 0.70880  0.37580  0.90180  Biso   1.000  H
  C5       1.0000 0.97340  0.10280  0.47490  Biso   1.000  C
  C6       1.0000 0.02660  0.60280  0.02510  Biso   1.000  C
  C7       1.0000 0.02660  0.89720  0.52510  Biso   1.000  C
  C8       1.0000 0.97340  0.39720  0.97490  Biso   1.000  C
  H5       1.0000 0.04200  0.18400  0.44800  Biso   1.000  H
  H6       1.0000 0.95800  0.68400  0.05200  Biso   1.000  H
  H7       1.0000 0.95800  0.81600  0.55200  Biso   1.000  H
  H8       1.0000 0.04200  0.31600  0.94800  Biso   1.000  H
  H9       1.0000 0.92800  0.16700  0.53000  Biso   1.000  H
  H10      1.0000 0.07200  0.66700  0.97000  Biso   1.000  H
  H11      1.0000 0.07200  0.83300  0.47000  Biso   1.000  H
  H12      1.0000 0.92800  0.33300  0.03000  Biso   1.000  H
