data_image0
_cell_length_a       9.5429
_cell_length_b       11.9046
_cell_length_c       17.3544
_cell_angle_alpha    90
_cell_angle_beta     96.285
_cell_angle_gamma    90

_symmetry_space_group_name_H-M    "P 1"
_symmetry_int_tables_number       1

loop_
  _symmetry_equiv_pos_as_xyz
  'x, y, z'

loop_
  _atom_site_label
  _atom_site_occupancy
  _atom_site_fract_x
  _atom_site_fract_y
  _atom_site_fract_z
  _atom_site_thermal_displace_type
  _atom_site_B_iso_or_equiv
  _atom_site_type_symbol
  Cu1      1.0000 0.41629  0.05532  0.08389  Biso   1.000  Cu
  Cu2      1.0000 0.08371  0.55532  0.41611  Biso   1.000  Cu
  Cu3      1.0000 0.58371  0.94468  0.91611  Biso   1.000  Cu
  Cu4      1.0000 0.91629  0.44468  0.58389  Biso   1.000  Cu
  O1       1.0000 0.58940  0.92040  0.18120  Biso   1.000  O
  O2       1.0000 0.91060  0.42040  0.31880  Biso   1.000  O
  O3       1.0000 0.41060  0.07960  0.81880  Biso   1.000  O
  O4       1.0000 0.08940  0.57960  0.68120  Biso   1.000  O
  O5       1.0000 0.72820  0.83670  0.10900  Biso   1.000  O
  O6       1.0000 0.77180  0.33670  0.39100  Biso   1.000  O
  O7       1.0000 0.27180  0.16330  0.89100  Biso   1.000  O
  O8       1.0000 0.22820  0.66330  0.60900  Biso   1.000  O
  O9       1.0000 0.56840  0.94800  0.05820  Biso   1.000  O
  O10      1.0000 0.93160  0.44800  0.44180  Biso   1.000  O
  O11      1.0000 0.43160  0.05200  0.94180  Biso   1.000  O
  O12      1.0000 0.06840  0.55200  0.55820  Biso   1.000  O
  O13      1.0000 0.25820  0.16880  0.08358  Biso   1.000  O
  O14      1.0000 0.24180  0.66880  0.41642  Biso   1.000  O
  O15      1.0000 0.74180  0.83120  0.91642  Biso   1.000  O
  O16      1.0000 0.75820  0.33120  0.58358  Biso   1.000  O
  O17      1.0000 0.31380  0.11960  0.20197  Biso   1.000  O
  O18      1.0000 0.18620  0.61960  0.29803  Biso   1.000  O
  O19      1.0000 0.68620  0.88040  0.79803  Biso   1.000  O
  O20      1.0000 0.81380  0.38040  0.70197  Biso   1.000  O
  O21      1.0000 0.13770  0.23210  0.17255  Biso   1.000  O
  O22      1.0000 0.36230  0.73210  0.32745  Biso   1.000  O
  O23      1.0000 0.86230  0.76790  0.82745  Biso   1.000  O
  O24      1.0000 0.63770  0.26790  0.67255  Biso   1.000  O
  N1       1.0000 0.96820  0.59540  0.09812  Biso   1.000  N
  N2       1.0000 0.53180  0.09540  0.40188  Biso   1.000  N
  N3       1.0000 0.03180  0.40460  0.90188  Biso   1.000  N
  N4       1.0000 0.46820  0.90460  0.59812  Biso   1.000  N
  N5       1.0000 0.27330  0.93300  0.07594  Biso   1.000  N
  N6       1.0000 0.22670  0.43300  0.42406  Biso   1.000  N
  N7       1.0000 0.72670  0.06700  0.92406  Biso   1.000  N
  N8       1.0000 0.77330  0.56700  0.57594  Biso   1.000  N
  N9       1.0000 0.55660  0.17830  0.09917  Biso   1.000  N
  N10      1.0000 0.94340  0.67830  0.40083  Biso   1.000  N
  N11      1.0000 0.44340  0.82170  0.90083  Biso   1.000  N
  N12      1.0000 0.05660  0.32170  0.59917  Biso   1.000  N
  N13      1.0000 0.86000  0.51750  0.07685  Biso   1.000  N
  N14      1.0000 0.64000  0.01750  0.42315  Biso   1.000  N
  N15      1.0000 0.14000  0.48250  0.92315  Biso   1.000  N
  N16      1.0000 0.36000  0.98250  0.57685  Biso   1.000  N
  N17      1.0000 0.63130  0.89930  0.11842  Biso   1.000  N
  N18      1.0000 0.86870  0.39930  0.38158  Biso   1.000  N
  N19      1.0000 0.36870  0.10070  0.88158  Biso   1.000  N
  N20      1.0000 0.13130  0.60070  0.61842  Biso   1.000  N
  N21      1.0000 0.23560  0.17490  0.15480  Biso   1.000  N
  N22      1.0000 0.26440  0.67490  0.34520  Biso   1.000  N
  N23      1.0000 0.76440  0.82510  0.84520  Biso   1.000  N
  N24      1.0000 0.73560  0.32510  0.65480  Biso   1.000  N
  C1       1.0000 0.96780  0.67330  0.04930  Biso   1.000  C
  C2       1.0000 0.53220  0.17330  0.45070  Biso   1.000  C
  C3       1.0000 0.03220  0.32670  0.95070  Biso   1.000  C
  C4       1.0000 0.46780  0.82670  0.54930  Biso   1.000  C
  H1       1.0000 0.90075  0.67379  0.00620  Biso   1.000  H
  H2       1.0000 0.59925  0.17379  0.49380  Biso   1.000  H
  H3       1.0000 0.09925  0.32621  0.99380  Biso   1.000  H
  H4       1.0000 0.40075  0.82621  0.50620  Biso   1.000  H
  C5       1.0000 0.07270  0.76360  0.06030  Biso   1.000  C
  C6       1.0000 0.42730  0.26360  0.43970  Biso   1.000  C
  C7       1.0000 0.92730  0.23640  0.93970  Biso   1.000  C
  C8       1.0000 0.57270  0.73640  0.56030  Biso   1.000  C
  C9       1.0000 0.07850  0.84490  0.00430  Biso   1.000  C
  C10      1.0000 0.42150  0.34490  0.49570  Biso   1.000  C
  C11      1.0000 0.92150  0.15510  0.99570  Biso   1.000  C
  C12      1.0000 0.57850  0.65510  0.50430  Biso   1.000  C
  H5       1.0000 0.01458  0.84366  0.95979  Biso   1.000  H
  H6       1.0000 0.48542  0.34366  0.54021  Biso   1.000  H
  H7       1.0000 0.98542  0.15634  0.04021  Biso   1.000  H
  H8       1.0000 0.51458  0.65634  0.45979  Biso   1.000  H
  C13      1.0000 0.17840  0.92760  0.01420  Biso   1.000  C
  C14      1.0000 0.32160  0.42760  0.48580  Biso   1.000  C
  C15      1.0000 0.82160  0.07240  0.98580  Biso   1.000  C
  C16      1.0000 0.67840  0.57240  0.51420  Biso   1.000  C
  H9       1.0000 0.17979  0.98233  0.97606  Biso   1.000  H
  H10      1.0000 0.32021  0.48233  0.52394  Biso   1.000  H
  H11      1.0000 0.82021  0.01767  0.02394  Biso   1.000  H
  H12      1.0000 0.67979  0.51767  0.47606  Biso   1.000  H
  C17      1.0000 0.26720  0.85510  0.13040  Biso   1.000  C
  C18      1.0000 0.23280  0.35510  0.36960  Biso   1.000  C
  C19      1.0000 0.73280  0.14490  0.86960  Biso   1.000  C
  C20      1.0000 0.76720  0.64490  0.63040  Biso   1.000  C
  H13      1.0000 0.33224  0.85847  0.17437  Biso   1.000  H
  H14      1.0000 0.16776  0.35847  0.32563  Biso   1.000  H
  H15      1.0000 0.66776  0.14153  0.82563  Biso   1.000  H
  H16      1.0000 0.83224  0.64153  0.67437  Biso   1.000  H
  C21      1.0000 0.17010  0.77030  0.12490  Biso   1.000  C
  C22      1.0000 0.32990  0.27030  0.37510  Biso   1.000  C
  C23      1.0000 0.82990  0.22970  0.87510  Biso   1.000  C
  C24      1.0000 0.67010  0.72970  0.62490  Biso   1.000  C
  H17      1.0000 0.16963  0.71758  0.16444  Biso   1.000  H
  H18      1.0000 0.33037  0.21758  0.33556  Biso   1.000  H
  H19      1.0000 0.83037  0.28242  0.83556  Biso   1.000  H
  H20      1.0000 0.66963  0.78242  0.66444  Biso   1.000  H
  C25      1.0000 0.55670  0.26020  0.04730  Biso   1.000  C
  C26      1.0000 0.94330  0.76020  0.45270  Biso   1.000  C
  C27      1.0000 0.44330  0.73980  0.95270  Biso   1.000  C
  C28      1.0000 0.05670  0.23980  0.54730  Biso   1.000  C
  H21      1.0000 0.48784  0.25940  0.00503  Biso   1.000  H
  H22      1.0000 0.01216  0.75940  0.49497  Biso   1.000  H
  H23      1.0000 0.51216  0.74060  0.99497  Biso   1.000  H
  H24      1.0000 0.98784  0.24060  0.50503  Biso   1.000  H
  C29      1.0000 0.65320  0.34580  0.05290  Biso   1.000  C
  C30      1.0000 0.84680  0.84580  0.44710  Biso   1.000  C
  C31      1.0000 0.34680  0.65420  0.94710  Biso   1.000  C
  C32      1.0000 0.15320  0.15420  0.55290  Biso   1.000  C
  H25      1.0000 0.64953  0.40136  0.01508  Biso   1.000  H
  H26      1.0000 0.85047  0.90136  0.48492  Biso   1.000  H
  H27      1.0000 0.35047  0.59864  0.98492  Biso   1.000  H
  H28      1.0000 0.14953  0.09864  0.51508  Biso   1.000  H
  C33      1.0000 0.75590  0.34840  0.11550  Biso   1.000  C
  C34      1.0000 0.74410  0.84840  0.38450  Biso   1.000  C
  C35      1.0000 0.24410  0.65160  0.88450  Biso   1.000  C
  C36      1.0000 0.25590  0.15160  0.61550  Biso   1.000  C
  C37      1.0000 0.75400  0.26510  0.17030  Biso   1.000  C
  C38      1.0000 0.74600  0.76510  0.32970  Biso   1.000  C
  C39      1.0000 0.24600  0.73490  0.82970  Biso   1.000  C
  C40      1.0000 0.25400  0.23490  0.67030  Biso   1.000  C
  H29      1.0000 0.82032  0.26462  0.21373  Biso   1.000  H
  H30      1.0000 0.67968  0.76462  0.28627  Biso   1.000  H
  H31      1.0000 0.17968  0.73538  0.78627  Biso   1.000  H
  H32      1.0000 0.32032  0.23538  0.71373  Biso   1.000  H
  C41      1.0000 0.65340  0.18330  0.16010  Biso   1.000  C
  C42      1.0000 0.84660  0.68330  0.33990  Biso   1.000  C
  C43      1.0000 0.34660  0.81670  0.83990  Biso   1.000  C
  C44      1.0000 0.15340  0.31670  0.66010  Biso   1.000  C
  H33      1.0000 0.65275  0.12796  0.19792  Biso   1.000  H
  H34      1.0000 0.84725  0.62796  0.30208  Biso   1.000  H
  H35      1.0000 0.34725  0.87204  0.80208  Biso   1.000  H
  H36      1.0000 0.15275  0.37204  0.69792  Biso   1.000  H
  C45      1.0000 0.86260  0.43790  0.12560  Biso   1.000  C
  C46      1.0000 0.63740  0.93790  0.37440  Biso   1.000  C
  C47      1.0000 0.13740  0.56210  0.87440  Biso   1.000  C
  C48      1.0000 0.36260  0.06210  0.62560  Biso   1.000  C
  H37      1.0000 0.93187  0.43607  0.16763  Biso   1.000  H
  H38      1.0000 0.56813  0.93607  0.33237  Biso   1.000  H
  H39      1.0000 0.06813  0.56393  0.83237  Biso   1.000  H
  H40      1.0000 0.43187  0.06393  0.66763  Biso   1.000  H
  Cl1      1.0000 0.94457  0.11443  0.34904  Biso   1.000  Cl
  Cl2      1.0000 0.55543  0.61443  0.15096  Biso   1.000  Cl
  Cl3      1.0000 0.05543  0.88557  0.65096  Biso   1.000  Cl
  Cl4      1.0000 0.44457  0.38557  0.84904  Biso   1.000  Cl
  Cl5      1.0000 0.16894  0.95708  0.36150  Biso   1.000  Cl
  Cl6      1.0000 0.33106  0.45708  0.13850  Biso   1.000  Cl
  Cl7      1.0000 0.83106  0.04292  0.63850  Biso   1.000  Cl
  Cl8      1.0000 0.66894  0.54292  0.86150  Biso   1.000  Cl
  Cl9      1.0000 0.96849  0.96392  0.22538  Biso   1.000  Cl
  Cl10     1.0000 0.53151  0.46392  0.27462  Biso   1.000  Cl
  Cl11     1.0000 0.03151  0.03608  0.77462  Biso   1.000  Cl
  Cl12     1.0000 0.46849  0.53608  0.72538  Biso   1.000  Cl
  C49      1.0000 0.06040  0.04060  0.29920  Biso   1.000  C
  C50      1.0000 0.43960  0.54060  0.20080  Biso   1.000  C
  C51      1.0000 0.93960  0.95940  0.70080  Biso   1.000  C
  C52      1.0000 0.56040  0.45940  0.79920  Biso   1.000  C
  H41      1.0000 0.11988  0.09491  0.27548  Biso   1.000  H
  H42      1.0000 0.38012  0.59491  0.22452  Biso   1.000  H
  H43      1.0000 0.88012  0.90509  0.72452  Biso   1.000  H
  H44      1.0000 0.61988  0.40509  0.77548  Biso   1.000  H
