data_image0
_cell_length_a       9.4802
_cell_length_b       11.9554
_cell_length_c       16.3894
_cell_angle_alpha    90
_cell_angle_beta     92.085
_cell_angle_gamma    90

_symmetry_space_group_name_H-M    "P 1"
_symmetry_int_tables_number       1

loop_
  _symmetry_equiv_pos_as_xyz
  'x, y, z'

loop_
  _atom_site_label
  _atom_site_occupancy
  _atom_site_fract_x
  _atom_site_fract_y
  _atom_site_fract_z
  _atom_site_thermal_displace_type
  _atom_site_B_iso_or_equiv
  _atom_site_type_symbol
  Cu1      1.0000 0.39671  0.05936  0.41568  Biso   1.000  Cu
  Cu2      1.0000 0.10329  0.55936  0.08432  Biso   1.000  Cu
  Cu3      1.0000 0.60329  0.94064  0.58432  Biso   1.000  Cu
  Cu4      1.0000 0.89671  0.44064  0.91568  Biso   1.000  Cu
  N1       1.0000 0.53610  0.18010  0.40087  Biso   1.000  N
  N2       1.0000 0.96390  0.68010  0.09913  Biso   1.000  N
  N3       1.0000 0.46390  0.81990  0.59913  Biso   1.000  N
  N4       1.0000 0.03610  0.31990  0.90087  Biso   1.000  N
  C1       1.0000 0.55180  0.26120  0.45670  Biso   1.000  C
  C2       1.0000 0.94820  0.76120  0.04330  Biso   1.000  C
  C3       1.0000 0.44820  0.73880  0.54330  Biso   1.000  C
  C4       1.0000 0.05180  0.23880  0.95670  Biso   1.000  C
  H1       1.0000 0.49300  0.26040  0.50240  Biso   1.000  H
  H2       1.0000 0.00700  0.76040  0.99760  Biso   1.000  H
  H3       1.0000 0.50700  0.73960  0.49760  Biso   1.000  H
  H4       1.0000 0.99300  0.23960  0.00240  Biso   1.000  H
  C5       1.0000 0.64900  0.34540  0.45100  Biso   1.000  C
  C6       1.0000 0.85100  0.84540  0.04900  Biso   1.000  C
  C7       1.0000 0.35100  0.65460  0.54900  Biso   1.000  C
  C8       1.0000 0.14900  0.15460  0.95100  Biso   1.000  C
  H5       1.0000 0.65860  0.40070  0.49250  Biso   1.000  H
  H6       1.0000 0.84140  0.90070  0.00750  Biso   1.000  H
  H7       1.0000 0.34140  0.59930  0.50750  Biso   1.000  H
  H8       1.0000 0.15860  0.09930  0.99250  Biso   1.000  H
  C9       1.0000 0.73360  0.34870  0.38330  Biso   1.000  C
  C10      1.0000 0.76640  0.84870  0.11670  Biso   1.000  C
  C11      1.0000 0.26640  0.65130  0.61670  Biso   1.000  C
  C12      1.0000 0.23360  0.15130  0.88330  Biso   1.000  C
  C13      1.0000 0.71620  0.26550  0.32450  Biso   1.000  C
  C14      1.0000 0.78380  0.76550  0.17550  Biso   1.000  C
  C15      1.0000 0.28380  0.73450  0.67550  Biso   1.000  C
  C16      1.0000 0.21620  0.23450  0.82450  Biso   1.000  C
  H9       1.0000 0.77290  0.26510  0.27790  Biso   1.000  H
  H10      1.0000 0.72710  0.76510  0.22210  Biso   1.000  H
  H11      1.0000 0.22710  0.73490  0.72210  Biso   1.000  H
  H12      1.0000 0.27290  0.23490  0.77790  Biso   1.000  H
  C17      1.0000 0.61620  0.18400  0.33430  Biso   1.000  C
  C18      1.0000 0.88380  0.68400  0.16570  Biso   1.000  C
  C19      1.0000 0.38380  0.81600  0.66570  Biso   1.000  C
  C20      1.0000 0.11620  0.31600  0.83430  Biso   1.000  C
  H13      1.0000 0.60280  0.12870  0.29310  Biso   1.000  H
  H14      1.0000 0.89720  0.62870  0.20690  Biso   1.000  H
  H15      1.0000 0.39720  0.87130  0.70690  Biso   1.000  H
  H16      1.0000 0.10280  0.37130  0.79310  Biso   1.000  H
  C21      1.0000 0.83840  0.43800  0.37200  Biso   1.000  C
  C22      1.0000 0.66160  0.93800  0.12800  Biso   1.000  C
  C23      1.0000 0.16160  0.56200  0.62800  Biso   1.000  C
  C24      1.0000 0.33840  0.06200  0.87200  Biso   1.000  C
  H17      1.0000 0.91010  0.42950  0.33340  Biso   1.000  H
  H18      1.0000 0.58990  0.92950  0.16660  Biso   1.000  H
  H19      1.0000 0.08990  0.57050  0.66660  Biso   1.000  H
  H20      1.0000 0.41010  0.07050  0.83340  Biso   1.000  H
  N5       1.0000 0.83150  0.52660  0.41470  Biso   1.000  N
  N6       1.0000 0.66850  0.02660  0.08530  Biso   1.000  N
  N7       1.0000 0.16850  0.47340  0.58530  Biso   1.000  N
  N8       1.0000 0.33150  0.97340  0.91470  Biso   1.000  N
  N9       1.0000 0.93660  0.60430  0.39365  Biso   1.000  N
  N10      1.0000 0.56340  0.10430  0.10635  Biso   1.000  N
  N11      1.0000 0.06340  0.39570  0.60635  Biso   1.000  N
  N12      1.0000 0.43660  0.89570  0.89365  Biso   1.000  N
  C25      1.0000 0.94990  0.68080  0.44770  Biso   1.000  C
  C26      1.0000 0.55010  0.18080  0.05230  Biso   1.000  C
  C27      1.0000 0.05010  0.31920  0.55230  Biso   1.000  C
  C28      1.0000 0.44990  0.81920  0.94770  Biso   1.000  C
  H21      1.0000 0.89270  0.68040  0.49410  Biso   1.000  H
  H22      1.0000 0.60730  0.18040  0.00590  Biso   1.000  H
  H23      1.0000 0.10730  0.31960  0.50590  Biso   1.000  H
  H24      1.0000 0.39270  0.81960  0.99410  Biso   1.000  H
  C29      1.0000 0.05480  0.76950  0.43720  Biso   1.000  C
  C30      1.0000 0.44520  0.26950  0.06280  Biso   1.000  C
  C31      1.0000 0.94520  0.23050  0.56280  Biso   1.000  C
  C32      1.0000 0.55480  0.73050  0.93720  Biso   1.000  C
  C33      1.0000 0.13870  0.77570  0.36850  Biso   1.000  C
  C34      1.0000 0.36130  0.27570  0.13150  Biso   1.000  C
  C35      1.0000 0.86130  0.22430  0.63150  Biso   1.000  C
  C36      1.0000 0.63870  0.72430  0.86850  Biso   1.000  C
  H25      1.0000 0.12920  0.72140  0.32640  Biso   1.000  H
  H26      1.0000 0.37080  0.22140  0.17360  Biso   1.000  H
  H27      1.0000 0.87080  0.27860  0.67360  Biso   1.000  H
  H28      1.0000 0.62920  0.77860  0.82640  Biso   1.000  H
  C37      1.0000 0.23430  0.86070  0.36290  Biso   1.000  C
  C38      1.0000 0.26570  0.36070  0.13710  Biso   1.000  C
  C39      1.0000 0.76570  0.13930  0.63710  Biso   1.000  C
  C40      1.0000 0.73430  0.63930  0.86290  Biso   1.000  C
  H29      1.0000 0.28950  0.86480  0.31580  Biso   1.000  H
  H30      1.0000 0.21050  0.36480  0.18420  Biso   1.000  H
  H31      1.0000 0.71050  0.13520  0.68420  Biso   1.000  H
  H32      1.0000 0.78950  0.63520  0.81580  Biso   1.000  H
  N13      1.0000 0.25350  0.93890  0.42145  Biso   1.000  N
  N14      1.0000 0.24650  0.43890  0.07855  Biso   1.000  N
  N15      1.0000 0.74650  0.06110  0.57855  Biso   1.000  N
  N16      1.0000 0.75350  0.56110  0.92145  Biso   1.000  N
  C41      1.0000 0.17200  0.93380  0.48710  Biso   1.000  C
  C42      1.0000 0.32800  0.43380  0.01290  Biso   1.000  C
  C43      1.0000 0.82800  0.06620  0.51290  Biso   1.000  C
  C44      1.0000 0.67200  0.56620  0.98710  Biso   1.000  C
  H33      1.0000 0.18290  0.98950  0.52820  Biso   1.000  H
  H34      1.0000 0.31710  0.48950  0.97180  Biso   1.000  H
  H35      1.0000 0.81710  0.01050  0.47180  Biso   1.000  H
  H36      1.0000 0.68290  0.51050  0.02820  Biso   1.000  H
  C45      1.0000 0.07370  0.85070  0.49660  Biso   1.000  C
  C46      1.0000 0.42630  0.35070  0.00340  Biso   1.000  C
  C47      1.0000 0.92630  0.14930  0.50340  Biso   1.000  C
  C48      1.0000 0.57370  0.64930  0.99660  Biso   1.000  C
  H37      1.0000 0.01880  0.84910  0.54390  Biso   1.000  H
  H38      1.0000 0.48120  0.34910  0.95610  Biso   1.000  H
  H39      1.0000 0.98120  0.15090  0.45610  Biso   1.000  H
  H40      1.0000 0.51880  0.65090  0.04390  Biso   1.000  H
  O1       1.0000 0.11520  0.26420  0.33151  Biso   1.000  O
  O2       1.0000 0.38480  0.76420  0.16849  Biso   1.000  O
  O3       1.0000 0.88480  0.73580  0.66849  Biso   1.000  O
  O4       1.0000 0.61520  0.23580  0.83151  Biso   1.000  O
  N17      1.0000 0.20800  0.19550  0.34683  Biso   1.000  N
  N18      1.0000 0.29200  0.69550  0.15317  Biso   1.000  N
  N19      1.0000 0.79200  0.80450  0.65317  Biso   1.000  N
  N20      1.0000 0.70800  0.30450  0.84683  Biso   1.000  N
  O5       1.0000 0.27080  0.14200  0.29375  Biso   1.000  O
  O6       1.0000 0.22920  0.64200  0.20625  Biso   1.000  O
  O7       1.0000 0.72920  0.85800  0.70625  Biso   1.000  O
  O8       1.0000 0.77080  0.35800  0.79375  Biso   1.000  O
  O9       1.0000 0.24390  0.17476  0.42206  Biso   1.000  O
  O10      1.0000 0.25610  0.67476  0.07794  Biso   1.000  O
  O11      1.0000 0.75610  0.82524  0.57794  Biso   1.000  O
  O12      1.0000 0.74390  0.32524  0.92206  Biso   1.000  O
  N21      1.0000 0.59420  0.89590  0.37323  Biso   1.000  N
  N22      1.0000 0.90580  0.39590  0.12677  Biso   1.000  N
  N23      1.0000 0.40580  0.10410  0.62677  Biso   1.000  N
  N24      1.0000 0.09420  0.60410  0.87323  Biso   1.000  N
  O13      1.0000 0.68400  0.82320  0.38276  Biso   1.000  O
  O14      1.0000 0.81600  0.32320  0.11724  Biso   1.000  O
  O15      1.0000 0.31600  0.17680  0.61724  Biso   1.000  O
  O16      1.0000 0.18400  0.67680  0.88276  Biso   1.000  O
  O17      1.0000 0.53960  0.92260  0.30731  Biso   1.000  O
  O18      1.0000 0.96040  0.42260  0.19269  Biso   1.000  O
  O19      1.0000 0.46040  0.07740  0.69269  Biso   1.000  O
  O20      1.0000 0.03960  0.57740  0.80731  Biso   1.000  O
  O21      1.0000 0.55320  0.94809  0.43811  Biso   1.000  O
  O22      1.0000 0.94680  0.44809  0.06189  Biso   1.000  O
  O23      1.0000 0.44680  0.05191  0.56189  Biso   1.000  O
  O24      1.0000 0.05320  0.55191  0.93811  Biso   1.000  O
  C49      1.0000 0.00410  0.06910  0.18760  Biso   1.000  C
  C50      1.0000 0.49590  0.56910  0.31240  Biso   1.000  C
  C51      1.0000 0.99590  0.93090  0.81240  Biso   1.000  C
  C52      1.0000 0.50410  0.43090  0.68760  Biso   1.000  C
  H41      1.0000 0.92840  0.07660  0.14470  Biso   1.000  H
  H42      1.0000 0.57160  0.57660  0.35530  Biso   1.000  H
  H43      1.0000 0.07160  0.92340  0.85530  Biso   1.000  H
  H44      1.0000 0.42840  0.42340  0.64470  Biso   1.000  H
  H45      1.0000 0.04380  0.14430  0.19880  Biso   1.000  H
  H46      1.0000 0.45620  0.64430  0.30120  Biso   1.000  H
  H47      1.0000 0.95620  0.85570  0.80120  Biso   1.000  H
  H48      1.0000 0.54380  0.35570  0.69880  Biso   1.000  H
  Cl1      1.0000 0.13883  0.98000  0.15201  Biso   1.000  Cl
  Cl2      1.0000 0.36117  0.48000  0.34799  Biso   1.000  Cl
  Cl3      1.0000 0.86117  0.02000  0.84799  Biso   1.000  Cl
  Cl4      1.0000 0.63883  0.52000  0.65201  Biso   1.000  Cl
  Cl5      1.0000 0.93117  0.01390  0.27896  Biso   1.000  Cl
  Cl6      1.0000 0.56883  0.51390  0.22104  Biso   1.000  Cl
  Cl7      1.0000 0.06883  0.98610  0.72104  Biso   1.000  Cl
  Cl8      1.0000 0.43117  0.48610  0.77896  Biso   1.000  Cl
