data_image0
_cell_length_a       25.283
_cell_length_b       13.749
_cell_length_c       13.848
_cell_angle_alpha    90
_cell_angle_beta     122.75
_cell_angle_gamma    90

_symmetry_space_group_name_H-M    "P 1"
_symmetry_int_tables_number       1

loop_
  _symmetry_equiv_pos_as_xyz
  'x, y, z'

loop_
  _atom_site_label
  _atom_site_occupancy
  _atom_site_fract_x
  _atom_site_fract_y
  _atom_site_fract_z
  _atom_site_thermal_displace_type
  _atom_site_B_iso_or_equiv
  _atom_site_type_symbol
  W1       1.0000 0.44191  0.50000  0.09250  Biso   1.000  W
  W2       1.0000 0.94191  0.00000  0.09250  Biso   1.000  W
  W3       1.0000 0.55809  0.50000  0.90750  Biso   1.000  W
  W4       1.0000 0.05809  0.00000  0.90750  Biso   1.000  W
  W5       1.0000 0.58894  0.63425  0.27893  Biso   1.000  W
  W6       1.0000 0.08894  0.13425  0.27893  Biso   1.000  W
  W7       1.0000 0.41106  0.63425  0.72107  Biso   1.000  W
  W8       1.0000 0.91106  0.13425  0.72107  Biso   1.000  W
  W9       1.0000 0.41106  0.36575  0.72107  Biso   1.000  W
  W10      1.0000 0.91106  0.86575  0.72107  Biso   1.000  W
  W11      1.0000 0.58894  0.36575  0.27893  Biso   1.000  W
  W12      1.0000 0.08894  0.86575  0.27893  Biso   1.000  W
  W13      1.0000 0.37456  0.62040  0.20706  Biso   1.000  W
  W14      1.0000 0.87456  0.12040  0.20706  Biso   1.000  W
  W15      1.0000 0.62544  0.62040  0.79294  Biso   1.000  W
  W16      1.0000 0.12544  0.12040  0.79294  Biso   1.000  W
  W17      1.0000 0.62544  0.37960  0.79294  Biso   1.000  W
  W18      1.0000 0.12544  0.87960  0.79294  Biso   1.000  W
  W19      1.0000 0.37456  0.37960  0.20706  Biso   1.000  W
  W20      1.0000 0.87456  0.87960  0.20706  Biso   1.000  W
  W21      1.0000 0.52224  0.75847  0.39328  Biso   1.000  W
  W22      1.0000 0.02224  0.25847  0.39328  Biso   1.000  W
  W23      1.0000 0.47776  0.75847  0.60672  Biso   1.000  W
  W24      1.0000 0.97776  0.25847  0.60672  Biso   1.000  W
  W25      1.0000 0.47776  0.24153  0.60672  Biso   1.000  W
  W26      1.0000 0.97776  0.74153  0.60672  Biso   1.000  W
  W27      1.0000 0.52224  0.24153  0.39328  Biso   1.000  W
  W28      1.0000 0.02224  0.74153  0.39328  Biso   1.000  W
  W29      1.0000 0.65397  0.63511  0.56324  Biso   1.000  W
  W30      1.0000 0.15397  0.13511  0.56324  Biso   1.000  W
  W31      1.0000 0.34603  0.63511  0.43676  Biso   1.000  W
  W32      1.0000 0.84603  0.13511  0.43676  Biso   1.000  W
  W33      1.0000 0.34603  0.36489  0.43676  Biso   1.000  W
  W34      1.0000 0.84603  0.86489  0.43676  Biso   1.000  W
  W35      1.0000 0.65397  0.36489  0.56324  Biso   1.000  W
  W36      1.0000 0.15397  0.86489  0.56324  Biso   1.000  W
  As1      1.0000 0.51200  0.50000  0.41730  Biso   1.000  As
  As2      1.0000 0.01200  0.00000  0.41730  Biso   1.000  As
  As3      1.0000 0.48800  0.50000  0.58270  Biso   1.000  As
  As4      1.0000 0.98800  0.00000  0.58270  Biso   1.000  As
  Cu1      1.0000 0.50000  0.00000  0.50000  Biso   1.000  Cu
  Cu2      1.0000 0.00000  0.50000  0.50000  Biso   1.000  Cu
  O1       1.0000 0.50000  0.72380  0.50000  Biso   1.000  O
  O2       1.0000 0.00000  0.22380  0.50000  Biso   1.000  O
  O3       1.0000 0.50000  0.27620  0.50000  Biso   1.000  O
  O4       1.0000 0.00000  0.77620  0.50000  Biso   1.000  O
  O5       1.0000 0.50460  0.60080  0.15880  Biso   1.000  O
  O6       1.0000 0.00460  0.10080  0.15880  Biso   1.000  O
  O7       1.0000 0.49540  0.60080  0.84120  Biso   1.000  O
  O8       1.0000 0.99540  0.10080  0.84120  Biso   1.000  O
  O9       1.0000 0.49540  0.39920  0.84120  Biso   1.000  O
  O10      1.0000 0.99540  0.89920  0.84120  Biso   1.000  O
  O11      1.0000 0.50460  0.39920  0.15880  Biso   1.000  O
  O12      1.0000 0.00460  0.89920  0.15880  Biso   1.000  O
  O13      1.0000 0.66910  0.50000  0.56400  Biso   1.000  O
  O14      1.0000 0.16910  0.00000  0.56400  Biso   1.000  O
  O15      1.0000 0.33090  0.50000  0.43600  Biso   1.000  O
  O16      1.0000 0.83090  0.00000  0.43600  Biso   1.000  O
  O17      1.0000 0.61360  0.50000  0.29920  Biso   1.000  O
  O18      1.0000 0.11360  0.00000  0.29920  Biso   1.000  O
  O19      1.0000 0.38640  0.50000  0.70080  Biso   1.000  O
  O20      1.0000 0.88640  0.00000  0.70080  Biso   1.000  O
  O21      1.0000 0.44270  0.70880  0.27350  Biso   1.000  O
  O22      1.0000 0.94270  0.20880  0.27350  Biso   1.000  O
  O23      1.0000 0.55730  0.70880  0.72650  Biso   1.000  O
  O24      1.0000 0.05730  0.20880  0.72650  Biso   1.000  O
  O25      1.0000 0.55730  0.29120  0.72650  Biso   1.000  O
  O26      1.0000 0.05730  0.79120  0.72650  Biso   1.000  O
  O27      1.0000 0.44270  0.29120  0.27350  Biso   1.000  O
  O28      1.0000 0.94270  0.79120  0.27350  Biso   1.000  O
  O29      1.0000 0.38380  0.60870  0.35200  Biso   1.000  O
  O30      1.0000 0.88380  0.10870  0.35200  Biso   1.000  O
  O31      1.0000 0.61620  0.60870  0.64800  Biso   1.000  O
  O32      1.0000 0.11620  0.10870  0.64800  Biso   1.000  O
  O33      1.0000 0.61620  0.39130  0.64800  Biso   1.000  O
  O34      1.0000 0.11620  0.89130  0.64800  Biso   1.000  O
  O35      1.0000 0.38380  0.39130  0.35200  Biso   1.000  O
  O36      1.0000 0.88380  0.89130  0.35200  Biso   1.000  O
  O37      1.0000 0.38350  0.40020  0.07930  Biso   1.000  O
  O38      1.0000 0.88350  0.90020  0.07930  Biso   1.000  O
  O39      1.0000 0.61650  0.40020  0.92070  Biso   1.000  O
  O40      1.0000 0.11650  0.90020  0.92070  Biso   1.000  O
  O41      1.0000 0.61650  0.59980  0.92070  Biso   1.000  O
  O42      1.0000 0.11650  0.09980  0.92070  Biso   1.000  O
  O43      1.0000 0.38350  0.59980  0.07930  Biso   1.000  O
  O44      1.0000 0.88350  0.09980  0.07930  Biso   1.000  O
  O45      1.0000 0.31010  0.69610  0.13660  Biso   1.000  O
  O46      1.0000 0.81010  0.19610  0.13660  Biso   1.000  O
  O47      1.0000 0.68990  0.69610  0.86340  Biso   1.000  O
  O48      1.0000 0.18990  0.19610  0.86340  Biso   1.000  O
  O49      1.0000 0.68990  0.30390  0.86340  Biso   1.000  O
  O50      1.0000 0.18990  0.80390  0.86340  Biso   1.000  O
  O51      1.0000 0.31010  0.30390  0.13660  Biso   1.000  O
  O52      1.0000 0.81010  0.80390  0.13660  Biso   1.000  O
  O53      1.0000 0.50890  0.88010  0.38310  Biso   1.000  O
  O54      1.0000 0.00890  0.38010  0.38310  Biso   1.000  O
  O55      1.0000 0.49110  0.88010  0.61690  Biso   1.000  O
  O56      1.0000 0.99110  0.38010  0.61690  Biso   1.000  O
  O57      1.0000 0.49110  0.11990  0.61690  Biso   1.000  O
  O58      1.0000 0.99110  0.61990  0.61690  Biso   1.000  O
  O59      1.0000 0.50890  0.11990  0.38310  Biso   1.000  O
  O60      1.0000 0.00890  0.61990  0.38310  Biso   1.000  O
  O61      1.0000 0.60840  0.75750  0.51840  Biso   1.000  O
  O62      1.0000 0.10840  0.25750  0.51840  Biso   1.000  O
  O63      1.0000 0.39160  0.75750  0.48160  Biso   1.000  O
  O64      1.0000 0.89160  0.25750  0.48160  Biso   1.000  O
  O65      1.0000 0.39160  0.24250  0.48160  Biso   1.000  O
  O66      1.0000 0.89160  0.74250  0.48160  Biso   1.000  O
  O67      1.0000 0.60840  0.24250  0.51840  Biso   1.000  O
  O68      1.0000 0.10840  0.74250  0.51840  Biso   1.000  O
  O69      1.0000 0.44560  0.50000  0.26270  Biso   1.000  O
  O70      1.0000 0.94560  0.00000  0.26270  Biso   1.000  O
  O71      1.0000 0.55440  0.50000  0.73730  Biso   1.000  O
  O72      1.0000 0.05440  0.00000  0.73730  Biso   1.000  O
  O73      1.0000 0.41950  0.50000  0.95140  Biso   1.000  O
  O74      1.0000 0.91950  0.00000  0.95140  Biso   1.000  O
  O75      1.0000 0.58050  0.50000  0.04860  Biso   1.000  O
  O76      1.0000 0.08050  0.00000  0.04860  Biso   1.000  O
  O77      1.0000 0.65880  0.65250  0.43180  Biso   1.000  O
  O78      1.0000 0.15880  0.15250  0.43180  Biso   1.000  O
  O79      1.0000 0.34120  0.65250  0.56820  Biso   1.000  O
  O80      1.0000 0.84120  0.15250  0.56820  Biso   1.000  O
  O81      1.0000 0.34120  0.34750  0.56820  Biso   1.000  O
  O82      1.0000 0.84120  0.84750  0.56820  Biso   1.000  O
  O83      1.0000 0.65880  0.34750  0.43180  Biso   1.000  O
  O84      1.0000 0.15880  0.84750  0.43180  Biso   1.000  O
  O85      1.0000 0.55340  0.75370  0.29320  Biso   1.000  O
  O86      1.0000 0.05340  0.25370  0.29320  Biso   1.000  O
  O87      1.0000 0.44660  0.75370  0.70680  Biso   1.000  O
  O88      1.0000 0.94660  0.25370  0.70680  Biso   1.000  O
  O89      1.0000 0.44660  0.24630  0.70680  Biso   1.000  O
  O90      1.0000 0.94660  0.74630  0.70680  Biso   1.000  O
  O91      1.0000 0.55340  0.24630  0.29320  Biso   1.000  O
  O92      1.0000 0.05340  0.74630  0.29320  Biso   1.000  O
  O93      1.0000 0.55450  0.60120  0.40470  Biso   1.000  O
  O94      1.0000 0.05450  0.10120  0.40470  Biso   1.000  O
  O95      1.0000 0.44550  0.60120  0.59530  Biso   1.000  O
  O96      1.0000 0.94550  0.10120  0.59530  Biso   1.000  O
  O97      1.0000 0.44550  0.39880  0.59530  Biso   1.000  O
  O98      1.0000 0.94550  0.89880  0.59530  Biso   1.000  O
  O99      1.0000 0.55450  0.39880  0.40470  Biso   1.000  O
  O100     1.0000 0.05450  0.89880  0.40470  Biso   1.000  O
  O101     1.0000 0.62000  0.67490  0.20410  Biso   1.000  O
  O102     1.0000 0.12000  0.17490  0.20410  Biso   1.000  O
  O103     1.0000 0.38000  0.67490  0.79590  Biso   1.000  O
  O104     1.0000 0.88000  0.17490  0.79590  Biso   1.000  O
  O105     1.0000 0.38000  0.32510  0.79590  Biso   1.000  O
  O106     1.0000 0.88000  0.82510  0.79590  Biso   1.000  O
  O107     1.0000 0.62000  0.32510  0.20410  Biso   1.000  O
  O108     1.0000 0.12000  0.82510  0.20410  Biso   1.000  O
  O109     1.0000 0.32770  0.50000  0.16620  Biso   1.000  O
  O110     1.0000 0.82770  0.00000  0.16620  Biso   1.000  O
  O111     1.0000 0.67230  0.50000  0.83380  Biso   1.000  O
  O112     1.0000 0.17230  0.00000  0.83380  Biso   1.000  O
  O113     1.0000 0.72570  0.67710  0.66540  Biso   1.000  O
  O114     1.0000 0.22570  0.17710  0.66540  Biso   1.000  O
  O115     1.0000 0.27430  0.67710  0.33460  Biso   1.000  O
  O116     1.0000 0.77430  0.17710  0.33460  Biso   1.000  O
  O117     1.0000 0.27430  0.32290  0.33460  Biso   1.000  O
  O118     1.0000 0.77430  0.82290  0.33460  Biso   1.000  O
  O119     1.0000 0.72570  0.32290  0.66540  Biso   1.000  O
  O120     1.0000 0.22570  0.82290  0.66540  Biso   1.000  O
  O121     1.0000 0.85100  0.63680  0.85470  Biso   1.000  O
  O122     1.0000 0.35100  0.13680  0.85470  Biso   1.000  O
  O123     1.0000 0.14900  0.63680  0.14530  Biso   1.000  O
  O124     1.0000 0.64900  0.13680  0.14530  Biso   1.000  O
  O125     1.0000 0.14900  0.36320  0.14530  Biso   1.000  O
  O126     1.0000 0.64900  0.86320  0.14530  Biso   1.000  O
  O127     1.0000 0.85100  0.36320  0.85470  Biso   1.000  O
  O128     1.0000 0.35100  0.86320  0.85470  Biso   1.000  O
  O129     1.0000 0.71600  0.67080  0.13210  Biso   1.000  O
  O130     1.0000 0.21600  0.17080  0.13210  Biso   1.000  O
  O131     1.0000 0.28400  0.67080  0.86790  Biso   1.000  O
  O132     1.0000 0.78400  0.17080  0.86790  Biso   1.000  O
  O133     1.0000 0.28400  0.32920  0.86790  Biso   1.000  O
  O134     1.0000 0.78400  0.82920  0.86790  Biso   1.000  O
  O135     1.0000 0.71600  0.32920  0.13210  Biso   1.000  O
  O136     1.0000 0.21600  0.82920  0.13210  Biso   1.000  O
  O137     1.0000 0.99870  0.50000  0.81300  Biso   1.000  O
  O138     1.0000 0.49870  0.00000  0.81300  Biso   1.000  O
  O139     1.0000 0.00130  0.50000  0.18700  Biso   1.000  O
  O140     1.0000 0.50130  0.00000  0.18700  Biso   1.000  O
  O141     1.0000 0.96440  0.68400  0.05800  Biso   1.000  O
  O142     1.0000 0.46440  0.18400  0.05800  Biso   1.000  O
  O143     1.0000 0.03560  0.68400  0.94200  Biso   1.000  O
  O144     1.0000 0.53560  0.18400  0.94200  Biso   1.000  O
  O145     1.0000 0.03560  0.31600  0.94200  Biso   1.000  O
  O146     1.0000 0.53560  0.81600  0.94200  Biso   1.000  O
  O147     1.0000 0.96440  0.31600  0.05800  Biso   1.000  O
  O148     1.0000 0.46440  0.81600  0.05800  Biso   1.000  O
  N1       1.0000 0.40530  0.00000  0.40900  Biso   1.000  N
  N2       1.0000 0.90530  0.50000  0.40900  Biso   1.000  N
  N3       1.0000 0.59470  0.00000  0.59100  Biso   1.000  N
  N4       1.0000 0.09470  0.50000  0.59100  Biso   1.000  N
  H1       1.0000 0.39250  0.94730  0.42980  Biso   1.000  H
  H2       1.0000 0.89250  0.44730  0.42980  Biso   1.000  H
  H3       1.0000 0.60750  0.94730  0.57020  Biso   1.000  H
  H4       1.0000 0.10750  0.44730  0.57020  Biso   1.000  H
  H5       1.0000 0.60750  0.05270  0.57020  Biso   1.000  H
  H6       1.0000 0.10750  0.55270  0.57020  Biso   1.000  H
  H7       1.0000 0.39250  0.05270  0.42980  Biso   1.000  H
  H8       1.0000 0.89250  0.55270  0.42980  Biso   1.000  H
  N5       1.0000 0.30020  0.00000  0.92900  Biso   1.000  N
  N6       1.0000 0.80020  0.50000  0.92900  Biso   1.000  N
  N7       1.0000 0.69980  0.00000  0.07100  Biso   1.000  N
  N8       1.0000 0.19980  0.50000  0.07100  Biso   1.000  N
  H9       1.0000 0.31640  0.95060  0.91230  Biso   1.000  H
  H10      1.0000 0.81640  0.45060  0.91230  Biso   1.000  H
  H11      1.0000 0.68360  0.95060  0.08770  Biso   1.000  H
  H12      1.0000 0.18360  0.45060  0.08770  Biso   1.000  H
  H13      1.0000 0.68360  0.04940  0.08770  Biso   1.000  H
  H14      1.0000 0.18360  0.54940  0.08770  Biso   1.000  H
  H15      1.0000 0.31640  0.04940  0.91230  Biso   1.000  H
  H16      1.0000 0.81640  0.54940  0.91230  Biso   1.000  H
  H17      1.0000 0.30990  0.05570  0.90980  Biso   1.000  H
  H18      1.0000 0.80990  0.55570  0.90980  Biso   1.000  H
  H19      1.0000 0.69010  0.05570  0.09020  Biso   1.000  H
  H20      1.0000 0.19010  0.55570  0.09020  Biso   1.000  H
  H21      1.0000 0.69010  0.94430  0.09020  Biso   1.000  H
  H22      1.0000 0.19010  0.44430  0.09020  Biso   1.000  H
  H23      1.0000 0.30990  0.94430  0.90980  Biso   1.000  H
  H24      1.0000 0.80990  0.44430  0.90980  Biso   1.000  H
  H25      1.0000 0.25850  0.99370  0.89070  Biso   1.000  H
  H26      1.0000 0.75850  0.49370  0.89070  Biso   1.000  H
  H27      1.0000 0.74150  0.99370  0.10930  Biso   1.000  H
  H28      1.0000 0.24150  0.49370  0.10930  Biso   1.000  H
  H29      1.0000 0.74150  0.00630  0.10930  Biso   1.000  H
  H30      1.0000 0.24150  0.50630  0.10930  Biso   1.000  H
  H31      1.0000 0.25850  0.00630  0.89070  Biso   1.000  H
  H32      1.0000 0.75850  0.50630  0.89070  Biso   1.000  H
  N9       1.0000 0.71550  0.50000  0.23900  Biso   1.000  N
  N10      1.0000 0.21550  0.00000  0.23900  Biso   1.000  N
  N11      1.0000 0.28450  0.50000  0.76100  Biso   1.000  N
  N12      1.0000 0.78450  0.00000  0.76100  Biso   1.000  N
  H33      1.0000 0.67710  0.48050  0.21790  Biso   1.000  H
  H34      1.0000 0.17710  0.98050  0.21790  Biso   1.000  H
  H35      1.0000 0.32290  0.48050  0.78210  Biso   1.000  H
  H36      1.0000 0.82290  0.98050  0.78210  Biso   1.000  H
  H37      1.0000 0.32290  0.51950  0.78210  Biso   1.000  H
  H38      1.0000 0.82290  0.01950  0.78210  Biso   1.000  H
  H39      1.0000 0.67710  0.51950  0.21790  Biso   1.000  H
  H40      1.0000 0.17710  0.01950  0.21790  Biso   1.000  H
  H41      1.0000 0.73120  0.45970  0.21070  Biso   1.000  H
  H42      1.0000 0.23120  0.95970  0.21070  Biso   1.000  H
  H43      1.0000 0.26880  0.45970  0.78930  Biso   1.000  H
  H44      1.0000 0.76880  0.95970  0.78930  Biso   1.000  H
  H45      1.0000 0.26880  0.54030  0.78930  Biso   1.000  H
  H46      1.0000 0.76880  0.04030  0.78930  Biso   1.000  H
  H47      1.0000 0.73120  0.54030  0.21070  Biso   1.000  H
  H48      1.0000 0.23120  0.04030  0.21070  Biso   1.000  H
  H49      1.0000 0.71360  0.55980  0.21300  Biso   1.000  H
  H50      1.0000 0.21360  0.05980  0.21300  Biso   1.000  H
  H51      1.0000 0.28640  0.55980  0.78700  Biso   1.000  H
  H52      1.0000 0.78640  0.05980  0.78700  Biso   1.000  H
  H53      1.0000 0.28640  0.44020  0.78700  Biso   1.000  H
  H54      1.0000 0.78640  0.94020  0.78700  Biso   1.000  H
  H55      1.0000 0.71360  0.44020  0.21300  Biso   1.000  H
  H56      1.0000 0.21360  0.94020  0.21300  Biso   1.000  H
  N13      1.0000 0.87010  0.50000  0.72200  Biso   1.000  N
  N14      1.0000 0.37010  0.00000  0.72200  Biso   1.000  N
  N15      1.0000 0.12990  0.50000  0.27800  Biso   1.000  N
  N16      1.0000 0.62990  0.00000  0.27800  Biso   1.000  N
  H57      1.0000 0.91050  0.49840  0.74470  Biso   1.000  H
  H58      1.0000 0.41050  0.99840  0.74470  Biso   1.000  H
  H59      1.0000 0.08950  0.49840  0.25530  Biso   1.000  H
  H60      1.0000 0.58950  0.99840  0.25530  Biso   1.000  H
  H61      1.0000 0.08950  0.50160  0.25530  Biso   1.000  H
  H62      1.0000 0.58950  0.00160  0.25530  Biso   1.000  H
  H63      1.0000 0.91050  0.50160  0.74470  Biso   1.000  H
  H64      1.0000 0.41050  0.00160  0.74470  Biso   1.000  H
  H65      1.0000 0.86130  0.44800  0.74910  Biso   1.000  H
  H66      1.0000 0.36130  0.94800  0.74910  Biso   1.000  H
  H67      1.0000 0.13870  0.44800  0.25090  Biso   1.000  H
  H68      1.0000 0.63870  0.94800  0.25090  Biso   1.000  H
  H69      1.0000 0.13870  0.55200  0.25090  Biso   1.000  H
  H70      1.0000 0.63870  0.05200  0.25090  Biso   1.000  H
  H71      1.0000 0.86130  0.55200  0.74910  Biso   1.000  H
  H72      1.0000 0.36130  0.05200  0.74910  Biso   1.000  H
  H73      1.0000 0.86270  0.55360  0.74900  Biso   1.000  H
  H74      1.0000 0.36270  0.05360  0.74900  Biso   1.000  H
  H75      1.0000 0.13730  0.55360  0.25100  Biso   1.000  H
  H76      1.0000 0.63730  0.05360  0.25100  Biso   1.000  H
  H77      1.0000 0.13730  0.44640  0.25100  Biso   1.000  H
  H78      1.0000 0.63730  0.94640  0.25100  Biso   1.000  H
  H79      1.0000 0.86270  0.44640  0.74900  Biso   1.000  H
  H80      1.0000 0.36270  0.94640  0.74900  Biso   1.000  H
  C1       1.0000 0.37460  0.00000  0.28700  Biso   1.000  C
  C2       1.0000 0.87460  0.50000  0.28700  Biso   1.000  C
  C3       1.0000 0.62540  0.00000  0.71300  Biso   1.000  C
  C4       1.0000 0.12540  0.50000  0.71300  Biso   1.000  C
  C5       1.0000 0.36090  0.08510  0.22600  Biso   1.000  C
  C6       1.0000 0.86090  0.58510  0.22600  Biso   1.000  C
  C7       1.0000 0.63910  0.08510  0.77400  Biso   1.000  C
  C8       1.0000 0.13910  0.58510  0.77400  Biso   1.000  C
  C9       1.0000 0.63910  0.91490  0.77400  Biso   1.000  C
  C10      1.0000 0.13910  0.41490  0.77400  Biso   1.000  C
  C11      1.0000 0.36090  0.91490  0.22600  Biso   1.000  C
  C12      1.0000 0.86090  0.41490  0.22600  Biso   1.000  C
  H81      1.0000 0.36840  0.14390  0.26420  Biso   1.000  H
  H82      1.0000 0.86840  0.64390  0.26420  Biso   1.000  H
  H83      1.0000 0.63160  0.14390  0.73580  Biso   1.000  H
  H84      1.0000 0.13160  0.64390  0.73580  Biso   1.000  H
  H85      1.0000 0.63160  0.85610  0.73580  Biso   1.000  H
  H86      1.0000 0.13160  0.35610  0.73580  Biso   1.000  H
  H87      1.0000 0.36840  0.85610  0.26420  Biso   1.000  H
  H88      1.0000 0.86840  0.35610  0.26420  Biso   1.000  H
  C13      1.0000 0.33640  0.08680  0.10900  Biso   1.000  C
  C14      1.0000 0.83640  0.58680  0.10900  Biso   1.000  C
  C15      1.0000 0.66360  0.08680  0.89100  Biso   1.000  C
  C16      1.0000 0.16360  0.58680  0.89100  Biso   1.000  C
  C17      1.0000 0.66360  0.91320  0.89100  Biso   1.000  C
  C18      1.0000 0.16360  0.41320  0.89100  Biso   1.000  C
  C19      1.0000 0.33640  0.91320  0.10900  Biso   1.000  C
  C20      1.0000 0.83640  0.41320  0.10900  Biso   1.000  C
  H89      1.0000 0.32730  0.14500  0.06900  Biso   1.000  H
  H90      1.0000 0.82730  0.64500  0.06900  Biso   1.000  H
  H91      1.0000 0.67270  0.14500  0.93100  Biso   1.000  H
  H92      1.0000 0.17270  0.64500  0.93100  Biso   1.000  H
  H93      1.0000 0.67270  0.85500  0.93100  Biso   1.000  H
  H94      1.0000 0.17270  0.35500  0.93100  Biso   1.000  H
  H95      1.0000 0.32730  0.85500  0.06900  Biso   1.000  H
  H96      1.0000 0.82730  0.35500  0.06900  Biso   1.000  H
  C21      1.0000 0.32640  0.00000  0.05600  Biso   1.000  C
  C22      1.0000 0.82640  0.50000  0.05600  Biso   1.000  C
  C23      1.0000 0.67360  0.00000  0.94400  Biso   1.000  C
  C24      1.0000 0.17360  0.50000  0.94400  Biso   1.000  C
  C25      1.0000 0.83040  0.50000  0.59600  Biso   1.000  C
  C26      1.0000 0.33040  0.00000  0.59600  Biso   1.000  C
  C27      1.0000 0.16960  0.50000  0.40400  Biso   1.000  C
  C28      1.0000 0.66960  0.00000  0.40400  Biso   1.000  C
  C29      1.0000 0.81360  0.58810  0.54100  Biso   1.000  C
  C30      1.0000 0.31360  0.08810  0.54100  Biso   1.000  C
  C31      1.0000 0.18640  0.58810  0.45900  Biso   1.000  C
  C32      1.0000 0.68640  0.08810  0.45900  Biso   1.000  C
  C33      1.0000 0.18640  0.41190  0.45900  Biso   1.000  C
  C34      1.0000 0.68640  0.91190  0.45900  Biso   1.000  C
  C35      1.0000 0.81360  0.41190  0.54100  Biso   1.000  C
  C36      1.0000 0.31360  0.91190  0.54100  Biso   1.000  C
  H97      1.0000 0.82810  0.64600  0.58170  Biso   1.000  H
  H98      1.0000 0.32810  0.14600  0.58170  Biso   1.000  H
  H99      1.0000 0.17190  0.64600  0.41830  Biso   1.000  H
  H100     1.0000 0.67190  0.14600  0.41830  Biso   1.000  H
  H101     1.0000 0.17190  0.35400  0.41830  Biso   1.000  H
  H102     1.0000 0.67190  0.85400  0.41830  Biso   1.000  H
  H103     1.0000 0.82810  0.35400  0.58170  Biso   1.000  H
  H104     1.0000 0.32810  0.85400  0.58170  Biso   1.000  H
  C37      1.0000 0.77460  0.58900  0.42300  Biso   1.000  C
  C38      1.0000 0.27460  0.08900  0.42300  Biso   1.000  C
  C39      1.0000 0.22540  0.58900  0.57700  Biso   1.000  C
  C40      1.0000 0.72540  0.08900  0.57700  Biso   1.000  C
  C41      1.0000 0.22540  0.41100  0.57700  Biso   1.000  C
  C42      1.0000 0.72540  0.91100  0.57700  Biso   1.000  C
  C43      1.0000 0.77460  0.41100  0.42300  Biso   1.000  C
  C44      1.0000 0.27460  0.91100  0.42300  Biso   1.000  C
  H105     1.0000 0.76080  0.64690  0.38230  Biso   1.000  H
  H106     1.0000 0.26080  0.14690  0.38230  Biso   1.000  H
  H107     1.0000 0.23920  0.64690  0.61770  Biso   1.000  H
  H108     1.0000 0.73920  0.14690  0.61770  Biso   1.000  H
  H109     1.0000 0.23920  0.35310  0.61770  Biso   1.000  H
  H110     1.0000 0.73920  0.85310  0.61770  Biso   1.000  H
  H111     1.0000 0.76080  0.35310  0.38230  Biso   1.000  H
  H112     1.0000 0.26080  0.85310  0.38230  Biso   1.000  H
  C45      1.0000 0.75640  0.50000  0.36600  Biso   1.000  C
  C46      1.0000 0.25640  0.00000  0.36600  Biso   1.000  C
  C47      1.0000 0.24360  0.50000  0.63400  Biso   1.000  C
  C48      1.0000 0.74360  0.00000  0.63400  Biso   1.000  C
