data_image0
_cell_length_a       32.6528
_cell_length_b       18.8506
_cell_length_c       22.9282
_cell_angle_alpha    90
_cell_angle_beta     118.379
_cell_angle_gamma    90

_symmetry_space_group_name_H-M    "P 1"
_symmetry_int_tables_number       1

loop_
  _symmetry_equiv_pos_as_xyz
  'x, y, z'

loop_
  _atom_site_label
  _atom_site_occupancy
  _atom_site_fract_x
  _atom_site_fract_y
  _atom_site_fract_z
  _atom_site_thermal_displace_type
  _atom_site_B_iso_or_equiv
  _atom_site_type_symbol
  Cu1      1.0000 0.23770  0.01654  0.18967  Biso   1.000  Cu
  Cu2      1.0000 0.76230  0.01654  0.31033  Biso   1.000  Cu
  Cu3      1.0000 0.73770  0.51654  0.18967  Biso   1.000  Cu
  Cu4      1.0000 0.26230  0.51654  0.31033  Biso   1.000  Cu
  Cu5      1.0000 0.76230  0.98346  0.81033  Biso   1.000  Cu
  Cu6      1.0000 0.23770  0.98346  0.68967  Biso   1.000  Cu
  Cu7      1.0000 0.26230  0.48346  0.81033  Biso   1.000  Cu
  Cu8      1.0000 0.73770  0.48346  0.68967  Biso   1.000  Cu
  Cu9      1.0000 0.25206  0.94882  0.29922  Biso   1.000  Cu
  Cu10     1.0000 0.74794  0.94882  0.20078  Biso   1.000  Cu
  Cu11     1.0000 0.75206  0.44882  0.29922  Biso   1.000  Cu
  Cu12     1.0000 0.24794  0.44882  0.20078  Biso   1.000  Cu
  Cu13     1.0000 0.74794  0.05118  0.70078  Biso   1.000  Cu
  Cu14     1.0000 0.25206  0.05118  0.79922  Biso   1.000  Cu
  Cu15     1.0000 0.24794  0.55118  0.70078  Biso   1.000  Cu
  Cu16     1.0000 0.75206  0.55118  0.79922  Biso   1.000  Cu
  Cu17     1.0000 0.45929  0.23138  0.19523  Biso   1.000  Cu
  Cu18     1.0000 0.54071  0.23138  0.30477  Biso   1.000  Cu
  Cu19     1.0000 0.95929  0.73138  0.19523  Biso   1.000  Cu
  Cu20     1.0000 0.04071  0.73138  0.30477  Biso   1.000  Cu
  Cu21     1.0000 0.54071  0.76862  0.80477  Biso   1.000  Cu
  Cu22     1.0000 0.45929  0.76862  0.69523  Biso   1.000  Cu
  Cu23     1.0000 0.04071  0.26862  0.80477  Biso   1.000  Cu
  Cu24     1.0000 0.95929  0.26862  0.69523  Biso   1.000  Cu
  N1       1.0000 0.48025  0.99070  0.48810  Biso   1.000  N
  N2       1.0000 0.51975  0.99070  0.01190  Biso   1.000  N
  N3       1.0000 0.98025  0.49070  0.48810  Biso   1.000  N
  N4       1.0000 0.01975  0.49070  0.01190  Biso   1.000  N
  N5       1.0000 0.51975  0.00930  0.51190  Biso   1.000  N
  N6       1.0000 0.48025  0.00930  0.98810  Biso   1.000  N
  N7       1.0000 0.01975  0.50930  0.51190  Biso   1.000  N
  N8       1.0000 0.98025  0.50930  0.98810  Biso   1.000  N
  N9       1.0000 0.25090  0.72130  0.01290  Biso   1.000  N
  N10      1.0000 0.74910  0.72130  0.48710  Biso   1.000  N
  N11      1.0000 0.75090  0.22130  0.01290  Biso   1.000  N
  N12      1.0000 0.24910  0.22130  0.48710  Biso   1.000  N
  N13      1.0000 0.74910  0.27870  0.98710  Biso   1.000  N
  N14      1.0000 0.25090  0.27870  0.51290  Biso   1.000  N
  N15      1.0000 0.24910  0.77870  0.98710  Biso   1.000  N
  N16      1.0000 0.75090  0.77870  0.51290  Biso   1.000  N
  N17      1.0000 0.99270  0.97870  0.01150  Biso   1.000  N
  N18      1.0000 0.00730  0.97870  0.48850  Biso   1.000  N
  N19      1.0000 0.49270  0.47870  0.01150  Biso   1.000  N
  N20      1.0000 0.50730  0.47870  0.48850  Biso   1.000  N
  N21      1.0000 0.00730  0.02130  0.98850  Biso   1.000  N
  N22      1.0000 0.99270  0.02130  0.51150  Biso   1.000  N
  N23      1.0000 0.50730  0.52130  0.98850  Biso   1.000  N
  N24      1.0000 0.49270  0.52130  0.51150  Biso   1.000  N
  O1       1.0000 0.30642  0.03130  0.23310  Biso   1.000  O
  O2       1.0000 0.69358  0.03130  0.26690  Biso   1.000  O
  O3       1.0000 0.80642  0.53130  0.23310  Biso   1.000  O
  O4       1.0000 0.19358  0.53130  0.26690  Biso   1.000  O
  O5       1.0000 0.69358  0.96870  0.76690  Biso   1.000  O
  O6       1.0000 0.30642  0.96870  0.73310  Biso   1.000  O
  O7       1.0000 0.19358  0.46870  0.76690  Biso   1.000  O
  O8       1.0000 0.80642  0.46870  0.73310  Biso   1.000  O
  O9       1.0000 0.31643  0.97250  0.32490  Biso   1.000  O
  O10      1.0000 0.68357  0.97250  0.17510  Biso   1.000  O
  O11      1.0000 0.81643  0.47250  0.32490  Biso   1.000  O
  O12      1.0000 0.18357  0.47250  0.17510  Biso   1.000  O
  O13      1.0000 0.68357  0.02750  0.67510  Biso   1.000  O
  O14      1.0000 0.31643  0.02750  0.82490  Biso   1.000  O
  O15      1.0000 0.18357  0.52750  0.67510  Biso   1.000  O
  O16      1.0000 0.81643  0.52750  0.82490  Biso   1.000  O
  O17      1.0000 0.43849  0.15840  0.23610  Biso   1.000  O
  O18      1.0000 0.56151  0.15840  0.26390  Biso   1.000  O
  O19      1.0000 0.93849  0.65840  0.23610  Biso   1.000  O
  O20      1.0000 0.06151  0.65840  0.26390  Biso   1.000  O
  O21      1.0000 0.56151  0.84160  0.76390  Biso   1.000  O
  O22      1.0000 0.43849  0.84160  0.73610  Biso   1.000  O
  O23      1.0000 0.06151  0.34160  0.76390  Biso   1.000  O
  O24      1.0000 0.93849  0.34160  0.73610  Biso   1.000  O
  O25      1.0000 0.50618  0.16090  0.33060  Biso   1.000  O
  O26      1.0000 0.49382  0.16090  0.16940  Biso   1.000  O
  O27      1.0000 0.00618  0.66090  0.33060  Biso   1.000  O
  O28      1.0000 0.99382  0.66090  0.16940  Biso   1.000  O
  O29      1.0000 0.49382  0.83910  0.66940  Biso   1.000  O
  O30      1.0000 0.50618  0.83910  0.83060  Biso   1.000  O
  O31      1.0000 0.99382  0.33910  0.66940  Biso   1.000  O
  O32      1.0000 0.00618  0.33910  0.83060  Biso   1.000  O
  O33      1.0000 0.24430  0.92030  0.16220  Biso   1.000  O
  O34      1.0000 0.75570  0.92030  0.33780  Biso   1.000  O
  O35      1.0000 0.74430  0.42030  0.16220  Biso   1.000  O
  O36      1.0000 0.25570  0.42030  0.33780  Biso   1.000  O
  O37      1.0000 0.75570  0.07970  0.83780  Biso   1.000  O
  O38      1.0000 0.24430  0.07970  0.66220  Biso   1.000  O
  O39      1.0000 0.25570  0.57970  0.83780  Biso   1.000  O
  O40      1.0000 0.74430  0.57970  0.66220  Biso   1.000  O
  O41      1.0000 0.25773  0.86130  0.25583  Biso   1.000  O
  O42      1.0000 0.74227  0.86130  0.24417  Biso   1.000  O
  O43      1.0000 0.75773  0.36130  0.25583  Biso   1.000  O
  O44      1.0000 0.24227  0.36130  0.24417  Biso   1.000  O
  O45      1.0000 0.74227  0.13870  0.74417  Biso   1.000  O
  O46      1.0000 0.25773  0.13870  0.75583  Biso   1.000  O
  O47      1.0000 0.24227  0.63870  0.74417  Biso   1.000  O
  O48      1.0000 0.75773  0.63870  0.75583  Biso   1.000  O
  O49      1.0000 0.26634  0.60110  0.26450  Biso   1.000  O
  O50      1.0000 0.73366  0.60110  0.23550  Biso   1.000  O
  O51      1.0000 0.76634  0.10110  0.26450  Biso   1.000  O
  O52      1.0000 0.23366  0.10110  0.23550  Biso   1.000  O
  O53      1.0000 0.73366  0.39890  0.73550  Biso   1.000  O
  O54      1.0000 0.26634  0.39890  0.76450  Biso   1.000  O
  O55      1.0000 0.23366  0.89890  0.73550  Biso   1.000  O
  O56      1.0000 0.76634  0.89890  0.76450  Biso   1.000  O
  O57      1.0000 0.25693  0.54360  0.17400  Biso   1.000  O
  O58      1.0000 0.74307  0.54360  0.32600  Biso   1.000  O
  O59      1.0000 0.75693  0.04360  0.17400  Biso   1.000  O
  O60      1.0000 0.24307  0.04360  0.32600  Biso   1.000  O
  O61      1.0000 0.74307  0.45640  0.82600  Biso   1.000  O
  O62      1.0000 0.25693  0.45640  0.67400  Biso   1.000  O
  O63      1.0000 0.24307  0.95640  0.82600  Biso   1.000  O
  O64      1.0000 0.75693  0.95640  0.67400  Biso   1.000  O
  O65      1.0000 0.17173  0.99520  0.16200  Biso   1.000  O
  O66      1.0000 0.82827  0.99520  0.33800  Biso   1.000  O
  O67      1.0000 0.67173  0.49520  0.16200  Biso   1.000  O
  O68      1.0000 0.32827  0.49520  0.33800  Biso   1.000  O
  O69      1.0000 0.82827  0.00480  0.83800  Biso   1.000  O
  O70      1.0000 0.17173  0.00480  0.66200  Biso   1.000  O
  O71      1.0000 0.32827  0.50480  0.83800  Biso   1.000  O
  O72      1.0000 0.67173  0.50480  0.66200  Biso   1.000  O
  O73      1.0000 0.18451  0.93560  0.25290  Biso   1.000  O
  O74      1.0000 0.81549  0.93560  0.24710  Biso   1.000  O
  O75      1.0000 0.68451  0.43560  0.25290  Biso   1.000  O
  O76      1.0000 0.31549  0.43560  0.24710  Biso   1.000  O
  O77      1.0000 0.81549  0.06440  0.74710  Biso   1.000  O
  O78      1.0000 0.18451  0.06440  0.75290  Biso   1.000  O
  O79      1.0000 0.31549  0.56440  0.74710  Biso   1.000  O
  O80      1.0000 0.68451  0.56440  0.75290  Biso   1.000  O
  O81      1.0000 0.05654  0.80400  0.25750  Biso   1.000  O
  O82      1.0000 0.94346  0.80400  0.24250  Biso   1.000  O
  O83      1.0000 0.55654  0.30400  0.25750  Biso   1.000  O
  O84      1.0000 0.44346  0.30400  0.24250  Biso   1.000  O
  O85      1.0000 0.94346  0.19600  0.74250  Biso   1.000  O
  O86      1.0000 0.05654  0.19600  0.75750  Biso   1.000  O
  O87      1.0000 0.44346  0.69600  0.74250  Biso   1.000  O
  O88      1.0000 0.55654  0.69600  0.75750  Biso   1.000  O
  O89      1.0000 0.98336  0.79840  0.16910  Biso   1.000  O
  O90      1.0000 0.01664  0.79840  0.33090  Biso   1.000  O
  O91      1.0000 0.48336  0.29840  0.16910  Biso   1.000  O
  O92      1.0000 0.51664  0.29840  0.33090  Biso   1.000  O
  O93      1.0000 0.01664  0.20160  0.83090  Biso   1.000  O
  O94      1.0000 0.98336  0.20160  0.66910  Biso   1.000  O
  O95      1.0000 0.51664  0.70160  0.83090  Biso   1.000  O
  O96      1.0000 0.48336  0.70160  0.66910  Biso   1.000  O
  O97      1.0000 0.22190  0.06370  0.09500  Biso   1.000  O
  O98      1.0000 0.77810  0.06370  0.40500  Biso   1.000  O
  O99      1.0000 0.72190  0.56370  0.09500  Biso   1.000  O
  O100     1.0000 0.27810  0.56370  0.40500  Biso   1.000  O
  O101     1.0000 0.77810  0.93630  0.90500  Biso   1.000  O
  O102     1.0000 0.22190  0.93630  0.59500  Biso   1.000  O
  O103     1.0000 0.27810  0.43630  0.90500  Biso   1.000  O
  O104     1.0000 0.72190  0.43630  0.59500  Biso   1.000  O
  H1       1.0000 0.23250  0.10570  0.10120  Biso   1.000  H
  H2       1.0000 0.76750  0.10570  0.39880  Biso   1.000  H
  H3       1.0000 0.73250  0.60570  0.10120  Biso   1.000  H
  H4       1.0000 0.26750  0.60570  0.39880  Biso   1.000  H
  H5       1.0000 0.76750  0.89430  0.89880  Biso   1.000  H
  H6       1.0000 0.23250  0.89430  0.60120  Biso   1.000  H
  H7       1.0000 0.26750  0.39430  0.89880  Biso   1.000  H
  H8       1.0000 0.73250  0.39430  0.60120  Biso   1.000  H
  H9       1.0000 0.23460  0.03910  0.07710  Biso   1.000  H
  H10      1.0000 0.76540  0.03910  0.42290  Biso   1.000  H
  H11      1.0000 0.73460  0.53910  0.07710  Biso   1.000  H
  H12      1.0000 0.26540  0.53910  0.42290  Biso   1.000  H
  H13      1.0000 0.76540  0.96090  0.92290  Biso   1.000  H
  H14      1.0000 0.23460  0.96090  0.57710  Biso   1.000  H
  H15      1.0000 0.26540  0.46090  0.92290  Biso   1.000  H
  H16      1.0000 0.73460  0.46090  0.57710  Biso   1.000  H
  O105     1.0000 0.26480  0.90150  0.39120  Biso   1.000  O
  O106     1.0000 0.73520  0.90150  0.10880  Biso   1.000  O
  O107     1.0000 0.76480  0.40150  0.39120  Biso   1.000  O
  O108     1.0000 0.23520  0.40150  0.10880  Biso   1.000  O
  O109     1.0000 0.73520  0.09850  0.60880  Biso   1.000  O
  O110     1.0000 0.26480  0.09850  0.89120  Biso   1.000  O
  O111     1.0000 0.23520  0.59850  0.60880  Biso   1.000  O
  O112     1.0000 0.76480  0.59850  0.89120  Biso   1.000  O
  H17      1.0000 0.25540  0.85880  0.38450  Biso   1.000  H
  H18      1.0000 0.74460  0.85880  0.11550  Biso   1.000  H
  H19      1.0000 0.75540  0.35880  0.38450  Biso   1.000  H
  H20      1.0000 0.24460  0.35880  0.11550  Biso   1.000  H
  H21      1.0000 0.74460  0.14120  0.61550  Biso   1.000  H
  H22      1.0000 0.25540  0.14120  0.88450  Biso   1.000  H
  H23      1.0000 0.24460  0.64120  0.61550  Biso   1.000  H
  H24      1.0000 0.75540  0.64120  0.88450  Biso   1.000  H
  H25      1.0000 0.29390  0.90250  0.41770  Biso   1.000  H
  H26      1.0000 0.70610  0.90250  0.08230  Biso   1.000  H
  H27      1.0000 0.79390  0.40250  0.41770  Biso   1.000  H
  H28      1.0000 0.20610  0.40250  0.08230  Biso   1.000  H
  H29      1.0000 0.70610  0.09750  0.58230  Biso   1.000  H
  H30      1.0000 0.29390  0.09750  0.91770  Biso   1.000  H
  H31      1.0000 0.20610  0.59750  0.58230  Biso   1.000  H
  H32      1.0000 0.79390  0.59750  0.91770  Biso   1.000  H
  O113     1.0000 0.39510  0.23260  0.10350  Biso   1.000  O
  O114     1.0000 0.60490  0.23260  0.39650  Biso   1.000  O
  O115     1.0000 0.89510  0.73260  0.10350  Biso   1.000  O
  O116     1.0000 0.10490  0.73260  0.39650  Biso   1.000  O
  O117     1.0000 0.60490  0.76740  0.89650  Biso   1.000  O
  O118     1.0000 0.39510  0.76740  0.60350  Biso   1.000  O
  O119     1.0000 0.10490  0.26740  0.89650  Biso   1.000  O
  O120     1.0000 0.89510  0.26740  0.60350  Biso   1.000  O
  H33      1.0000 0.39700  0.26260  0.07720  Biso   1.000  H
  H34      1.0000 0.60300  0.26260  0.42280  Biso   1.000  H
  H35      1.0000 0.89700  0.76260  0.07720  Biso   1.000  H
  H36      1.0000 0.10300  0.76260  0.42280  Biso   1.000  H
  H37      1.0000 0.60300  0.73740  0.92280  Biso   1.000  H
  H38      1.0000 0.39700  0.73740  0.57720  Biso   1.000  H
  H39      1.0000 0.10300  0.23740  0.92280  Biso   1.000  H
  H40      1.0000 0.89700  0.23740  0.57720  Biso   1.000  H
  H41      1.0000 0.39050  0.19150  0.08630  Biso   1.000  H
  H42      1.0000 0.60950  0.19150  0.41370  Biso   1.000  H
  H43      1.0000 0.89050  0.69150  0.08630  Biso   1.000  H
  H44      1.0000 0.10950  0.69150  0.41370  Biso   1.000  H
  H45      1.0000 0.60950  0.80850  0.91370  Biso   1.000  H
  H46      1.0000 0.39050  0.80850  0.58630  Biso   1.000  H
  H47      1.0000 0.10950  0.30850  0.91370  Biso   1.000  H
  H48      1.0000 0.89050  0.30850  0.58630  Biso   1.000  H
  C1       1.0000 0.33050  0.00670  0.29510  Biso   1.000  C
  C2       1.0000 0.66950  0.00670  0.20490  Biso   1.000  C
  C3       1.0000 0.83050  0.50670  0.29510  Biso   1.000  C
  C4       1.0000 0.16950  0.50670  0.20490  Biso   1.000  C
  C5       1.0000 0.66950  0.99330  0.70490  Biso   1.000  C
  C6       1.0000 0.33050  0.99330  0.79510  Biso   1.000  C
  C7       1.0000 0.16950  0.49330  0.70490  Biso   1.000  C
  C8       1.0000 0.83050  0.49330  0.79510  Biso   1.000  C
  C9       1.0000 0.46290  0.14290  0.29730  Biso   1.000  C
  C10      1.0000 0.53710  0.14290  0.20270  Biso   1.000  C
  C11      1.0000 0.96290  0.64290  0.29730  Biso   1.000  C
  C12      1.0000 0.03710  0.64290  0.20270  Biso   1.000  C
  C13      1.0000 0.53710  0.85710  0.70270  Biso   1.000  C
  C14      1.0000 0.46290  0.85710  0.79730  Biso   1.000  C
  C15      1.0000 0.03710  0.35710  0.70270  Biso   1.000  C
  C16      1.0000 0.96290  0.35710  0.79730  Biso   1.000  C
  C17      1.0000 0.38070  0.02610  0.32420  Biso   1.000  C
  C18      1.0000 0.61930  0.02610  0.17580  Biso   1.000  C
  C19      1.0000 0.88070  0.52610  0.32420  Biso   1.000  C
  C20      1.0000 0.11930  0.52610  0.17580  Biso   1.000  C
  C21      1.0000 0.61930  0.97390  0.67580  Biso   1.000  C
  C22      1.0000 0.38070  0.97390  0.82420  Biso   1.000  C
  C23      1.0000 0.11930  0.47390  0.67580  Biso   1.000  C
  C24      1.0000 0.88070  0.47390  0.82420  Biso   1.000  C
  C25      1.0000 0.39720  0.06940  0.29320  Biso   1.000  C
  C26      1.0000 0.60280  0.06940  0.20680  Biso   1.000  C
  C27      1.0000 0.89720  0.56940  0.29320  Biso   1.000  C
  C28      1.0000 0.10280  0.56940  0.20680  Biso   1.000  C
  C29      1.0000 0.60280  0.93060  0.70680  Biso   1.000  C
  C30      1.0000 0.39720  0.93060  0.79320  Biso   1.000  C
  C31      1.0000 0.10280  0.43060  0.70680  Biso   1.000  C
  C32      1.0000 0.89720  0.43060  0.79320  Biso   1.000  C
  H49      1.0000 0.37700  0.08500  0.25050  Biso   1.000  H
  H50      1.0000 0.62300  0.08500  0.24950  Biso   1.000  H
  H51      1.0000 0.87700  0.58500  0.25050  Biso   1.000  H
  H52      1.0000 0.12300  0.58500  0.24950  Biso   1.000  H
  H53      1.0000 0.62300  0.91500  0.74950  Biso   1.000  H
  H54      1.0000 0.37700  0.91500  0.75050  Biso   1.000  H
  H55      1.0000 0.12300  0.41500  0.74950  Biso   1.000  H
  H56      1.0000 0.87700  0.41500  0.75050  Biso   1.000  H
  C33      1.0000 0.44480  0.09220  0.32430  Biso   1.000  C
  C34      1.0000 0.55520  0.09220  0.17570  Biso   1.000  C
  C35      1.0000 0.94480  0.59220  0.32430  Biso   1.000  C
  C36      1.0000 0.05520  0.59220  0.17570  Biso   1.000  C
  C37      1.0000 0.55520  0.90780  0.67570  Biso   1.000  C
  C38      1.0000 0.44480  0.90780  0.82430  Biso   1.000  C
  C39      1.0000 0.05520  0.40780  0.67570  Biso   1.000  C
  C40      1.0000 0.94480  0.40780  0.82430  Biso   1.000  C
  C41      1.0000 0.47490  0.06370  0.39220  Biso   1.000  C
  C42      1.0000 0.52510  0.06370  0.10780  Biso   1.000  C
  C43      1.0000 0.97490  0.56370  0.39220  Biso   1.000  C
  C44      1.0000 0.02510  0.56370  0.10780  Biso   1.000  C
  C45      1.0000 0.52510  0.93630  0.60780  Biso   1.000  C
  C46      1.0000 0.47490  0.93630  0.89220  Biso   1.000  C
  C47      1.0000 0.02510  0.43630  0.60780  Biso   1.000  C
  C48      1.0000 0.97490  0.43630  0.89220  Biso   1.000  C
  H57      1.0000 0.50670  0.07320  0.41420  Biso   1.000  H
  H58      1.0000 0.49330  0.07320  0.08580  Biso   1.000  H
  H59      1.0000 0.00670  0.57320  0.41420  Biso   1.000  H
  H60      1.0000 0.99330  0.57320  0.08580  Biso   1.000  H
  H61      1.0000 0.49330  0.92680  0.58580  Biso   1.000  H
  H62      1.0000 0.50670  0.92680  0.91420  Biso   1.000  H
  H63      1.0000 0.99330  0.42680  0.58580  Biso   1.000  H
  H64      1.0000 0.00670  0.42680  0.91420  Biso   1.000  H
  C49      1.0000 0.45470  0.02280  0.42210  Biso   1.000  C
  C50      1.0000 0.54530  0.02280  0.07790  Biso   1.000  C
  C51      1.0000 0.95470  0.52280  0.42210  Biso   1.000  C
  C52      1.0000 0.04530  0.52280  0.07790  Biso   1.000  C
  C53      1.0000 0.54530  0.97720  0.57790  Biso   1.000  C
  C54      1.0000 0.45470  0.97720  0.92210  Biso   1.000  C
  C55      1.0000 0.04530  0.47720  0.57790  Biso   1.000  C
  C56      1.0000 0.95470  0.47720  0.92210  Biso   1.000  C
  C57      1.0000 0.40730  0.99960  0.38820  Biso   1.000  C
  C58      1.0000 0.59270  0.99960  0.11180  Biso   1.000  C
  C59      1.0000 0.90730  0.49960  0.38820  Biso   1.000  C
  C60      1.0000 0.09270  0.49960  0.11180  Biso   1.000  C
  C61      1.0000 0.59270  0.00040  0.61180  Biso   1.000  C
  C62      1.0000 0.40730  0.00040  0.88820  Biso   1.000  C
  C63      1.0000 0.09270  0.50040  0.61180  Biso   1.000  C
  C64      1.0000 0.90730  0.50040  0.88820  Biso   1.000  C
  H65      1.0000 0.39500  0.96880  0.40760  Biso   1.000  H
  H66      1.0000 0.60500  0.96880  0.09240  Biso   1.000  H
  H67      1.0000 0.89500  0.46880  0.40760  Biso   1.000  H
  H68      1.0000 0.10500  0.46880  0.09240  Biso   1.000  H
  H69      1.0000 0.60500  0.03120  0.59240  Biso   1.000  H
  H70      1.0000 0.39500  0.03120  0.90760  Biso   1.000  H
  H71      1.0000 0.10500  0.53120  0.59240  Biso   1.000  H
  H72      1.0000 0.89500  0.53120  0.90760  Biso   1.000  H
  C65      1.0000 0.25420  0.86490  0.19800  Biso   1.000  C
  C66      1.0000 0.74580  0.86490  0.30200  Biso   1.000  C
  C67      1.0000 0.75420  0.36490  0.19800  Biso   1.000  C
  C68      1.0000 0.24580  0.36490  0.30200  Biso   1.000  C
  C69      1.0000 0.74580  0.13510  0.80200  Biso   1.000  C
  C70      1.0000 0.25420  0.13510  0.69800  Biso   1.000  C
  C71      1.0000 0.24580  0.63510  0.80200  Biso   1.000  C
  C72      1.0000 0.75420  0.63510  0.69800  Biso   1.000  C
  C73      1.0000 0.26170  0.60030  0.20560  Biso   1.000  C
  C74      1.0000 0.73830  0.60030  0.29440  Biso   1.000  C
  C75      1.0000 0.76170  0.10030  0.20560  Biso   1.000  C
  C76      1.0000 0.23830  0.10030  0.29440  Biso   1.000  C
  C77      1.0000 0.73830  0.39970  0.79440  Biso   1.000  C
  C78      1.0000 0.26170  0.39970  0.70560  Biso   1.000  C
  C79      1.0000 0.23830  0.89970  0.79440  Biso   1.000  C
  C80      1.0000 0.76170  0.89970  0.70560  Biso   1.000  C
  C81      1.0000 0.25400  0.79480  0.16830  Biso   1.000  C
  C82      1.0000 0.74600  0.79480  0.33170  Biso   1.000  C
  C83      1.0000 0.75400  0.29480  0.16830  Biso   1.000  C
  C84      1.0000 0.24600  0.29480  0.33170  Biso   1.000  C
  C85      1.0000 0.74600  0.20520  0.83170  Biso   1.000  C
  C86      1.0000 0.25400  0.20520  0.66830  Biso   1.000  C
  C87      1.0000 0.24600  0.70520  0.83170  Biso   1.000  C
  C88      1.0000 0.75400  0.70520  0.66830  Biso   1.000  C
  C89      1.0000 0.26000  0.73230  0.20160  Biso   1.000  C
  C90      1.0000 0.74000  0.73230  0.29840  Biso   1.000  C
  C91      1.0000 0.76000  0.23230  0.20160  Biso   1.000  C
  C92      1.0000 0.24000  0.23230  0.29840  Biso   1.000  C
  C93      1.0000 0.74000  0.26770  0.79840  Biso   1.000  C
  C94      1.0000 0.26000  0.26770  0.70160  Biso   1.000  C
  C95      1.0000 0.24000  0.76770  0.79840  Biso   1.000  C
  C96      1.0000 0.76000  0.76770  0.70160  Biso   1.000  C
  H73      1.0000 0.26350  0.73290  0.24430  Biso   1.000  H
  H74      1.0000 0.73650  0.73290  0.25570  Biso   1.000  H
  H75      1.0000 0.76350  0.23290  0.24430  Biso   1.000  H
  H76      1.0000 0.23650  0.23290  0.25570  Biso   1.000  H
  H77      1.0000 0.73650  0.26710  0.75570  Biso   1.000  H
  H78      1.0000 0.26350  0.26710  0.74430  Biso   1.000  H
  H79      1.0000 0.23650  0.76710  0.75570  Biso   1.000  H
  H80      1.0000 0.76350  0.76710  0.74430  Biso   1.000  H
  C97      1.0000 0.26100  0.66610  0.17200  Biso   1.000  C
  C98      1.0000 0.73900  0.66610  0.32800  Biso   1.000  C
  C99      1.0000 0.76100  0.16610  0.17200  Biso   1.000  C
  C100     1.0000 0.23900  0.16610  0.32800  Biso   1.000  C
  C101     1.0000 0.73900  0.33390  0.82800  Biso   1.000  C
  C102     1.0000 0.26100  0.33390  0.67200  Biso   1.000  C
  C103     1.0000 0.23900  0.83390  0.82800  Biso   1.000  C
  C104     1.0000 0.76100  0.83390  0.67200  Biso   1.000  C
  C105     1.0000 0.25640  0.66630  0.11020  Biso   1.000  C
  C106     1.0000 0.74360  0.66630  0.38980  Biso   1.000  C
  C107     1.0000 0.75640  0.16630  0.11020  Biso   1.000  C
  C108     1.0000 0.24360  0.16630  0.38980  Biso   1.000  C
  C109     1.0000 0.74360  0.33370  0.88980  Biso   1.000  C
  C110     1.0000 0.25640  0.33370  0.61020  Biso   1.000  C
  C111     1.0000 0.24360  0.83370  0.88980  Biso   1.000  C
  C112     1.0000 0.75640  0.83370  0.61020  Biso   1.000  C
  H81      1.0000 0.25620  0.62350  0.08990  Biso   1.000  H
  H82      1.0000 0.74380  0.62350  0.41010  Biso   1.000  H
  H83      1.0000 0.75620  0.12350  0.08990  Biso   1.000  H
  H84      1.0000 0.24380  0.12350  0.41010  Biso   1.000  H
  H85      1.0000 0.74380  0.37650  0.91010  Biso   1.000  H
  H86      1.0000 0.25620  0.37650  0.58990  Biso   1.000  H
  H87      1.0000 0.24380  0.87650  0.91010  Biso   1.000  H
  H88      1.0000 0.75620  0.87650  0.58990  Biso   1.000  H
  C113     1.0000 0.25170  0.73020  0.07640  Biso   1.000  C
  C114     1.0000 0.74830  0.73020  0.42360  Biso   1.000  C
  C115     1.0000 0.75170  0.23020  0.07640  Biso   1.000  C
  C116     1.0000 0.24830  0.23020  0.42360  Biso   1.000  C
  C117     1.0000 0.74830  0.26980  0.92360  Biso   1.000  C
  C118     1.0000 0.25170  0.26980  0.57640  Biso   1.000  C
  C119     1.0000 0.24830  0.76980  0.92360  Biso   1.000  C
  C120     1.0000 0.75170  0.76980  0.57640  Biso   1.000  C
  C121     1.0000 0.25250  0.79510  0.10670  Biso   1.000  C
  C122     1.0000 0.74750  0.79510  0.39330  Biso   1.000  C
  C123     1.0000 0.75250  0.29510  0.10670  Biso   1.000  C
  C124     1.0000 0.24750  0.29510  0.39330  Biso   1.000  C
  C125     1.0000 0.74750  0.20490  0.89330  Biso   1.000  C
  C126     1.0000 0.25250  0.20490  0.60670  Biso   1.000  C
  C127     1.0000 0.24750  0.70490  0.89330  Biso   1.000  C
  C128     1.0000 0.75250  0.70490  0.60670  Biso   1.000  C
  H89      1.0000 0.25200  0.83780  0.08590  Biso   1.000  H
  H90      1.0000 0.74800  0.83780  0.41410  Biso   1.000  H
  H91      1.0000 0.75200  0.33780  0.08590  Biso   1.000  H
  H92      1.0000 0.24800  0.33780  0.41410  Biso   1.000  H
  H93      1.0000 0.74800  0.16220  0.91410  Biso   1.000  H
  H94      1.0000 0.25200  0.16220  0.58590  Biso   1.000  H
  H95      1.0000 0.24800  0.66220  0.91410  Biso   1.000  H
  H96      1.0000 0.75200  0.66220  0.58590  Biso   1.000  H
  C129     1.0000 0.15840  0.95800  0.19790  Biso   1.000  C
  C130     1.0000 0.84160  0.95800  0.30210  Biso   1.000  C
  C131     1.0000 0.65840  0.45800  0.19790  Biso   1.000  C
  C132     1.0000 0.34160  0.45800  0.30210  Biso   1.000  C
  C133     1.0000 0.84160  0.04200  0.80210  Biso   1.000  C
  C134     1.0000 0.15840  0.04200  0.69790  Biso   1.000  C
  C135     1.0000 0.34160  0.54200  0.80210  Biso   1.000  C
  C136     1.0000 0.65840  0.54200  0.69790  Biso   1.000  C
  C137     1.0000 0.02290  0.82810  0.20000  Biso   1.000  C
  C138     1.0000 0.97710  0.82810  0.30000  Biso   1.000  C
  C139     1.0000 0.52290  0.32810  0.20000  Biso   1.000  C
  C140     1.0000 0.47710  0.32810  0.30000  Biso   1.000  C
  C141     1.0000 0.97710  0.17190  0.80000  Biso   1.000  C
  C142     1.0000 0.02290  0.17190  0.70000  Biso   1.000  C
  C143     1.0000 0.47710  0.67190  0.80000  Biso   1.000  C
  C144     1.0000 0.52290  0.67190  0.70000  Biso   1.000  C
  C145     1.0000 0.11150  0.94410  0.16840  Biso   1.000  C
  C146     1.0000 0.88850  0.94410  0.33160  Biso   1.000  C
  C147     1.0000 0.61150  0.44410  0.16840  Biso   1.000  C
  C148     1.0000 0.38850  0.44410  0.33160  Biso   1.000  C
  C149     1.0000 0.88850  0.05590  0.83160  Biso   1.000  C
  C150     1.0000 0.11150  0.05590  0.66840  Biso   1.000  C
  C151     1.0000 0.38850  0.55590  0.83160  Biso   1.000  C
  C152     1.0000 0.61150  0.55590  0.66840  Biso   1.000  C
  C153     1.0000 0.08950  0.89400  0.19740  Biso   1.000  C
  C154     1.0000 0.91050  0.89400  0.30260  Biso   1.000  C
  C155     1.0000 0.58950  0.39400  0.19740  Biso   1.000  C
  C156     1.0000 0.41050  0.39400  0.30260  Biso   1.000  C
  C157     1.0000 0.91050  0.10600  0.80260  Biso   1.000  C
  C158     1.0000 0.08950  0.10600  0.69740  Biso   1.000  C
  C159     1.0000 0.41050  0.60600  0.80260  Biso   1.000  C
  C160     1.0000 0.58950  0.60600  0.69740  Biso   1.000  C
  H97      1.0000 0.10860  0.87410  0.23870  Biso   1.000  H
  H98      1.0000 0.89140  0.87410  0.26130  Biso   1.000  H
  H99      1.0000 0.60860  0.37410  0.23870  Biso   1.000  H
  H100     1.0000 0.39140  0.37410  0.26130  Biso   1.000  H
  H101     1.0000 0.89140  0.12590  0.76130  Biso   1.000  H
  H102     1.0000 0.10860  0.12590  0.73870  Biso   1.000  H
  H103     1.0000 0.39140  0.62590  0.76130  Biso   1.000  H
  H104     1.0000 0.60860  0.62590  0.73870  Biso   1.000  H
  C161     1.0000 0.04370  0.87640  0.16690  Biso   1.000  C
  C162     1.0000 0.95630  0.87640  0.33310  Biso   1.000  C
  C163     1.0000 0.54370  0.37640  0.16690  Biso   1.000  C
  C164     1.0000 0.45630  0.37640  0.33310  Biso   1.000  C
  C165     1.0000 0.95630  0.12360  0.83310  Biso   1.000  C
  C166     1.0000 0.04370  0.12360  0.66690  Biso   1.000  C
  C167     1.0000 0.45630  0.62360  0.83310  Biso   1.000  C
  C168     1.0000 0.54370  0.62360  0.66690  Biso   1.000  C
  C169     1.0000 0.01170  0.90810  0.10760  Biso   1.000  C
  C170     1.0000 0.98830  0.90810  0.39240  Biso   1.000  C
  C171     1.0000 0.51170  0.40810  0.10760  Biso   1.000  C
  C172     1.0000 0.48830  0.40810  0.39240  Biso   1.000  C
  C173     1.0000 0.98830  0.09190  0.89240  Biso   1.000  C
  C174     1.0000 0.01170  0.09190  0.60760  Biso   1.000  C
  C175     1.0000 0.48830  0.59190  0.89240  Biso   1.000  C
  C176     1.0000 0.51170  0.59190  0.60760  Biso   1.000  C
  H105     1.0000 0.97990  0.90090  0.09030  Biso   1.000  H
  H106     1.0000 0.02010  0.90090  0.40970  Biso   1.000  H
  H107     1.0000 0.47990  0.40090  0.09030  Biso   1.000  H
  H108     1.0000 0.52010  0.40090  0.40970  Biso   1.000  H
  H109     1.0000 0.02010  0.09910  0.90970  Biso   1.000  H
  H110     1.0000 0.97990  0.09910  0.59030  Biso   1.000  H
  H111     1.0000 0.52010  0.59910  0.90970  Biso   1.000  H
  H112     1.0000 0.47990  0.59910  0.59030  Biso   1.000  H
  C177     1.0000 0.02960  0.95170  0.07500  Biso   1.000  C
  C178     1.0000 0.97040  0.95170  0.42500  Biso   1.000  C
  C179     1.0000 0.52960  0.45170  0.07500  Biso   1.000  C
  C180     1.0000 0.47040  0.45170  0.42500  Biso   1.000  C
  C181     1.0000 0.97040  0.04830  0.92500  Biso   1.000  C
  C182     1.0000 0.02960  0.04830  0.57500  Biso   1.000  C
  C183     1.0000 0.47040  0.54830  0.92500  Biso   1.000  C
  C184     1.0000 0.52960  0.54830  0.57500  Biso   1.000  C
  C185     1.0000 0.07490  0.97030  0.10200  Biso   1.000  C
  C186     1.0000 0.92510  0.97030  0.39800  Biso   1.000  C
  C187     1.0000 0.57490  0.47030  0.10200  Biso   1.000  C
  C188     1.0000 0.42510  0.47030  0.39800  Biso   1.000  C
  C189     1.0000 0.92510  0.02970  0.89800  Biso   1.000  C
  C190     1.0000 0.07490  0.02970  0.60200  Biso   1.000  C
  C191     1.0000 0.42510  0.52970  0.89800  Biso   1.000  C
  C192     1.0000 0.57490  0.52970  0.60200  Biso   1.000  C
  H113     1.0000 0.08390  0.00080  0.07830  Biso   1.000  H
  H114     1.0000 0.91610  0.00080  0.42170  Biso   1.000  H
  H115     1.0000 0.58390  0.50080  0.07830  Biso   1.000  H
  H116     1.0000 0.41610  0.50080  0.42170  Biso   1.000  H
  H117     1.0000 0.91610  0.99920  0.92170  Biso   1.000  H
  H118     1.0000 0.08390  0.99920  0.57830  Biso   1.000  H
  H119     1.0000 0.41610  0.49920  0.92170  Biso   1.000  H
  H120     1.0000 0.58390  0.49920  0.57830  Biso   1.000  H
