data_image0
_cell_length_a       7.851
_cell_length_b       11.006
_cell_length_c       25.797
_cell_angle_alpha    90
_cell_angle_beta     95.469
_cell_angle_gamma    90

_symmetry_space_group_name_H-M    "P 1"
_symmetry_int_tables_number       1

loop_
  _symmetry_equiv_pos_as_xyz
  'x, y, z'

loop_
  _atom_site_label
  _atom_site_occupancy
  _atom_site_fract_x
  _atom_site_fract_y
  _atom_site_fract_z
  _atom_site_thermal_displace_type
  _atom_site_B_iso_or_equiv
  _atom_site_type_symbol
  C1       1.0000 0.55430  0.41770  0.20550  Biso   1.000  C
  C2       1.0000 0.94570  0.91770  0.29450  Biso   1.000  C
  C3       1.0000 0.44570  0.58230  0.79450  Biso   1.000  C
  C4       1.0000 0.05430  0.08230  0.70550  Biso   1.000  C
  C5       1.0000 0.65090  0.32260  0.22770  Biso   1.000  C
  C6       1.0000 0.84910  0.82260  0.27230  Biso   1.000  C
  C7       1.0000 0.34910  0.67740  0.77230  Biso   1.000  C
  C8       1.0000 0.15090  0.17740  0.72770  Biso   1.000  C
  H1       1.0000 0.66830  0.25490  0.20730  Biso   1.000  H
  H2       1.0000 0.83170  0.75490  0.29270  Biso   1.000  H
  H3       1.0000 0.33170  0.74510  0.79270  Biso   1.000  H
  H4       1.0000 0.16830  0.24510  0.70730  Biso   1.000  H
  C9       1.0000 0.72260  0.32350  0.27860  Biso   1.000  C
  C10      1.0000 0.77740  0.82350  0.22140  Biso   1.000  C
  C11      1.0000 0.27740  0.67650  0.72140  Biso   1.000  C
  C12      1.0000 0.22260  0.17650  0.77860  Biso   1.000  C
  H5       1.0000 0.78370  0.25650  0.29220  Biso   1.000  H
  H6       1.0000 0.71630  0.75650  0.20780  Biso   1.000  H
  H7       1.0000 0.21630  0.74350  0.70780  Biso   1.000  H
  H8       1.0000 0.28370  0.24350  0.79220  Biso   1.000  H
  C13      1.0000 0.70280  0.42510  0.30940  Biso   1.000  C
  C14      1.0000 0.79720  0.92510  0.19060  Biso   1.000  C
  C15      1.0000 0.29720  0.57490  0.69060  Biso   1.000  C
  C16      1.0000 0.20280  0.07490  0.80940  Biso   1.000  C
  H9       1.0000 0.75270  0.42750  0.34350  Biso   1.000  H
  H10      1.0000 0.74730  0.92750  0.15650  Biso   1.000  H
  H11      1.0000 0.24730  0.57250  0.65650  Biso   1.000  H
  H12      1.0000 0.25270  0.07250  0.84350  Biso   1.000  H
  C17      1.0000 0.60900  0.52210  0.28900  Biso   1.000  C
  C18      1.0000 0.89100  0.02210  0.21100  Biso   1.000  C
  C19      1.0000 0.39100  0.47790  0.71100  Biso   1.000  C
  C20      1.0000 0.10900  0.97790  0.78900  Biso   1.000  C
  H13      1.0000 0.59490  0.58970  0.30970  Biso   1.000  H
  H14      1.0000 0.90510  0.08970  0.19030  Biso   1.000  H
  H15      1.0000 0.40510  0.41030  0.69030  Biso   1.000  H
  H16      1.0000 0.09490  0.91030  0.80970  Biso   1.000  H
  C21      1.0000 0.53390  0.52100  0.23730  Biso   1.000  C
  C22      1.0000 0.96610  0.02100  0.26270  Biso   1.000  C
  C23      1.0000 0.46610  0.47900  0.76270  Biso   1.000  C
  C24      1.0000 0.03390  0.97900  0.73730  Biso   1.000  C
  C25      1.0000 0.43250  0.62420  0.22090  Biso   1.000  C
  C26      1.0000 0.06750  0.12420  0.27910  Biso   1.000  C
  C27      1.0000 0.56750  0.37580  0.77910  Biso   1.000  C
  C28      1.0000 0.93250  0.87580  0.72090  Biso   1.000  C
  H17      1.0000 0.41550  0.68080  0.24670  Biso   1.000  H
  H18      1.0000 0.08450  0.18080  0.25330  Biso   1.000  H
  H19      1.0000 0.58450  0.31920  0.75330  Biso   1.000  H
  H20      1.0000 0.91550  0.81920  0.74670  Biso   1.000  H
  C29      1.0000 0.27570  0.86090  0.08690  Biso   1.000  C
  C30      1.0000 0.22430  0.36090  0.41310  Biso   1.000  C
  C31      1.0000 0.72430  0.13910  0.91310  Biso   1.000  C
  C32      1.0000 0.77570  0.63910  0.58690  Biso   1.000  C
  H21      1.0000 0.19270  0.86960  0.05680  Biso   1.000  H
  H22      1.0000 0.30730  0.36960  0.44320  Biso   1.000  H
  H23      1.0000 0.80730  0.13040  0.94320  Biso   1.000  H
  H24      1.0000 0.69270  0.63040  0.55680  Biso   1.000  H
  H25      1.0000 0.31780  0.94130  0.09670  Biso   1.000  H
  H26      1.0000 0.18220  0.44130  0.40330  Biso   1.000  H
  H27      1.0000 0.68220  0.05870  0.90330  Biso   1.000  H
  H28      1.0000 0.81780  0.55870  0.59670  Biso   1.000  H
  C33      1.0000 0.42200  0.78560  0.07200  Biso   1.000  C
  C34      1.0000 0.07800  0.28560  0.42800  Biso   1.000  C
  C35      1.0000 0.57800  0.21440  0.92800  Biso   1.000  C
  C36      1.0000 0.92200  0.71440  0.57200  Biso   1.000  C
  H29      1.0000 0.46560  0.82030  0.04130  Biso   1.000  H
  H30      1.0000 0.03440  0.32030  0.45870  Biso   1.000  H
  H31      1.0000 0.53440  0.17970  0.95870  Biso   1.000  H
  H32      1.0000 0.96560  0.67970  0.54130  Biso   1.000  H
  H33      1.0000 0.51340  0.78680  0.10010  Biso   1.000  H
  H34      1.0000 0.98660  0.28680  0.39990  Biso   1.000  H
  H35      1.0000 0.48660  0.21320  0.89990  Biso   1.000  H
  H36      1.0000 0.01340  0.71320  0.60010  Biso   1.000  H
  C37      1.0000 0.32960  0.63240  0.01320  Biso   1.000  C
  C38      1.0000 0.17040  0.13240  0.48680  Biso   1.000  C
  C39      1.0000 0.67040  0.36760  0.98680  Biso   1.000  C
  C40      1.0000 0.82960  0.86760  0.51320  Biso   1.000  C
  H37      1.0000 0.33770  0.69580  0.98970  Biso   1.000  H
  H38      1.0000 0.16230  0.19580  0.51030  Biso   1.000  H
  H39      1.0000 0.66230  0.30420  0.01030  Biso   1.000  H
  H40      1.0000 0.83770  0.80420  0.48970  Biso   1.000  H
  C41      1.0000 0.27430  0.51650  0.99110  Biso   1.000  C
  C42      1.0000 0.22570  0.01650  0.50890  Biso   1.000  C
  C43      1.0000 0.72570  0.48350  0.00890  Biso   1.000  C
  C44      1.0000 0.77430  0.98350  0.49110  Biso   1.000  C
  C45      1.0000 0.24050  0.51200  0.93640  Biso   1.000  C
  C46      1.0000 0.25950  0.01200  0.56360  Biso   1.000  C
  C47      1.0000 0.75950  0.48800  0.06360  Biso   1.000  C
  C48      1.0000 0.74050  0.98800  0.43640  Biso   1.000  C
  H41      1.0000 0.25110  0.58240  0.91700  Biso   1.000  H
  H42      1.0000 0.24890  0.08240  0.58300  Biso   1.000  H
  H43      1.0000 0.74890  0.41760  0.08300  Biso   1.000  H
  H44      1.0000 0.75110  0.91760  0.41700  Biso   1.000  H
  C49      1.0000 0.19250  0.40600  0.91120  Biso   1.000  C
  C50      1.0000 0.30750  0.90600  0.58880  Biso   1.000  C
  C51      1.0000 0.80750  0.59400  0.08880  Biso   1.000  C
  C52      1.0000 0.69250  0.09400  0.41120  Biso   1.000  C
  H45      1.0000 0.17070  0.40420  0.87520  Biso   1.000  H
  H46      1.0000 0.32930  0.90420  0.62480  Biso   1.000  H
  H47      1.0000 0.82930  0.59580  0.12480  Biso   1.000  H
  H48      1.0000 0.67070  0.09580  0.37520  Biso   1.000  H
  C53      1.0000 0.17730  0.30280  0.94000  Biso   1.000  C
  C54      1.0000 0.32270  0.80280  0.56000  Biso   1.000  C
  C55      1.0000 0.82270  0.69720  0.06000  Biso   1.000  C
  C56      1.0000 0.67730  0.19720  0.44000  Biso   1.000  C
  H49      1.0000 0.14420  0.23050  0.92330  Biso   1.000  H
  H50      1.0000 0.35580  0.73050  0.57670  Biso   1.000  H
  H51      1.0000 0.85580  0.76950  0.07670  Biso   1.000  H
  H52      1.0000 0.64420  0.26950  0.42330  Biso   1.000  H
  C57      1.0000 0.21010  0.30450  0.99290  Biso   1.000  C
  C58      1.0000 0.28990  0.80450  0.50710  Biso   1.000  C
  C59      1.0000 0.78990  0.69550  0.00710  Biso   1.000  C
  C60      1.0000 0.71010  0.19550  0.49290  Biso   1.000  C
  H53      1.0000 0.19860  0.23290  0.01130  Biso   1.000  H
  H54      1.0000 0.30140  0.73290  0.48870  Biso   1.000  H
  H55      1.0000 0.80140  0.76710  0.98870  Biso   1.000  H
  H56      1.0000 0.69860  0.26710  0.51130  Biso   1.000  H
  C61      1.0000 0.26000  0.40940  0.02010  Biso   1.000  C
  C62      1.0000 0.24000  0.90940  0.47990  Biso   1.000  C
  C63      1.0000 0.74000  0.59060  0.97990  Biso   1.000  C
  C64      1.0000 0.76000  0.09060  0.52010  Biso   1.000  C
  C65      1.0000 0.42090  0.07220  0.23400  Biso   1.000  C
  C66      1.0000 0.07910  0.57220  0.26600  Biso   1.000  C
  C67      1.0000 0.57910  0.92780  0.76600  Biso   1.000  C
  C68      1.0000 0.92090  0.42780  0.73400  Biso   1.000  C
  C69      1.0000 0.43090  0.93300  0.30060  Biso   1.000  C
  C70      1.0000 0.06910  0.43300  0.19940  Biso   1.000  C
  C71      1.0000 0.56910  0.06700  0.69940  Biso   1.000  C
  C72      1.0000 0.93090  0.56700  0.80060  Biso   1.000  C
  C73      1.0000 0.92920  0.11250  0.08010  Biso   1.000  C
  C74      1.0000 0.57080  0.61250  0.41990  Biso   1.000  C
  C75      1.0000 0.07080  0.88750  0.91990  Biso   1.000  C
  C76      1.0000 0.42920  0.38750  0.58010  Biso   1.000  C
  C77      1.0000 0.63990  0.11970  0.07870  Biso   1.000  C
  C78      1.0000 0.86010  0.61970  0.42130  Biso   1.000  C
  C79      1.0000 0.36010  0.88030  0.92130  Biso   1.000  C
  C80      1.0000 0.13990  0.38030  0.57870  Biso   1.000  C
  C81      1.0000 0.30300  0.77500  0.17780  Biso   1.000  C
  C82      1.0000 0.19700  0.27500  0.32220  Biso   1.000  C
  C83      1.0000 0.69700  0.22500  0.82220  Biso   1.000  C
  C84      1.0000 0.80300  0.72500  0.67780  Biso   1.000  C
  H57      1.0000 0.24740  0.78700  0.20940  Biso   1.000  H
  H58      1.0000 0.25260  0.28700  0.29060  Biso   1.000  H
  H59      1.0000 0.75260  0.21300  0.79060  Biso   1.000  H
  H60      1.0000 0.74740  0.71300  0.70940  Biso   1.000  H
  C85      1.0000 0.18380  0.80660  0.13290  Biso   1.000  C
  C86      1.0000 0.31620  0.30660  0.36710  Biso   1.000  C
  C87      1.0000 0.81620  0.19340  0.86710  Biso   1.000  C
  C88      1.0000 0.68380  0.69340  0.63290  Biso   1.000  C
  H61      1.0000 0.10150  0.86520  0.14340  Biso   1.000  H
  H62      1.0000 0.39850  0.36520  0.35660  Biso   1.000  H
  H63      1.0000 0.89850  0.13480  0.85660  Biso   1.000  H
  H64      1.0000 0.60150  0.63480  0.64340  Biso   1.000  H
  H65      1.0000 0.12130  0.73430  0.12080  Biso   1.000  H
  H66      1.0000 0.37870  0.23430  0.37920  Biso   1.000  H
  H67      1.0000 0.87870  0.26570  0.87920  Biso   1.000  H
  H68      1.0000 0.62130  0.76570  0.62080  Biso   1.000  H
  Cd1      1.0000 0.29791  0.24681  0.12885  Biso   1.000  Cd
  Cd2      1.0000 0.20209  0.74681  0.37115  Biso   1.000  Cd
  Cd3      1.0000 0.70209  0.75319  0.87115  Biso   1.000  Cd
  Cd4      1.0000 0.79791  0.25319  0.62885  Biso   1.000  Cd
  Cu1      1.0000 0.37692  0.53955  0.11624  Biso   1.000  Cu
  Cu2      1.0000 0.12308  0.03955  0.38376  Biso   1.000  Cu
  Cu3      1.0000 0.62308  0.46045  0.88376  Biso   1.000  Cu
  Cu4      1.0000 0.87692  0.96045  0.61624  Biso   1.000  Cu
  N1       1.0000 0.36180  0.64910  0.17530  Biso   1.000  N
  N2       1.0000 0.13820  0.14910  0.32470  Biso   1.000  N
  N3       1.0000 0.63820  0.35090  0.82470  Biso   1.000  N
  N4       1.0000 0.86180  0.85090  0.67530  Biso   1.000  N
  N5       1.0000 0.36850  0.65790  0.06100  Biso   1.000  N
  N6       1.0000 0.13150  0.15790  0.43900  Biso   1.000  N
  N7       1.0000 0.63150  0.34210  0.93900  Biso   1.000  N
  N8       1.0000 0.86850  0.84210  0.56100  Biso   1.000  N
  N9       1.0000 0.36390  0.12330  0.19740  Biso   1.000  N
  N10      1.0000 0.13610  0.62330  0.30260  Biso   1.000  N
  N11      1.0000 0.63610  0.87670  0.80260  Biso   1.000  N
  N12      1.0000 0.86390  0.37670  0.69740  Biso   1.000  N
  N13      1.0000 0.49520  0.02690  0.27720  Biso   1.000  N
  N14      1.0000 0.00480  0.52690  0.22280  Biso   1.000  N
  N15      1.0000 0.50480  0.97310  0.72280  Biso   1.000  N
  N16      1.0000 0.99520  0.47310  0.77720  Biso   1.000  N
  N17      1.0000 0.38970  0.85350  0.32340  Biso   1.000  N
  N18      1.0000 0.11030  0.35350  0.17660  Biso   1.000  N
  N19      1.0000 0.61030  0.14650  0.67660  Biso   1.000  N
  N20      1.0000 0.88970  0.64650  0.82340  Biso   1.000  N
  N21      1.0000 0.06610  0.14180  0.09170  Biso   1.000  N
  N22      1.0000 0.43390  0.64180  0.40830  Biso   1.000  N
  N23      1.0000 0.93390  0.85820  0.90830  Biso   1.000  N
  N24      1.0000 0.56610  0.35820  0.59170  Biso   1.000  N
  N25      1.0000 0.77970  0.06960  0.06440  Biso   1.000  N
  N26      1.0000 0.72030  0.56960  0.43560  Biso   1.000  N
  N27      1.0000 0.22030  0.93040  0.93560  Biso   1.000  N
  N28      1.0000 0.27970  0.43040  0.56440  Biso   1.000  N
  N29      1.0000 0.51090  0.15610  0.08740  Biso   1.000  N
  N30      1.0000 0.98910  0.65610  0.41260  Biso   1.000  N
  N31      1.0000 0.48910  0.84390  0.91260  Biso   1.000  N
  N32      1.0000 0.01090  0.34390  0.58740  Biso   1.000  N
  O1       1.0000 0.48060  0.41070  0.15785  Biso   1.000  O
  O2       1.0000 0.01940  0.91070  0.34215  Biso   1.000  O
  O3       1.0000 0.51940  0.58930  0.84215  Biso   1.000  O
  O4       1.0000 0.98060  0.08930  0.65785  Biso   1.000  O
  O5       1.0000 0.29190  0.40980  0.07155  Biso   1.000  O
  O6       1.0000 0.20810  0.90980  0.42845  Biso   1.000  O
  O7       1.0000 0.70810  0.59020  0.92845  Biso   1.000  O
  O8       1.0000 0.79190  0.09020  0.57155  Biso   1.000  O
  H69      1.0000 0.40100  0.82940  0.17920  Biso   1.000  H
  H70      1.0000 0.09900  0.32940  0.32080  Biso   1.000  H
  H71      1.0000 0.59900  0.17060  0.82080  Biso   1.000  H
  H72      1.0000 0.90100  0.67060  0.67920  Biso   1.000  H
  C89      1.0000 0.20900  0.74600  0.16970  Biso   1.000  C
  C90      1.0000 0.29100  0.24600  0.33030  Biso   1.000  C
  C91      1.0000 0.79100  0.25400  0.83030  Biso   1.000  C
  C92      1.0000 0.70900  0.75400  0.66970  Biso   1.000  C
  H73      1.0000 0.11130  0.71300  0.14870  Biso   1.000  H
  H74      1.0000 0.38870  0.21300  0.35130  Biso   1.000  H
  H75      1.0000 0.88870  0.28700  0.85130  Biso   1.000  H
  H76      1.0000 0.61130  0.78700  0.64870  Biso   1.000  H
  H77      1.0000 0.17450  0.76650  0.20380  Biso   1.000  H
  H78      1.0000 0.32550  0.26650  0.29620  Biso   1.000  H
  H79      1.0000 0.82550  0.23350  0.79620  Biso   1.000  H
  H80      1.0000 0.67450  0.73350  0.70380  Biso   1.000  H
  C93      1.0000 0.27700  0.86000  0.14350  Biso   1.000  C
  C94      1.0000 0.22300  0.36000  0.35650  Biso   1.000  C
  C95      1.0000 0.72300  0.14000  0.85650  Biso   1.000  C
  C96      1.0000 0.77700  0.64000  0.64350  Biso   1.000  C
  H81      1.0000 0.20920  0.92920  0.15320  Biso   1.000  H
  H82      1.0000 0.29080  0.42920  0.34680  Biso   1.000  H
  H83      1.0000 0.79080  0.07080  0.84680  Biso   1.000  H
  H84      1.0000 0.70920  0.57080  0.65320  Biso   1.000  H
  H85      1.0000 0.39320  0.87420  0.15820  Biso   1.000  H
  H86      1.0000 0.10680  0.37420  0.34180  Biso   1.000  H
  H87      1.0000 0.60680  0.12580  0.84180  Biso   1.000  H
  H88      1.0000 0.89320  0.62580  0.65820  Biso   1.000  H
