data_image0
_cell_length_a       7.018
_cell_length_b       10.364
_cell_length_c       20.72
_cell_angle_alpha    90
_cell_angle_beta     90
_cell_angle_gamma    90

_symmetry_space_group_name_H-M    "P 1"
_symmetry_int_tables_number       1

loop_
  _symmetry_equiv_pos_as_xyz
  'x, y, z'

loop_
  _atom_site_label
  _atom_site_occupancy
  _atom_site_fract_x
  _atom_site_fract_y
  _atom_site_fract_z
  _atom_site_thermal_displace_type
  _atom_site_B_iso_or_equiv
  _atom_site_type_symbol
  Cu1      1.0000 0.36399  0.09559  0.61800  Biso   1.000  Cu
  Cu2      1.0000 0.86399  0.40441  0.38200  Biso   1.000  Cu
  Cu3      1.0000 0.63601  0.59559  0.88200  Biso   1.000  Cu
  Cu4      1.0000 0.13601  0.90441  0.11800  Biso   1.000  Cu
  O1       1.0000 0.23340  0.92910  0.62360  Biso   1.000  O
  O2       1.0000 0.73340  0.57090  0.37640  Biso   1.000  O
  O3       1.0000 0.76660  0.42910  0.87640  Biso   1.000  O
  O4       1.0000 0.26660  0.07090  0.12360  Biso   1.000  O
  O5       1.0000 0.01850  0.81700  0.67890  Biso   1.000  O
  O6       1.0000 0.51850  0.68300  0.32110  Biso   1.000  O
  O7       1.0000 0.98150  0.31700  0.82110  Biso   1.000  O
  O8       1.0000 0.48150  0.18300  0.17890  Biso   1.000  O
  O9       1.0000 0.59070  0.04290  0.68320  Biso   1.000  O
  O10      1.0000 0.09070  0.45710  0.31680  Biso   1.000  O
  O11      1.0000 0.40930  0.54290  0.81680  Biso   1.000  O
  O12      1.0000 0.90930  0.95710  0.18320  Biso   1.000  O
  O13      1.0000 0.83340  0.14310  0.63430  Biso   1.000  O
  O14      1.0000 0.33340  0.35690  0.36570  Biso   1.000  O
  O15      1.0000 0.16660  0.64310  0.86570  Biso   1.000  O
  O16      1.0000 0.66660  0.85690  0.13430  Biso   1.000  O
  O17      1.0000 0.36630  0.26810  0.81060  Biso   1.000  O
  O18      1.0000 0.86630  0.23190  0.18940  Biso   1.000  O
  O19      1.0000 0.63370  0.76810  0.68940  Biso   1.000  O
  O20      1.0000 0.13370  0.73190  0.31060  Biso   1.000  O
  N1       1.0000 0.42760  0.27840  0.59660  Biso   1.000  N
  N2       1.0000 0.92760  0.22160  0.40340  Biso   1.000  N
  N3       1.0000 0.57240  0.77840  0.90340  Biso   1.000  N
  N4       1.0000 0.07240  0.72160  0.09660  Biso   1.000  N
  N5       1.0000 0.45720  0.04210  0.53180  Biso   1.000  N
  N6       1.0000 0.95720  0.45790  0.46820  Biso   1.000  N
  N7       1.0000 0.54280  0.54210  0.96820  Biso   1.000  N
  N8       1.0000 0.04280  0.95790  0.03180  Biso   1.000  N
  N9       1.0000 0.38950  0.24430  0.48510  Biso   1.000  N
  N10      1.0000 0.88950  0.25570  0.51490  Biso   1.000  N
  N11      1.0000 0.61050  0.74430  0.01490  Biso   1.000  N
  N12      1.0000 0.11050  0.75570  0.98510  Biso   1.000  N
  N13      1.0000 0.19250  0.14240  0.69240  Biso   1.000  N
  N14      1.0000 0.69250  0.35760  0.30760  Biso   1.000  N
  N15      1.0000 0.80750  0.64240  0.80760  Biso   1.000  N
  N16      1.0000 0.30750  0.85760  0.19240  Biso   1.000  N
  C1       1.0000 0.46470  0.36160  0.64540  Biso   1.000  C
  C2       1.0000 0.96470  0.13840  0.35460  Biso   1.000  C
  C3       1.0000 0.53530  0.86160  0.85460  Biso   1.000  C
  C4       1.0000 0.03530  0.63840  0.14540  Biso   1.000  C
  C5       1.0000 0.48760  0.49110  0.63690  Biso   1.000  C
  C6       1.0000 0.98760  0.00890  0.36310  Biso   1.000  C
  C7       1.0000 0.51240  0.99110  0.86310  Biso   1.000  C
  C8       1.0000 0.01240  0.50890  0.13690  Biso   1.000  C
  C9       1.0000 0.47790  0.53990  0.57440  Biso   1.000  C
  C10      1.0000 0.97790  0.96010  0.42560  Biso   1.000  C
  C11      1.0000 0.52210  0.03990  0.92560  Biso   1.000  C
  C12      1.0000 0.02210  0.46010  0.07440  Biso   1.000  C
  C13      1.0000 0.44600  0.45720  0.52400  Biso   1.000  C
  C14      1.0000 0.94600  0.04280  0.47600  Biso   1.000  C
  C15      1.0000 0.55400  0.95720  0.97600  Biso   1.000  C
  C16      1.0000 0.05400  0.54280  0.02400  Biso   1.000  C
  C17      1.0000 0.42140  0.32590  0.53650  Biso   1.000  C
  C18      1.0000 0.92140  0.17410  0.46350  Biso   1.000  C
  C19      1.0000 0.57860  0.82590  0.96350  Biso   1.000  C
  C20      1.0000 0.07860  0.67410  0.03650  Biso   1.000  C
  C21      1.0000 0.43310  0.11370  0.47890  Biso   1.000  C
  C22      1.0000 0.93310  0.38630  0.52110  Biso   1.000  C
  C23      1.0000 0.56690  0.61370  0.02110  Biso   1.000  C
  C24      1.0000 0.06690  0.88630  0.97890  Biso   1.000  C
  C25      1.0000 0.44910  0.06260  0.41650  Biso   1.000  C
  C26      1.0000 0.94910  0.43740  0.58350  Biso   1.000  C
  C27      1.0000 0.55090  0.56260  0.08350  Biso   1.000  C
  C28      1.0000 0.05090  0.93740  0.91650  Biso   1.000  C
  C29      1.0000 0.49440  0.93510  0.41000  Biso   1.000  C
  C30      1.0000 0.99440  0.56490  0.59000  Biso   1.000  C
  C31      1.0000 0.50560  0.43510  0.09000  Biso   1.000  C
  C32      1.0000 0.00560  0.06490  0.91000  Biso   1.000  C
  C33      1.0000 0.52730  0.85960  0.46430  Biso   1.000  C
  C34      1.0000 0.02730  0.64040  0.53570  Biso   1.000  C
  C35      1.0000 0.47270  0.35960  0.03570  Biso   1.000  C
  C36      1.0000 0.97270  0.14040  0.96430  Biso   1.000  C
  C37      1.0000 0.50640  0.91650  0.52400  Biso   1.000  C
  C38      1.0000 0.00640  0.58350  0.47600  Biso   1.000  C
  C39      1.0000 0.49360  0.41650  0.97600  Biso   1.000  C
  C40      1.0000 0.99360  0.08350  0.02400  Biso   1.000  C
  C41      1.0000 0.11570  0.91550  0.66930  Biso   1.000  C
  C42      1.0000 0.61570  0.58450  0.33070  Biso   1.000  C
  C43      1.0000 0.88430  0.41550  0.83070  Biso   1.000  C
  C44      1.0000 0.38430  0.08450  0.16930  Biso   1.000  C
  C45      1.0000 0.09890  0.02530  0.71830  Biso   1.000  C
  C46      1.0000 0.59890  0.47470  0.28170  Biso   1.000  C
  C47      1.0000 0.90110  0.52530  0.78170  Biso   1.000  C
  C48      1.0000 0.40110  0.97470  0.21830  Biso   1.000  C
  C49      1.0000 0.89020  0.04900  0.73710  Biso   1.000  C
  C50      1.0000 0.39020  0.45100  0.26290  Biso   1.000  C
  C51      1.0000 0.10980  0.54900  0.76290  Biso   1.000  C
  C52      1.0000 0.60980  0.95100  0.23710  Biso   1.000  C
  C53      1.0000 0.76290  0.08010  0.67970  Biso   1.000  C
  C54      1.0000 0.26290  0.41990  0.32030  Biso   1.000  C
  C55      1.0000 0.23710  0.58010  0.82030  Biso   1.000  C
  C56      1.0000 0.73710  0.91990  0.17970  Biso   1.000  C
  H1       1.0000 0.47500  0.32860  0.68700  Biso   1.000  H
  H2       1.0000 0.97500  0.17140  0.31300  Biso   1.000  H
  H3       1.0000 0.52500  0.82860  0.81300  Biso   1.000  H
  H4       1.0000 0.02500  0.67140  0.18700  Biso   1.000  H
  H5       1.0000 0.50910  0.54540  0.67190  Biso   1.000  H
  H6       1.0000 0.00910  0.95460  0.32810  Biso   1.000  H
  H7       1.0000 0.49090  0.04540  0.82810  Biso   1.000  H
  H8       1.0000 0.99090  0.45460  0.17190  Biso   1.000  H
  H9       1.0000 0.49300  0.62780  0.56700  Biso   1.000  H
  H10      1.0000 0.99300  0.87220  0.43300  Biso   1.000  H
  H11      1.0000 0.50700  0.12780  0.93300  Biso   1.000  H
  H12      1.0000 0.00700  0.37220  0.06700  Biso   1.000  H
  H13      1.0000 0.44070  0.48820  0.48190  Biso   1.000  H
  H14      1.0000 0.94070  0.01180  0.51810  Biso   1.000  H
  H15      1.0000 0.55930  0.98820  0.01810  Biso   1.000  H
  H16      1.0000 0.05930  0.51180  0.98190  Biso   1.000  H
  H17      1.0000 0.42940  0.11430  0.38040  Biso   1.000  H
  H18      1.0000 0.92940  0.38570  0.61960  Biso   1.000  H
  H19      1.0000 0.57060  0.61430  0.11960  Biso   1.000  H
  H20      1.0000 0.07060  0.88570  0.88040  Biso   1.000  H
  H21      1.0000 0.50340  0.89870  0.36910  Biso   1.000  H
  H22      1.0000 0.00340  0.60130  0.63090  Biso   1.000  H
  H23      1.0000 0.49660  0.39870  0.13090  Biso   1.000  H
  H24      1.0000 0.99660  0.10130  0.86910  Biso   1.000  H
  H25      1.0000 0.56220  0.77340  0.46050  Biso   1.000  H
  H26      1.0000 0.06220  0.72660  0.53950  Biso   1.000  H
  H27      1.0000 0.43780  0.27340  0.03950  Biso   1.000  H
  H28      1.0000 0.93780  0.22660  0.96050  Biso   1.000  H
  H29      1.0000 0.52710  0.86650  0.56050  Biso   1.000  H
  H30      1.0000 0.02710  0.63350  0.43950  Biso   1.000  H
  H31      1.0000 0.47290  0.36650  0.93950  Biso   1.000  H
  H32      1.0000 0.97290  0.13350  0.06050  Biso   1.000  H
  H33      1.0000 0.33510  0.27890  0.45220  Biso   1.000  H
  H34      1.0000 0.83510  0.22110  0.54780  Biso   1.000  H
  H35      1.0000 0.66490  0.77890  0.04780  Biso   1.000  H
  H36      1.0000 0.16490  0.72110  0.95220  Biso   1.000  H
  H37      1.0000 0.26150  0.18040  0.72370  Biso   1.000  H
  H38      1.0000 0.76150  0.31960  0.27630  Biso   1.000  H
  H39      1.0000 0.73850  0.68040  0.77630  Biso   1.000  H
  H40      1.0000 0.23850  0.81960  0.22370  Biso   1.000  H
  H41      1.0000 0.10340  0.19880  0.67900  Biso   1.000  H
  H42      1.0000 0.60340  0.30120  0.32100  Biso   1.000  H
  H43      1.0000 0.89660  0.69880  0.82100  Biso   1.000  H
  H44      1.0000 0.39660  0.80120  0.17900  Biso   1.000  H
  H45      1.0000 0.16780  0.99930  0.75740  Biso   1.000  H
  H46      1.0000 0.66780  0.50070  0.24260  Biso   1.000  H
  H47      1.0000 0.83220  0.49930  0.74260  Biso   1.000  H
  H48      1.0000 0.33220  0.00070  0.25740  Biso   1.000  H
  H49      1.0000 0.84120  0.97280  0.75860  Biso   1.000  H
  H50      1.0000 0.34120  0.52720  0.24140  Biso   1.000  H
  H51      1.0000 0.15880  0.47280  0.74140  Biso   1.000  H
  H52      1.0000 0.65880  0.02720  0.25860  Biso   1.000  H
  H53      1.0000 0.88470  0.12000  0.76750  Biso   1.000  H
  H54      1.0000 0.38470  0.38000  0.23250  Biso   1.000  H
  H55      1.0000 0.11530  0.62000  0.73250  Biso   1.000  H
  H56      1.0000 0.61530  0.88000  0.26750  Biso   1.000  H
  H57      1.0000 0.40610  0.34240  0.81390  Biso   1.000  H
  H58      1.0000 0.90610  0.15760  0.18610  Biso   1.000  H
  H59      1.0000 0.59390  0.84240  0.68610  Biso   1.000  H
  H60      1.0000 0.09390  0.65760  0.31390  Biso   1.000  H
  H61      1.0000 0.24800  0.27630  0.81310  Biso   1.000  H
  H62      1.0000 0.74800  0.22370  0.18690  Biso   1.000  H
  H63      1.0000 0.75200  0.77630  0.68690  Biso   1.000  H
  H64      1.0000 0.25200  0.72370  0.31310  Biso   1.000  H
