data_image0
_cell_length_a       5.9896
_cell_length_b       15.2593
_cell_length_c       21.581
_cell_angle_alpha    90
_cell_angle_beta     90
_cell_angle_gamma    90

_symmetry_space_group_name_H-M    "P 1"
_symmetry_int_tables_number       1

loop_
  _symmetry_equiv_pos_as_xyz
  'x, y, z'

loop_
  _atom_site_label
  _atom_site_occupancy
  _atom_site_fract_x
  _atom_site_fract_y
  _atom_site_fract_z
  _atom_site_thermal_displace_type
  _atom_site_B_iso_or_equiv
  _atom_site_type_symbol
  Cu1      1.0000 0.16689  0.53883  0.34904  Biso   1.000  Cu
  Cu2      1.0000 0.33311  0.46117  0.84904  Biso   1.000  Cu
  Cu3      1.0000 0.83311  0.03883  0.15096  Biso   1.000  Cu
  Cu4      1.0000 0.66689  0.96117  0.65096  Biso   1.000  Cu
  O1       1.0000 0.53030  0.51460  0.45248  Biso   1.000  O
  O2       1.0000 0.96970  0.48540  0.95248  Biso   1.000  O
  O3       1.0000 0.46970  0.01460  0.04752  Biso   1.000  O
  O4       1.0000 0.03030  0.98540  0.54752  Biso   1.000  O
  O5       1.0000 0.16450  0.49792  0.43385  Biso   1.000  O
  O6       1.0000 0.33550  0.50208  0.93385  Biso   1.000  O
  O7       1.0000 0.83550  0.99792  0.06615  Biso   1.000  O
  O8       1.0000 0.66450  0.00208  0.56615  Biso   1.000  O
  O9       1.0000 0.96440  0.44860  0.74787  Biso   1.000  O
  O10      1.0000 0.53560  0.55140  0.24787  Biso   1.000  O
  O11      1.0000 0.03560  0.94860  0.75213  Biso   1.000  O
  O12      1.0000 0.46440  0.05140  0.25213  Biso   1.000  O
  O13      1.0000 0.33100  0.42383  0.76355  Biso   1.000  O
  O14      1.0000 0.16900  0.57617  0.26355  Biso   1.000  O
  O15      1.0000 0.66900  0.92383  0.73645  Biso   1.000  O
  O16      1.0000 0.83100  0.07617  0.23645  Biso   1.000  O
  C1       1.0000 0.15550  0.43720  0.72974  Biso   1.000  C
  C2       1.0000 0.34450  0.56280  0.22974  Biso   1.000  C
  C3       1.0000 0.84450  0.93720  0.77026  Biso   1.000  C
  C4       1.0000 0.65550  0.06280  0.27026  Biso   1.000  C
  C5       1.0000 0.20540  0.44670  0.66137  Biso   1.000  C
  C6       1.0000 0.29460  0.55330  0.16137  Biso   1.000  C
  C7       1.0000 0.79460  0.94670  0.83863  Biso   1.000  C
  C8       1.0000 0.70540  0.05330  0.33863  Biso   1.000  C
  C9       1.0000 0.41920  0.45280  0.63920  Biso   1.000  C
  C10      1.0000 0.08080  0.54720  0.13920  Biso   1.000  C
  C11      1.0000 0.58080  0.95280  0.86080  Biso   1.000  C
  C12      1.0000 0.91920  0.04720  0.36080  Biso   1.000  C
  H1       1.0000 0.53860  0.44530  0.66620  Biso   1.000  H
  H2       1.0000 0.96140  0.55470  0.16620  Biso   1.000  H
  H3       1.0000 0.46140  0.94530  0.83380  Biso   1.000  H
  H4       1.0000 0.03860  0.05470  0.33380  Biso   1.000  H
  C13      1.0000 0.46040  0.46980  0.57750  Biso   1.000  C
  C14      1.0000 0.03960  0.53020  0.07750  Biso   1.000  C
  C15      1.0000 0.53960  0.96980  0.92250  Biso   1.000  C
  C16      1.0000 0.96040  0.03020  0.42250  Biso   1.000  C
  H5       1.0000 0.60680  0.47700  0.56400  Biso   1.000  H
  H6       1.0000 0.89320  0.52300  0.06400  Biso   1.000  H
  H7       1.0000 0.39320  0.97700  0.93600  Biso   1.000  H
  H8       1.0000 0.10680  0.02300  0.43600  Biso   1.000  H
  C17      1.0000 0.28990  0.47630  0.53580  Biso   1.000  C
  C18      1.0000 0.21010  0.52370  0.03580  Biso   1.000  C
  C19      1.0000 0.71010  0.97630  0.96420  Biso   1.000  C
  C20      1.0000 0.78990  0.02370  0.46420  Biso   1.000  C
  C21      1.0000 0.07890  0.46700  0.55662  Biso   1.000  C
  C22      1.0000 0.42110  0.53300  0.05662  Biso   1.000  C
  C23      1.0000 0.92110  0.96700  0.94338  Biso   1.000  C
  C24      1.0000 0.57890  0.03300  0.44338  Biso   1.000  C
  H9       1.0000 0.95990  0.47060  0.52910  Biso   1.000  H
  H10      1.0000 0.54010  0.52940  0.02910  Biso   1.000  H
  H11      1.0000 0.04010  0.97060  0.97090  Biso   1.000  H
  H12      1.0000 0.45990  0.02940  0.47090  Biso   1.000  H
  C25      1.0000 0.03840  0.45170  0.62017  Biso   1.000  C
  C26      1.0000 0.46160  0.54830  0.12017  Biso   1.000  C
  C27      1.0000 0.96160  0.95170  0.87983  Biso   1.000  C
  C28      1.0000 0.53840  0.04830  0.37983  Biso   1.000  C
  H13      1.0000 0.89210  0.44490  0.63380  Biso   1.000  H
  H14      1.0000 0.60790  0.55510  0.13380  Biso   1.000  H
  H15      1.0000 0.10790  0.94490  0.86620  Biso   1.000  H
  H16      1.0000 0.39210  0.05510  0.36620  Biso   1.000  H
  C29      1.0000 0.34150  0.49750  0.46790  Biso   1.000  C
  C30      1.0000 0.15850  0.50250  0.96790  Biso   1.000  C
  C31      1.0000 0.65850  0.99750  0.03210  Biso   1.000  C
  C32      1.0000 0.84150  0.00250  0.53210  Biso   1.000  C
  N1       1.0000 0.18120  0.41556  0.31642  Biso   1.000  N
  N2       1.0000 0.31880  0.58444  0.81642  Biso   1.000  N
  N3       1.0000 0.81880  0.91556  0.18358  Biso   1.000  N
  N4       1.0000 0.68120  0.08444  0.68358  Biso   1.000  N
  C33      1.0000 0.36320  0.36210  0.32926  Biso   1.000  C
  C34      1.0000 0.13680  0.63790  0.82926  Biso   1.000  C
  C35      1.0000 0.63680  0.86210  0.17074  Biso   1.000  C
  C36      1.0000 0.86320  0.13790  0.67074  Biso   1.000  C
  H17      1.0000 0.48140  0.38340  0.35280  Biso   1.000  H
  H18      1.0000 0.01860  0.61660  0.85280  Biso   1.000  H
  H19      1.0000 0.51860  0.88340  0.14720  Biso   1.000  H
  H20      1.0000 0.98140  0.11660  0.64720  Biso   1.000  H
  C37      1.0000 0.36850  0.27660  0.30700  Biso   1.000  C
  C38      1.0000 0.13150  0.72340  0.80700  Biso   1.000  C
  C39      1.0000 0.63150  0.77660  0.19300  Biso   1.000  C
  C40      1.0000 0.86850  0.22340  0.69300  Biso   1.000  C
  H21      1.0000 0.49030  0.24080  0.31560  Biso   1.000  H
  H22      1.0000 0.00970  0.75920  0.81560  Biso   1.000  H
  H23      1.0000 0.50970  0.74080  0.18440  Biso   1.000  H
  H24      1.0000 0.99030  0.25920  0.68440  Biso   1.000  H
  C41      1.0000 0.19180  0.24467  0.27188  Biso   1.000  C
  C42      1.0000 0.30820  0.75533  0.77188  Biso   1.000  C
  C43      1.0000 0.80820  0.74467  0.22812  Biso   1.000  C
  C44      1.0000 0.69180  0.25533  0.72812  Biso   1.000  C
  H25      1.0000 0.19530  0.18750  0.25700  Biso   1.000  H
  H26      1.0000 0.30470  0.81250  0.75700  Biso   1.000  H
  H27      1.0000 0.80470  0.68750  0.24300  Biso   1.000  H
  H28      1.0000 0.69530  0.31250  0.74300  Biso   1.000  H
  C45      1.0000 0.00970  0.29820  0.25904  Biso   1.000  C
  C46      1.0000 0.49030  0.70180  0.75904  Biso   1.000  C
  C47      1.0000 0.99030  0.79820  0.24096  Biso   1.000  C
  C48      1.0000 0.50970  0.20180  0.74096  Biso   1.000  C
  H29      1.0000 0.89150  0.27680  0.23550  Biso   1.000  H
  H30      1.0000 0.60850  0.72320  0.73550  Biso   1.000  H
  H31      1.0000 0.10850  0.77680  0.26450  Biso   1.000  H
  H32      1.0000 0.39150  0.22320  0.76450  Biso   1.000  H
  C49      1.0000 0.00440  0.38360  0.28131  Biso   1.000  C
  C50      1.0000 0.49560  0.61640  0.78131  Biso   1.000  C
  C51      1.0000 0.99560  0.88360  0.21869  Biso   1.000  C
  C52      1.0000 0.50440  0.11640  0.71869  Biso   1.000  C
  H33      1.0000 0.88270  0.41940  0.27270  Biso   1.000  H
  H34      1.0000 0.61730  0.58060  0.77270  Biso   1.000  H
  H35      1.0000 0.11730  0.91940  0.22730  Biso   1.000  H
  H36      1.0000 0.38270  0.08060  0.72730  Biso   1.000  H
  N5       1.0000 0.20700  0.66163  0.37881  Biso   1.000  N
  N6       1.0000 0.29300  0.33837  0.87881  Biso   1.000  N
  N7       1.0000 0.79300  0.16163  0.12119  Biso   1.000  N
  N8       1.0000 0.70700  0.83837  0.62119  Biso   1.000  N
  C53      1.0000 0.38620  0.71270  0.35951  Biso   1.000  C
  C54      1.0000 0.11380  0.28730  0.85951  Biso   1.000  C
  C55      1.0000 0.61380  0.21270  0.14049  Biso   1.000  C
  C56      1.0000 0.88620  0.78730  0.64049  Biso   1.000  C
  H37      1.0000 0.48650  0.69080  0.33050  Biso   1.000  H
  H38      1.0000 0.01350  0.30920  0.83050  Biso   1.000  H
  H39      1.0000 0.51350  0.19080  0.16950  Biso   1.000  H
  H40      1.0000 0.98650  0.80920  0.66950  Biso   1.000  H
  C57      1.0000 0.41550  0.79640  0.38360  Biso   1.000  C
  C58      1.0000 0.08450  0.20360  0.88360  Biso   1.000  C
  C59      1.0000 0.58450  0.29640  0.11640  Biso   1.000  C
  C60      1.0000 0.91550  0.70360  0.61640  Biso   1.000  C
  H41      1.0000 0.53540  0.83050  0.37070  Biso   1.000  H
  H42      1.0000 0.96460  0.16950  0.87070  Biso   1.000  H
  H43      1.0000 0.46460  0.33050  0.12930  Biso   1.000  H
  H44      1.0000 0.03540  0.66950  0.62930  Biso   1.000  H
  C61      1.0000 0.26550  0.82900  0.42700  Biso   1.000  C
  C62      1.0000 0.23450  0.17100  0.92700  Biso   1.000  C
  C63      1.0000 0.73450  0.32900  0.07300  Biso   1.000  C
  C64      1.0000 0.76550  0.67100  0.57300  Biso   1.000  C
  H45      1.0000 0.28510  0.88500  0.44310  Biso   1.000  H
  H46      1.0000 0.21490  0.11500  0.94310  Biso   1.000  H
  H47      1.0000 0.71490  0.38500  0.05690  Biso   1.000  H
  H48      1.0000 0.78510  0.61500  0.55690  Biso   1.000  H
  C65      1.0000 0.08630  0.77800  0.44630  Biso   1.000  C
  C66      1.0000 0.41370  0.22200  0.94630  Biso   1.000  C
  C67      1.0000 0.91370  0.27800  0.05370  Biso   1.000  C
  C68      1.0000 0.58630  0.72200  0.55370  Biso   1.000  C
  H49      1.0000 0.98600  0.79990  0.47530  Biso   1.000  H
  H50      1.0000 0.51400  0.20010  0.97530  Biso   1.000  H
  H51      1.0000 0.01400  0.29990  0.02470  Biso   1.000  H
  H52      1.0000 0.48600  0.70010  0.52470  Biso   1.000  H
  C69      1.0000 0.05710  0.69430  0.42221  Biso   1.000  C
  C70      1.0000 0.44290  0.30570  0.92221  Biso   1.000  C
  C71      1.0000 0.94290  0.19430  0.07779  Biso   1.000  C
  C72      1.0000 0.55710  0.80570  0.57779  Biso   1.000  C
  H53      1.0000 0.93720  0.66020  0.43510  Biso   1.000  H
  H54      1.0000 0.56280  0.33980  0.93510  Biso   1.000  H
  H55      1.0000 0.06280  0.16020  0.06490  Biso   1.000  H
  H56      1.0000 0.43720  0.83980  0.56490  Biso   1.000  H
  O17      1.0000 0.79320  0.54786  0.35159  Biso   1.000  O
  O18      1.0000 0.70680  0.45214  0.85159  Biso   1.000  O
  O19      1.0000 0.20680  0.04786  0.14841  Biso   1.000  O
  O20      1.0000 0.29320  0.95214  0.64841  Biso   1.000  O
  H57      1.0000 0.74270  0.50950  0.37645  Biso   1.000  H
  H58      1.0000 0.75730  0.49050  0.87645  Biso   1.000  H
  H59      1.0000 0.25730  0.00950  0.12355  Biso   1.000  H
  H60      1.0000 0.24270  0.99050  0.62355  Biso   1.000  H
  H61      1.0000 0.71980  0.53930  0.31842  Biso   1.000  H
  H62      1.0000 0.78020  0.46070  0.81842  Biso   1.000  H
  H63      1.0000 0.28020  0.03930  0.18158  Biso   1.000  H
  H64      1.0000 0.21980  0.96070  0.68158  Biso   1.000  H
  O21      1.0000 0.02600  0.25490  0.48360  Biso   1.000  O
  O22      1.0000 0.47400  0.74510  0.98360  Biso   1.000  O
  O23      1.0000 0.97400  0.75490  0.01640  Biso   1.000  O
  O24      1.0000 0.52600  0.24510  0.51640  Biso   1.000  O
