data_image0
_cell_length_a       21.26
_cell_length_b       7.501
_cell_length_c       20.819
_cell_angle_alpha    90
_cell_angle_beta     109.17
_cell_angle_gamma    90

_symmetry_space_group_name_H-M    "P 1"
_symmetry_int_tables_number       1

loop_
  _symmetry_equiv_pos_as_xyz
  'x, y, z'

loop_
  _atom_site_label
  _atom_site_occupancy
  _atom_site_fract_x
  _atom_site_fract_y
  _atom_site_fract_z
  _atom_site_thermal_displace_type
  _atom_site_B_iso_or_equiv
  _atom_site_type_symbol
  Cu1      1.0000 0.21096  0.14358  0.13865  Biso   1.000  Cu
  Cu2      1.0000 0.71096  0.64358  0.13865  Biso   1.000  Cu
  Cu3      1.0000 0.78904  0.14358  0.36135  Biso   1.000  Cu
  Cu4      1.0000 0.28904  0.64358  0.36135  Biso   1.000  Cu
  Cu5      1.0000 0.78904  0.85642  0.86135  Biso   1.000  Cu
  Cu6      1.0000 0.28904  0.35642  0.86135  Biso   1.000  Cu
  Cu7      1.0000 0.21096  0.85642  0.63865  Biso   1.000  Cu
  Cu8      1.0000 0.71096  0.35642  0.63865  Biso   1.000  Cu
  N1       1.0000 0.28595  0.04780  0.10998  Biso   1.000  N
  N2       1.0000 0.78595  0.54780  0.10998  Biso   1.000  N
  N3       1.0000 0.71405  0.04780  0.39002  Biso   1.000  N
  N4       1.0000 0.21405  0.54780  0.39002  Biso   1.000  N
  N5       1.0000 0.71405  0.95220  0.89002  Biso   1.000  N
  N6       1.0000 0.21405  0.45220  0.89002  Biso   1.000  N
  N7       1.0000 0.28595  0.95220  0.60998  Biso   1.000  N
  N8       1.0000 0.78595  0.45220  0.60998  Biso   1.000  N
  N9       1.0000 0.16109  0.10640  0.03976  Biso   1.000  N
  N10      1.0000 0.66109  0.60640  0.03976  Biso   1.000  N
  N11      1.0000 0.83891  0.10640  0.46024  Biso   1.000  N
  N12      1.0000 0.33891  0.60640  0.46024  Biso   1.000  N
  N13      1.0000 0.83891  0.89360  0.96024  Biso   1.000  N
  N14      1.0000 0.33891  0.39360  0.96024  Biso   1.000  N
  N15      1.0000 0.16109  0.89360  0.53976  Biso   1.000  N
  N16      1.0000 0.66109  0.39360  0.53976  Biso   1.000  N
  C1       1.0000 0.34873  0.01720  0.14787  Biso   1.000  C
  C2       1.0000 0.84873  0.51720  0.14787  Biso   1.000  C
  C3       1.0000 0.65127  0.01720  0.35213  Biso   1.000  C
  C4       1.0000 0.15127  0.51720  0.35213  Biso   1.000  C
  C5       1.0000 0.65127  0.98280  0.85213  Biso   1.000  C
  C6       1.0000 0.15127  0.48280  0.85213  Biso   1.000  C
  C7       1.0000 0.34873  0.98280  0.64787  Biso   1.000  C
  C8       1.0000 0.84873  0.48280  0.64787  Biso   1.000  C
  H1       1.0000 0.36160  0.03840  0.19440  Biso   1.000  H
  H2       1.0000 0.86160  0.53840  0.19440  Biso   1.000  H
  H3       1.0000 0.63840  0.03840  0.30560  Biso   1.000  H
  H4       1.0000 0.13840  0.53840  0.30560  Biso   1.000  H
  H5       1.0000 0.63840  0.96160  0.80560  Biso   1.000  H
  H6       1.0000 0.13840  0.46160  0.80560  Biso   1.000  H
  H7       1.0000 0.36160  0.96160  0.69440  Biso   1.000  H
  H8       1.0000 0.86160  0.46160  0.69440  Biso   1.000  H
  C9       1.0000 0.39574  0.95420  0.12009  Biso   1.000  C
  C10      1.0000 0.89574  0.45420  0.12009  Biso   1.000  C
  C11      1.0000 0.60426  0.95420  0.37991  Biso   1.000  C
  C12      1.0000 0.10426  0.45420  0.37991  Biso   1.000  C
  C13      1.0000 0.60426  0.04580  0.87991  Biso   1.000  C
  C14      1.0000 0.10426  0.54580  0.87991  Biso   1.000  C
  C15      1.0000 0.39574  0.04580  0.62009  Biso   1.000  C
  C16      1.0000 0.89574  0.54580  0.62009  Biso   1.000  C
  H9       1.0000 0.43900  0.93260  0.14850  Biso   1.000  H
  H10      1.0000 0.93900  0.43260  0.14850  Biso   1.000  H
  H11      1.0000 0.56100  0.93260  0.35150  Biso   1.000  H
  H12      1.0000 0.06100  0.43260  0.35150  Biso   1.000  H
  H13      1.0000 0.56100  0.06740  0.85150  Biso   1.000  H
  H14      1.0000 0.06100  0.56740  0.85150  Biso   1.000  H
  H15      1.0000 0.43900  0.06740  0.64850  Biso   1.000  H
  H16      1.0000 0.93900  0.56740  0.64850  Biso   1.000  H
  C17      1.0000 0.37948  0.92390  0.05218  Biso   1.000  C
  C18      1.0000 0.87948  0.42390  0.05218  Biso   1.000  C
  C19      1.0000 0.62052  0.92390  0.44782  Biso   1.000  C
  C20      1.0000 0.12052  0.42390  0.44782  Biso   1.000  C
  C21      1.0000 0.62052  0.07610  0.94782  Biso   1.000  C
  C22      1.0000 0.12052  0.57610  0.94782  Biso   1.000  C
  C23      1.0000 0.37948  0.07610  0.55218  Biso   1.000  C
  C24      1.0000 0.87948  0.57610  0.55218  Biso   1.000  C
  C25      1.0000 0.31229  0.95280  0.01027  Biso   1.000  C
  C26      1.0000 0.81229  0.45280  0.01027  Biso   1.000  C
  C27      1.0000 0.68771  0.95280  0.48973  Biso   1.000  C
  C28      1.0000 0.18771  0.45280  0.48973  Biso   1.000  C
  C29      1.0000 0.68771  0.04720  0.98973  Biso   1.000  C
  C30      1.0000 0.18771  0.54720  0.98973  Biso   1.000  C
  C31      1.0000 0.31229  0.04720  0.51027  Biso   1.000  C
  C32      1.0000 0.81229  0.54720  0.51027  Biso   1.000  C
  C33      1.0000 0.28680  0.92290  0.93866  Biso   1.000  C
  C34      1.0000 0.78680  0.42290  0.93866  Biso   1.000  C
  C35      1.0000 0.71320  0.92290  0.56134  Biso   1.000  C
  C36      1.0000 0.21320  0.42290  0.56134  Biso   1.000  C
  C37      1.0000 0.71320  0.07710  0.06134  Biso   1.000  C
  C38      1.0000 0.21320  0.57710  0.06134  Biso   1.000  C
  C39      1.0000 0.28680  0.07710  0.43866  Biso   1.000  C
  C40      1.0000 0.78680  0.57710  0.43866  Biso   1.000  C
  H17      1.0000 0.31520  0.88060  0.91630  Biso   1.000  H
  H18      1.0000 0.81520  0.38060  0.91630  Biso   1.000  H
  H19      1.0000 0.68480  0.88060  0.58370  Biso   1.000  H
  H20      1.0000 0.18480  0.38060  0.58370  Biso   1.000  H
  H21      1.0000 0.68480  0.11940  0.08370  Biso   1.000  H
  H22      1.0000 0.18480  0.61940  0.08370  Biso   1.000  H
  H23      1.0000 0.31520  0.11940  0.41630  Biso   1.000  H
  H24      1.0000 0.81520  0.61940  0.41630  Biso   1.000  H
  C41      1.0000 0.22230  0.95480  0.90259  Biso   1.000  C
  C42      1.0000 0.72230  0.45480  0.90259  Biso   1.000  C
  C43      1.0000 0.77770  0.95480  0.59741  Biso   1.000  C
  C44      1.0000 0.27770  0.45480  0.59741  Biso   1.000  C
  C45      1.0000 0.77770  0.04520  0.09741  Biso   1.000  C
  C46      1.0000 0.27770  0.54520  0.09741  Biso   1.000  C
  C47      1.0000 0.22230  0.04520  0.40259  Biso   1.000  C
  C48      1.0000 0.72230  0.54520  0.40259  Biso   1.000  C
  H25      1.0000 0.20760  0.93450  0.85590  Biso   1.000  H
  H26      1.0000 0.70760  0.43450  0.85590  Biso   1.000  H
  H27      1.0000 0.79240  0.93450  0.64410  Biso   1.000  H
  H28      1.0000 0.29240  0.43450  0.64410  Biso   1.000  H
  H29      1.0000 0.79240  0.06550  0.14410  Biso   1.000  H
  H30      1.0000 0.29240  0.56550  0.14410  Biso   1.000  H
  H31      1.0000 0.20760  0.06550  0.35590  Biso   1.000  H
  H32      1.0000 0.70760  0.56550  0.35590  Biso   1.000  H
  C49      1.0000 0.17582  0.01830  0.93348  Biso   1.000  C
  C50      1.0000 0.67582  0.51830  0.93348  Biso   1.000  C
  C51      1.0000 0.82418  0.01830  0.56652  Biso   1.000  C
  C52      1.0000 0.32418  0.51830  0.56652  Biso   1.000  C
  C53      1.0000 0.82418  0.98170  0.06652  Biso   1.000  C
  C54      1.0000 0.32418  0.48170  0.06652  Biso   1.000  C
  C55      1.0000 0.17582  0.98170  0.43348  Biso   1.000  C
  C56      1.0000 0.67582  0.48170  0.43348  Biso   1.000  C
  C57      1.0000 0.10791  0.05690  0.89862  Biso   1.000  C
  C58      1.0000 0.60791  0.55690  0.89862  Biso   1.000  C
  C59      1.0000 0.89209  0.05690  0.60138  Biso   1.000  C
  C60      1.0000 0.39209  0.55690  0.60138  Biso   1.000  C
  C61      1.0000 0.89209  0.94310  0.10138  Biso   1.000  C
  C62      1.0000 0.39209  0.44310  0.10138  Biso   1.000  C
  C63      1.0000 0.10791  0.94310  0.39862  Biso   1.000  C
  C64      1.0000 0.60791  0.44310  0.39862  Biso   1.000  C
  C65      1.0000 0.07013  0.11790  0.93592  Biso   1.000  C
  C66      1.0000 0.57013  0.61790  0.93592  Biso   1.000  C
  C67      1.0000 0.92987  0.11790  0.56408  Biso   1.000  C
  C68      1.0000 0.42987  0.61790  0.56408  Biso   1.000  C
  C69      1.0000 0.92987  0.88210  0.06408  Biso   1.000  C
  C70      1.0000 0.42987  0.38210  0.06408  Biso   1.000  C
  C71      1.0000 0.07013  0.88210  0.43592  Biso   1.000  C
  C72      1.0000 0.57013  0.38210  0.43592  Biso   1.000  C
  H33      1.0000 0.02540  0.14390  0.91420  Biso   1.000  H
  H34      1.0000 0.52540  0.64390  0.91420  Biso   1.000  H
  H35      1.0000 0.97460  0.14390  0.58580  Biso   1.000  H
  H36      1.0000 0.47460  0.64390  0.58580  Biso   1.000  H
  H37      1.0000 0.97460  0.85610  0.08580  Biso   1.000  H
  H38      1.0000 0.47460  0.35610  0.08580  Biso   1.000  H
  H39      1.0000 0.02540  0.85610  0.41420  Biso   1.000  H
  H40      1.0000 0.52540  0.35610  0.41420  Biso   1.000  H
  C73      1.0000 0.09741  0.14160  0.00558  Biso   1.000  C
  C74      1.0000 0.59741  0.64160  0.00558  Biso   1.000  C
  C75      1.0000 0.90259  0.14160  0.49442  Biso   1.000  C
  C76      1.0000 0.40259  0.64160  0.49442  Biso   1.000  C
  C77      1.0000 0.90259  0.85840  0.99442  Biso   1.000  C
  C78      1.0000 0.40259  0.35840  0.99442  Biso   1.000  C
  C79      1.0000 0.09741  0.85840  0.50558  Biso   1.000  C
  C80      1.0000 0.59741  0.35840  0.50558  Biso   1.000  C
  H41      1.0000 0.07030  0.18370  0.02940  Biso   1.000  H
  H42      1.0000 0.57030  0.68370  0.02940  Biso   1.000  H
  H43      1.0000 0.92970  0.18370  0.47060  Biso   1.000  H
  H44      1.0000 0.42970  0.68370  0.47060  Biso   1.000  H
  H45      1.0000 0.92970  0.81630  0.97060  Biso   1.000  H
  H46      1.0000 0.42970  0.31630  0.97060  Biso   1.000  H
  H47      1.0000 0.07030  0.81630  0.52940  Biso   1.000  H
  H48      1.0000 0.57030  0.31630  0.52940  Biso   1.000  H
  C81      1.0000 0.19947  0.04650  0.00405  Biso   1.000  C
  C82      1.0000 0.69947  0.54650  0.00405  Biso   1.000  C
  C83      1.0000 0.80053  0.04650  0.49595  Biso   1.000  C
  C84      1.0000 0.30053  0.54650  0.49595  Biso   1.000  C
  C85      1.0000 0.80053  0.95350  0.99595  Biso   1.000  C
  C86      1.0000 0.30053  0.45350  0.99595  Biso   1.000  C
  C87      1.0000 0.19947  0.95350  0.50405  Biso   1.000  C
  C88      1.0000 0.69947  0.45350  0.50405  Biso   1.000  C
  C89      1.0000 0.26794  0.01360  0.04252  Biso   1.000  C
  C90      1.0000 0.76794  0.51360  0.04252  Biso   1.000  C
  C91      1.0000 0.73206  0.01360  0.45748  Biso   1.000  C
  C92      1.0000 0.23206  0.51360  0.45748  Biso   1.000  C
  C93      1.0000 0.73206  0.98640  0.95748  Biso   1.000  C
  C94      1.0000 0.23206  0.48640  0.95748  Biso   1.000  C
  C95      1.0000 0.26794  0.98640  0.54252  Biso   1.000  C
  C96      1.0000 0.76794  0.48640  0.54252  Biso   1.000  C
  C97      1.0000 0.43120  0.86390  0.02150  Biso   1.000  C
  C98      1.0000 0.93120  0.36390  0.02150  Biso   1.000  C
  C99      1.0000 0.56880  0.86390  0.47850  Biso   1.000  C
  C100     1.0000 0.06880  0.36390  0.47850  Biso   1.000  C
  C101     1.0000 0.56880  0.13610  0.97850  Biso   1.000  C
  C102     1.0000 0.06880  0.63610  0.97850  Biso   1.000  C
  C103     1.0000 0.43120  0.13610  0.52150  Biso   1.000  C
  C104     1.0000 0.93120  0.63610  0.52150  Biso   1.000  C
  H49      1.0000 0.47430  0.86390  0.05590  Biso   1.000  H
  H50      1.0000 0.97430  0.36390  0.05590  Biso   1.000  H
  H51      1.0000 0.52570  0.86390  0.44410  Biso   1.000  H
  H52      1.0000 0.02570  0.36390  0.44410  Biso   1.000  H
  H53      1.0000 0.52570  0.13610  0.94410  Biso   1.000  H
  H54      1.0000 0.02570  0.63610  0.94410  Biso   1.000  H
  H55      1.0000 0.47430  0.13610  0.55590  Biso   1.000  H
  H56      1.0000 0.97430  0.63610  0.55590  Biso   1.000  H
  H57      1.0000 0.43140  0.94390  0.98560  Biso   1.000  H
  H58      1.0000 0.93140  0.44390  0.98560  Biso   1.000  H
  H59      1.0000 0.56860  0.94390  0.51440  Biso   1.000  H
  H60      1.0000 0.06860  0.44390  0.51440  Biso   1.000  H
  H61      1.0000 0.56860  0.05610  0.01440  Biso   1.000  H
  H62      1.0000 0.06860  0.55610  0.01440  Biso   1.000  H
  H63      1.0000 0.43140  0.05610  0.48560  Biso   1.000  H
  H64      1.0000 0.93140  0.55610  0.48560  Biso   1.000  H
  H65      1.0000 0.42070  0.74570  0.00350  Biso   1.000  H
  H66      1.0000 0.92070  0.24570  0.00350  Biso   1.000  H
  H67      1.0000 0.57930  0.74570  0.49650  Biso   1.000  H
  H68      1.0000 0.07930  0.24570  0.49650  Biso   1.000  H
  H69      1.0000 0.57930  0.25430  0.99650  Biso   1.000  H
  H70      1.0000 0.07930  0.75430  0.99650  Biso   1.000  H
  H71      1.0000 0.42070  0.25430  0.50350  Biso   1.000  H
  H72      1.0000 0.92070  0.75430  0.50350  Biso   1.000  H
  C105     1.0000 0.07780  0.03410  0.82279  Biso   1.000  C
  C106     1.0000 0.57780  0.53410  0.82279  Biso   1.000  C
  C107     1.0000 0.92220  0.03410  0.67721  Biso   1.000  C
  C108     1.0000 0.42220  0.53410  0.67721  Biso   1.000  C
  C109     1.0000 0.92220  0.96590  0.17721  Biso   1.000  C
  C110     1.0000 0.42220  0.46590  0.17721  Biso   1.000  C
  C111     1.0000 0.07780  0.96590  0.32279  Biso   1.000  C
  C112     1.0000 0.57780  0.46590  0.32279  Biso   1.000  C
  H73      1.0000 0.03400  0.08550  0.80750  Biso   1.000  H
  H74      1.0000 0.53400  0.58550  0.80750  Biso   1.000  H
  H75      1.0000 0.96600  0.08550  0.69250  Biso   1.000  H
  H76      1.0000 0.46600  0.58550  0.69250  Biso   1.000  H
  H77      1.0000 0.96600  0.91450  0.19250  Biso   1.000  H
  H78      1.0000 0.46600  0.41450  0.19250  Biso   1.000  H
  H79      1.0000 0.03400  0.91450  0.30750  Biso   1.000  H
  H80      1.0000 0.53400  0.41450  0.30750  Biso   1.000  H
  H81      1.0000 0.07490  0.90940  0.81180  Biso   1.000  H
  H82      1.0000 0.57490  0.40940  0.81180  Biso   1.000  H
  H83      1.0000 0.92510  0.90940  0.68820  Biso   1.000  H
  H84      1.0000 0.42510  0.40940  0.68820  Biso   1.000  H
  H85      1.0000 0.92510  0.09060  0.18820  Biso   1.000  H
  H86      1.0000 0.42510  0.59060  0.18820  Biso   1.000  H
  H87      1.0000 0.07490  0.09060  0.31180  Biso   1.000  H
  H88      1.0000 0.57490  0.59060  0.31180  Biso   1.000  H
  H89      1.0000 0.10530  0.09270  0.80070  Biso   1.000  H
  H90      1.0000 0.60530  0.59270  0.80070  Biso   1.000  H
  H91      1.0000 0.89470  0.09270  0.69930  Biso   1.000  H
  H92      1.0000 0.39470  0.59270  0.69930  Biso   1.000  H
  H93      1.0000 0.89470  0.90730  0.19930  Biso   1.000  H
  H94      1.0000 0.39470  0.40730  0.19930  Biso   1.000  H
  H95      1.0000 0.10530  0.90730  0.30070  Biso   1.000  H
  H96      1.0000 0.60530  0.40730  0.30070  Biso   1.000  H
  O1       1.0000 0.13880  0.28110  0.14987  Biso   1.000  O
  O2       1.0000 0.63880  0.78110  0.14987  Biso   1.000  O
  O3       1.0000 0.86120  0.28110  0.35013  Biso   1.000  O
  O4       1.0000 0.36120  0.78110  0.35013  Biso   1.000  O
  O5       1.0000 0.86120  0.71890  0.85013  Biso   1.000  O
  O6       1.0000 0.36120  0.21890  0.85013  Biso   1.000  O
  O7       1.0000 0.13880  0.71890  0.64987  Biso   1.000  O
  O8       1.0000 0.63880  0.21890  0.64987  Biso   1.000  O
  O9       1.0000 0.05869  0.32990  0.19201  Biso   1.000  O
  O10      1.0000 0.55869  0.82990  0.19201  Biso   1.000  O
  O11      1.0000 0.94131  0.32990  0.30799  Biso   1.000  O
  O12      1.0000 0.44131  0.82990  0.30799  Biso   1.000  O
  O13      1.0000 0.94131  0.67010  0.80799  Biso   1.000  O
  O14      1.0000 0.44131  0.17010  0.80799  Biso   1.000  O
  O15      1.0000 0.05869  0.67010  0.69201  Biso   1.000  O
  O16      1.0000 0.55869  0.17010  0.69201  Biso   1.000  O
  C113     1.0000 0.26801  0.33850  0.26276  Biso   1.000  C
  C114     1.0000 0.76801  0.83850  0.26276  Biso   1.000  C
  C115     1.0000 0.73199  0.33850  0.23724  Biso   1.000  C
  C116     1.0000 0.23199  0.83850  0.23724  Biso   1.000  C
  C117     1.0000 0.73199  0.66150  0.73724  Biso   1.000  C
  C118     1.0000 0.23199  0.16150  0.73724  Biso   1.000  C
  C119     1.0000 0.26801  0.66150  0.76276  Biso   1.000  C
  C120     1.0000 0.76801  0.16150  0.76276  Biso   1.000  C
  H97      1.0000 0.22730  0.39740  0.24880  Biso   1.000  H
  H98      1.0000 0.72730  0.89740  0.24880  Biso   1.000  H
  H99      1.0000 0.77270  0.39740  0.25120  Biso   1.000  H
  H100     1.0000 0.27270  0.89740  0.25120  Biso   1.000  H
  H101     1.0000 0.77270  0.60260  0.75120  Biso   1.000  H
  H102     1.0000 0.27270  0.10260  0.75120  Biso   1.000  H
  H103     1.0000 0.22730  0.60260  0.74880  Biso   1.000  H
  H104     1.0000 0.72730  0.10260  0.74880  Biso   1.000  H
  O17      1.0000 0.27603  0.22110  0.22475  Biso   1.000  O
  O18      1.0000 0.77603  0.72110  0.22475  Biso   1.000  O
  O19      1.0000 0.72397  0.22110  0.27525  Biso   1.000  O
  O20      1.0000 0.22397  0.72110  0.27525  Biso   1.000  O
  O21      1.0000 0.72397  0.77890  0.77525  Biso   1.000  O
  O22      1.0000 0.22397  0.27890  0.77525  Biso   1.000  O
  O23      1.0000 0.27603  0.77890  0.72475  Biso   1.000  O
  O24      1.0000 0.77603  0.27890  0.72475  Biso   1.000  O
  O25      1.0000 0.30860  0.38560  0.31750  Biso   1.000  O
  O26      1.0000 0.80860  0.88560  0.31750  Biso   1.000  O
  O27      1.0000 0.69140  0.38560  0.18250  Biso   1.000  O
  O28      1.0000 0.19140  0.88560  0.18250  Biso   1.000  O
  O29      1.0000 0.69140  0.61440  0.68250  Biso   1.000  O
  O30      1.0000 0.19140  0.11440  0.68250  Biso   1.000  O
  O31      1.0000 0.30860  0.61440  0.81750  Biso   1.000  O
  O32      1.0000 0.80860  0.11440  0.81750  Biso   1.000  O
  C121     1.0000 0.09874  0.23490  0.17780  Biso   1.000  C
  C122     1.0000 0.59874  0.73490  0.17780  Biso   1.000  C
  C123     1.0000 0.90126  0.23490  0.32220  Biso   1.000  C
  C124     1.0000 0.40126  0.73490  0.32220  Biso   1.000  C
  C125     1.0000 0.90126  0.76510  0.82220  Biso   1.000  C
  C126     1.0000 0.40126  0.26510  0.82220  Biso   1.000  C
  C127     1.0000 0.09874  0.76510  0.67780  Biso   1.000  C
  C128     1.0000 0.59874  0.26510  0.67780  Biso   1.000  C
  H105     1.0000 0.09900  0.11500  0.18930  Biso   1.000  H
  H106     1.0000 0.59900  0.61500  0.18930  Biso   1.000  H
  H107     1.0000 0.90100  0.11500  0.31070  Biso   1.000  H
  H108     1.0000 0.40100  0.61500  0.31070  Biso   1.000  H
  H109     1.0000 0.90100  0.88500  0.81070  Biso   1.000  H
  H110     1.0000 0.40100  0.38500  0.81070  Biso   1.000  H
  H111     1.0000 0.09900  0.88500  0.68930  Biso   1.000  H
  H112     1.0000 0.59900  0.38500  0.68930  Biso   1.000  H
  O33      1.0000 0.06640  0.69690  0.15600  Biso   1.000  O
  O34      1.0000 0.56640  0.19690  0.15600  Biso   1.000  O
  O35      1.0000 0.93360  0.69690  0.34400  Biso   1.000  O
  O36      1.0000 0.43360  0.19690  0.34400  Biso   1.000  O
  O37      1.0000 0.93360  0.30310  0.84400  Biso   1.000  O
  O38      1.0000 0.43360  0.80310  0.84400  Biso   1.000  O
  O39      1.0000 0.06640  0.30310  0.65600  Biso   1.000  O
  O40      1.0000 0.56640  0.80310  0.65600  Biso   1.000  O
  H113     1.0000 0.06350  0.58500  0.15550  Biso   1.000  H
  H114     1.0000 0.56350  0.08500  0.15550  Biso   1.000  H
  H115     1.0000 0.93650  0.58500  0.34450  Biso   1.000  H
  H116     1.0000 0.43650  0.08500  0.34450  Biso   1.000  H
  H117     1.0000 0.93650  0.41500  0.84450  Biso   1.000  H
  H118     1.0000 0.43650  0.91500  0.84450  Biso   1.000  H
  H119     1.0000 0.06350  0.41500  0.65550  Biso   1.000  H
  H120     1.0000 0.56350  0.91500  0.65550  Biso   1.000  H
  H121     1.0000 0.10330  0.74090  0.16350  Biso   1.000  H
  H122     1.0000 0.60330  0.24090  0.16350  Biso   1.000  H
  H123     1.0000 0.89670  0.74090  0.33650  Biso   1.000  H
  H124     1.0000 0.39670  0.24090  0.33650  Biso   1.000  H
  H125     1.0000 0.89670  0.25910  0.83650  Biso   1.000  H
  H126     1.0000 0.39670  0.75910  0.83650  Biso   1.000  H
  H127     1.0000 0.10330  0.25910  0.66350  Biso   1.000  H
  H128     1.0000 0.60330  0.75910  0.66350  Biso   1.000  H
