data_image0
_cell_length_a       13.9299
_cell_length_b       9.2275
_cell_length_c       12.1865
_cell_angle_alpha    90
_cell_angle_beta     111.248
_cell_angle_gamma    90

_symmetry_space_group_name_H-M    "P 1"
_symmetry_int_tables_number       1

loop_
  _symmetry_equiv_pos_as_xyz
  'x, y, z'

loop_
  _atom_site_label
  _atom_site_occupancy
  _atom_site_fract_x
  _atom_site_fract_y
  _atom_site_fract_z
  _atom_site_thermal_displace_type
  _atom_site_B_iso_or_equiv
  _atom_site_type_symbol
  Cu1      1.0000 0.00000  0.00000  0.00000  Biso   1.000  Cu
  Cu2      1.0000 0.50000  0.50000  0.00000  Biso   1.000  Cu
  Cu3      1.0000 0.00000  0.00000  0.50000  Biso   1.000  Cu
  Cu4      1.0000 0.50000  0.50000  0.50000  Biso   1.000  Cu
  N1       1.0000 0.06243  0.19591  0.00650  Biso   1.000  N
  N2       1.0000 0.56243  0.69591  0.00650  Biso   1.000  N
  N3       1.0000 0.06243  0.80409  0.50650  Biso   1.000  N
  N4       1.0000 0.56243  0.30409  0.50650  Biso   1.000  N
  N5       1.0000 0.93757  0.80409  0.99350  Biso   1.000  N
  N6       1.0000 0.43757  0.30409  0.99350  Biso   1.000  N
  N7       1.0000 0.93757  0.19591  0.49350  Biso   1.000  N
  N8       1.0000 0.43757  0.69591  0.49350  Biso   1.000  N
  C1       1.0000 0.06783  0.29030  0.09274  Biso   1.000  C
  C2       1.0000 0.56783  0.79030  0.09274  Biso   1.000  C
  C3       1.0000 0.06783  0.70970  0.59274  Biso   1.000  C
  C4       1.0000 0.56783  0.20970  0.59274  Biso   1.000  C
  C5       1.0000 0.93217  0.70970  0.90726  Biso   1.000  C
  C6       1.0000 0.43217  0.20970  0.90726  Biso   1.000  C
  C7       1.0000 0.93217  0.29030  0.40726  Biso   1.000  C
  C8       1.0000 0.43217  0.79030  0.40726  Biso   1.000  C
  C9       1.0000 0.11131  0.42610  0.10015  Biso   1.000  C
  C10      1.0000 0.61131  0.92610  0.10015  Biso   1.000  C
  C11      1.0000 0.11131  0.57390  0.60015  Biso   1.000  C
  C12      1.0000 0.61131  0.07390  0.60015  Biso   1.000  C
  C13      1.0000 0.88869  0.57390  0.89985  Biso   1.000  C
  C14      1.0000 0.38869  0.07390  0.89985  Biso   1.000  C
  C15      1.0000 0.88869  0.42610  0.39985  Biso   1.000  C
  C16      1.0000 0.38869  0.92610  0.39985  Biso   1.000  C
  H1       1.0000 0.11280  0.48980  0.15990  Biso   1.000  H
  H2       1.0000 0.61280  0.98980  0.15990  Biso   1.000  H
  H3       1.0000 0.11280  0.51020  0.65990  Biso   1.000  H
  H4       1.0000 0.61280  0.01020  0.65990  Biso   1.000  H
  H5       1.0000 0.88720  0.51020  0.84010  Biso   1.000  H
  H6       1.0000 0.38720  0.01020  0.84010  Biso   1.000  H
  H7       1.0000 0.88720  0.48980  0.34010  Biso   1.000  H
  H8       1.0000 0.38720  0.98980  0.34010  Biso   1.000  H
  C17      1.0000 0.15258  0.46540  0.01700  Biso   1.000  C
  C18      1.0000 0.65258  0.96540  0.01700  Biso   1.000  C
  C19      1.0000 0.15258  0.53460  0.51700  Biso   1.000  C
  C20      1.0000 0.65258  0.03460  0.51700  Biso   1.000  C
  C21      1.0000 0.84742  0.53460  0.98300  Biso   1.000  C
  C22      1.0000 0.34742  0.03460  0.98300  Biso   1.000  C
  C23      1.0000 0.84742  0.46540  0.48300  Biso   1.000  C
  C24      1.0000 0.34742  0.96540  0.48300  Biso   1.000  C
  H9       1.0000 0.18350  0.55550  0.02070  Biso   1.000  H
  H10      1.0000 0.68350  0.05550  0.02070  Biso   1.000  H
  H11      1.0000 0.18350  0.44450  0.52070  Biso   1.000  H
  H12      1.0000 0.68350  0.94450  0.52070  Biso   1.000  H
  H13      1.0000 0.81650  0.44450  0.97930  Biso   1.000  H
  H14      1.0000 0.31650  0.94450  0.97930  Biso   1.000  H
  H15      1.0000 0.81650  0.55550  0.47930  Biso   1.000  H
  H16      1.0000 0.31650  0.05550  0.47930  Biso   1.000  H
  C25      1.0000 0.14707  0.36890  0.92848  Biso   1.000  C
  C26      1.0000 0.64707  0.86890  0.92848  Biso   1.000  C
  C27      1.0000 0.14707  0.63110  0.42848  Biso   1.000  C
  C28      1.0000 0.64707  0.13110  0.42848  Biso   1.000  C
  C29      1.0000 0.85293  0.63110  0.07152  Biso   1.000  C
  C30      1.0000 0.35293  0.13110  0.07152  Biso   1.000  C
  C31      1.0000 0.85293  0.36890  0.57152  Biso   1.000  C
  C32      1.0000 0.35293  0.86890  0.57152  Biso   1.000  C
  H17      1.0000 0.17410  0.39340  0.87140  Biso   1.000  H
  H18      1.0000 0.67410  0.89340  0.87140  Biso   1.000  H
  H19      1.0000 0.17410  0.60660  0.37140  Biso   1.000  H
  H20      1.0000 0.67410  0.10660  0.37140  Biso   1.000  H
  H21      1.0000 0.82590  0.60660  0.12860  Biso   1.000  H
  H22      1.0000 0.32590  0.10660  0.12860  Biso   1.000  H
  H23      1.0000 0.82590  0.39340  0.62860  Biso   1.000  H
  H24      1.0000 0.32590  0.89340  0.62860  Biso   1.000  H
  C33      1.0000 0.10116  0.23580  0.92536  Biso   1.000  C
  C34      1.0000 0.60116  0.73580  0.92536  Biso   1.000  C
  C35      1.0000 0.10116  0.76420  0.42536  Biso   1.000  C
  C36      1.0000 0.60116  0.26420  0.42536  Biso   1.000  C
  C37      1.0000 0.89884  0.76420  0.07464  Biso   1.000  C
  C38      1.0000 0.39884  0.26420  0.07464  Biso   1.000  C
  C39      1.0000 0.89884  0.23580  0.57464  Biso   1.000  C
  C40      1.0000 0.39884  0.73580  0.57464  Biso   1.000  C
  H25      1.0000 0.09700  0.17170  0.86490  Biso   1.000  H
  H26      1.0000 0.59700  0.67170  0.86490  Biso   1.000  H
  H27      1.0000 0.09700  0.82830  0.36490  Biso   1.000  H
  H28      1.0000 0.59700  0.32830  0.36490  Biso   1.000  H
  H29      1.0000 0.90300  0.82830  0.13510  Biso   1.000  H
  H30      1.0000 0.40300  0.32830  0.13510  Biso   1.000  H
  H31      1.0000 0.90300  0.17170  0.63510  Biso   1.000  H
  H32      1.0000 0.40300  0.67170  0.63510  Biso   1.000  H
  C41      1.0000 0.02793  0.23490  0.18059  Biso   1.000  C
  C42      1.0000 0.52793  0.73490  0.18059  Biso   1.000  C
  C43      1.0000 0.02793  0.76510  0.68059  Biso   1.000  C
  C44      1.0000 0.52793  0.26510  0.68059  Biso   1.000  C
  C45      1.0000 0.97207  0.76510  0.81941  Biso   1.000  C
  C46      1.0000 0.47207  0.26510  0.81941  Biso   1.000  C
  C47      1.0000 0.97207  0.23490  0.31941  Biso   1.000  C
  C48      1.0000 0.47207  0.73490  0.31941  Biso   1.000  C
  O1       1.0000 0.00000  0.32759  0.25000  Biso   1.000  O
  O2       1.0000 0.50000  0.82759  0.25000  Biso   1.000  O
  O3       1.0000 0.00000  0.67241  0.75000  Biso   1.000  O
  O4       1.0000 0.50000  0.17241  0.75000  Biso   1.000  O
  N9       1.0000 0.01832  0.10037  0.20346  Biso   1.000  N
  N10      1.0000 0.51832  0.60037  0.20346  Biso   1.000  N
  N11      1.0000 0.01832  0.89963  0.70346  Biso   1.000  N
  N12      1.0000 0.51832  0.39963  0.70346  Biso   1.000  N
  N13      1.0000 0.98168  0.89963  0.79654  Biso   1.000  N
  N14      1.0000 0.48168  0.39963  0.79654  Biso   1.000  N
  N15      1.0000 0.98168  0.10037  0.29654  Biso   1.000  N
  N16      1.0000 0.48168  0.60037  0.29654  Biso   1.000  N
  N17      1.0000 0.81462  0.16499  0.87411  Biso   1.000  N
  N18      1.0000 0.31462  0.66499  0.87411  Biso   1.000  N
  N19      1.0000 0.81462  0.83501  0.37411  Biso   1.000  N
  N20      1.0000 0.31462  0.33501  0.37411  Biso   1.000  N
  N21      1.0000 0.18538  0.83501  0.12589  Biso   1.000  N
  N22      1.0000 0.68538  0.33501  0.12589  Biso   1.000  N
  N23      1.0000 0.18538  0.16499  0.62589  Biso   1.000  N
  N24      1.0000 0.68538  0.66499  0.62589  Biso   1.000  N
  O5       1.0000 0.85773  0.07436  0.95733  Biso   1.000  O
  O6       1.0000 0.35773  0.57436  0.95733  Biso   1.000  O
  O7       1.0000 0.85773  0.92564  0.45733  Biso   1.000  O
  O8       1.0000 0.35773  0.42564  0.45733  Biso   1.000  O
  O9       1.0000 0.14227  0.92564  0.04267  Biso   1.000  O
  O10      1.0000 0.64227  0.42564  0.04267  Biso   1.000  O
  O11      1.0000 0.14227  0.07436  0.54267  Biso   1.000  O
  O12      1.0000 0.64227  0.57436  0.54267  Biso   1.000  O
  O13      1.0000 0.72638  0.20310  0.85913  Biso   1.000  O
  O14      1.0000 0.22638  0.70310  0.85913  Biso   1.000  O
  O15      1.0000 0.72638  0.79690  0.35913  Biso   1.000  O
  O16      1.0000 0.22638  0.29690  0.35913  Biso   1.000  O
  O17      1.0000 0.27362  0.79690  0.14087  Biso   1.000  O
  O18      1.0000 0.77362  0.29690  0.14087  Biso   1.000  O
  O19      1.0000 0.27362  0.20310  0.64087  Biso   1.000  O
  O20      1.0000 0.77362  0.70310  0.64087  Biso   1.000  O
  O21      1.0000 0.86258  0.21320  0.81551  Biso   1.000  O
  O22      1.0000 0.36258  0.71320  0.81551  Biso   1.000  O
  O23      1.0000 0.86258  0.78680  0.31551  Biso   1.000  O
  O24      1.0000 0.36258  0.28680  0.31551  Biso   1.000  O
  O25      1.0000 0.13742  0.78680  0.18449  Biso   1.000  O
  O26      1.0000 0.63742  0.28680  0.18449  Biso   1.000  O
  O27      1.0000 0.13742  0.21320  0.68449  Biso   1.000  O
  O28      1.0000 0.63742  0.71320  0.68449  Biso   1.000  O
