data_image0
_cell_length_a       7.6864
_cell_length_b       10.948
_cell_length_c       11.372
_cell_angle_alpha    93.14
_cell_angle_beta     92.61
_cell_angle_gamma    105.54

_symmetry_space_group_name_H-M    "P 1"
_symmetry_int_tables_number       1

loop_
  _symmetry_equiv_pos_as_xyz
  'x, y, z'

loop_
  _atom_site_label
  _atom_site_occupancy
  _atom_site_fract_x
  _atom_site_fract_y
  _atom_site_fract_z
  _atom_site_thermal_displace_type
  _atom_site_B_iso_or_equiv
  _atom_site_type_symbol
  Cu1      1.0000 0.00000  0.50000  0.50000  Biso   1.000  Cu
  Cu2      1.0000 0.00000  0.00000  0.00000  Biso   1.000  Cu
  O1       1.0000 0.91070  0.27569  0.36307  Biso   1.000  O
  O2       1.0000 0.08930  0.72431  0.63693  Biso   1.000  O
  O3       1.0000 0.93649  0.17782  0.86458  Biso   1.000  O
  O4       1.0000 0.06351  0.82218  0.13542  Biso   1.000  O
  O5       1.0000 0.04795  0.18231  0.04847  Biso   1.000  O
  O6       1.0000 0.95205  0.81769  0.95153  Biso   1.000  O
  C1       1.0000 0.64940  0.33430  0.58480  Biso   1.000  C
  C2       1.0000 0.35060  0.66570  0.41520  Biso   1.000  C
  H1       1.0000 0.67430  0.25850  0.56090  Biso   1.000  H
  H2       1.0000 0.32570  0.74150  0.43910  Biso   1.000  H
  O7       1.0000 0.03966  0.33904  0.54287  Biso   1.000  O
  O8       1.0000 0.96034  0.66096  0.45713  Biso   1.000  O
  N1       1.0000 0.53450  0.99860  0.16622  Biso   1.000  N
  N2       1.0000 0.46550  0.00140  0.83378  Biso   1.000  N
  N3       1.0000 0.76240  0.96851  0.07038  Biso   1.000  N
  N4       1.0000 0.23760  0.03149  0.92962  Biso   1.000  N
  N5       1.0000 0.51460  0.46830  0.65828  Biso   1.000  N
  N6       1.0000 0.48540  0.53170  0.34172  Biso   1.000  N
  N7       1.0000 0.75930  0.45316  0.57218  Biso   1.000  N
  N8       1.0000 0.24070  0.54684  0.42782  Biso   1.000  N
  C3       1.0000 0.96870  0.03193  0.38621  Biso   1.000  C
  C4       1.0000 0.03130  0.96807  0.61379  Biso   1.000  C
  H3       1.0000 0.94770  0.05340  0.30990  Biso   1.000  H
  H4       1.0000 0.05230  0.94660  0.69010  Biso   1.000  H
  C5       1.0000 0.44590  0.55120  0.85160  Biso   1.000  C
  C6       1.0000 0.55410  0.44880  0.14840  Biso   1.000  C
  H5       1.0000 0.43270  0.47170  0.88670  Biso   1.000  H
  H6       1.0000 0.56730  0.52830  0.11330  Biso   1.000  H
  H7       1.0000 0.37070  0.59700  0.88900  Biso   1.000  H
  H8       1.0000 0.62930  0.40300  0.11100  Biso   1.000  H
  H9       1.0000 0.57000  0.60060  0.86170  Biso   1.000  H
  H10      1.0000 0.43000  0.39940  0.13830  Biso   1.000  H
  C7       1.0000 0.45240  0.05670  0.36060  Biso   1.000  C
  C8       1.0000 0.54760  0.94330  0.63940  Biso   1.000  C
  H11      1.0000 0.40530  0.97040  0.38020  Biso   1.000  H
  H12      1.0000 0.59470  0.02960  0.61980  Biso   1.000  H
  H13      1.0000 0.39250  0.11010  0.40310  Biso   1.000  H
  H14      1.0000 0.60750  0.88990  0.59690  Biso   1.000  H
  H15      1.0000 0.58000  0.08440  0.38170  Biso   1.000  H
  H16      1.0000 0.42000  0.91560  0.61830  Biso   1.000  H
  C9       1.0000 0.99750  0.37248  0.98204  Biso   1.000  C
  C10      1.0000 0.00250  0.62752  0.01796  Biso   1.000  C
  C11      1.0000 0.69780  0.05310  0.12800  Biso   1.000  C
  C12      1.0000 0.30220  0.94690  0.87200  Biso   1.000  C
  H17      1.0000 0.75760  0.13910  0.14050  Biso   1.000  H
  H18      1.0000 0.24240  0.86090  0.85950  Biso   1.000  H
  C13      1.0000 0.96110  0.43954  0.88758  Biso   1.000  C
  C14      1.0000 0.03890  0.56046  0.11242  Biso   1.000  C
  H19      1.0000 0.93500  0.39910  0.81230  Biso   1.000  H
  H20      1.0000 0.06500  0.60090  0.18770  Biso   1.000  H
  C15      1.0000 0.03640  0.43359  0.09464  Biso   1.000  C
  C16      1.0000 0.96360  0.56641  0.90536  Biso   1.000  C
  H21      1.0000 0.06070  0.38920  0.15800  Biso   1.000  H
  H22      1.0000 0.93930  0.61080  0.84200  Biso   1.000  H
  C17      1.0000 0.63320  0.85470  0.07390  Biso   1.000  C
  C18      1.0000 0.36680  0.14530  0.92610  Biso   1.000  C
  H23      1.0000 0.64140  0.77710  0.04060  Biso   1.000  H
  H24      1.0000 0.35860  0.22290  0.95940  Biso   1.000  H
  C19      1.0000 0.99290  0.23451  0.96117  Biso   1.000  C
  C20      1.0000 0.00710  0.76549  0.03883  Biso   1.000  C
  C21      1.0000 0.99100  0.12260  0.48043  Biso   1.000  C
  C22      1.0000 0.00900  0.87740  0.51957  Biso   1.000  C
  C23      1.0000 0.97820  0.25449  0.45794  Biso   1.000  C
  C24      1.0000 0.02180  0.74551  0.54206  Biso   1.000  C
  C25      1.0000 0.02230  0.09013  0.59434  Biso   1.000  C
  C26      1.0000 0.97770  0.90987  0.40566  Biso   1.000  C
  H25      1.0000 0.03710  0.15030  0.65760  Biso   1.000  H
  H26      1.0000 0.96290  0.84970  0.34240  Biso   1.000  H
  C27      1.0000 0.38980  0.52660  0.72170  Biso   1.000  C
  C28      1.0000 0.61020  0.47340  0.27830  Biso   1.000  C
  H27      1.0000 0.26810  0.47050  0.71140  Biso   1.000  H
  H28      1.0000 0.73190  0.52950  0.28860  Biso   1.000  H
  H29      1.0000 0.38890  0.60610  0.68830  Biso   1.000  H
  H30      1.0000 0.61110  0.39390  0.31170  Biso   1.000  H
  C29      1.0000 0.49280  0.87230  0.13290  Biso   1.000  C
  C30      1.0000 0.50720  0.12770  0.86710  Biso   1.000  C
  H31      1.0000 0.38840  0.81050  0.14790  Biso   1.000  H
  H32      1.0000 0.61160  0.18950  0.85210  Biso   1.000  H
  C31      1.0000 0.67340  0.53180  0.61790  Biso   1.000  C
  C32      1.0000 0.32660  0.46820  0.38210  Biso   1.000  C
  H33      1.0000 0.71680  0.61990  0.62180  Biso   1.000  H
  H34      1.0000 0.28320  0.38010  0.37820  Biso   1.000  H
  C33      1.0000 0.49890  0.34390  0.63750  Biso   1.000  C
  C34      1.0000 0.50110  0.65610  0.36250  Biso   1.000  C
  H35      1.0000 0.40290  0.27710  0.65590  Biso   1.000  H
  H36      1.0000 0.59710  0.72290  0.34410  Biso   1.000  H
  C35      1.0000 0.42140  0.06490  0.23390  Biso   1.000  C
  C36      1.0000 0.57860  0.93510  0.76610  Biso   1.000  C
  H37      1.0000 0.45080  0.15340  0.21590  Biso   1.000  H
  H38      1.0000 0.54920  0.84660  0.78410  Biso   1.000  H
  H39      1.0000 0.29460  0.02650  0.21060  Biso   1.000  H
  H40      1.0000 0.70540  0.97350  0.78940  Biso   1.000  H
