data_image0
_cell_length_a       16.527
_cell_length_b       8.18
_cell_length_c       14.463
_cell_angle_alpha    90
_cell_angle_beta     113.19
_cell_angle_gamma    90

_symmetry_space_group_name_H-M    "P 1"
_symmetry_int_tables_number       1

loop_
  _symmetry_equiv_pos_as_xyz
  'x, y, z'

loop_
  _atom_site_label
  _atom_site_occupancy
  _atom_site_fract_x
  _atom_site_fract_y
  _atom_site_fract_z
  _atom_site_thermal_displace_type
  _atom_site_B_iso_or_equiv
  _atom_site_type_symbol
  Cu1      1.0000 0.00000  0.00000  0.00000  Biso   1.000  Cu
  Cu2      1.0000 0.50000  0.50000  0.00000  Biso   1.000  Cu
  Cu3      1.0000 0.00000  0.00000  0.50000  Biso   1.000  Cu
  Cu4      1.0000 0.50000  0.50000  0.50000  Biso   1.000  Cu
  O1       1.0000 0.93410  0.90780  0.14946  Biso   1.000  O
  O2       1.0000 0.43410  0.40780  0.14946  Biso   1.000  O
  O3       1.0000 0.06590  0.90780  0.35054  Biso   1.000  O
  O4       1.0000 0.56590  0.40780  0.35054  Biso   1.000  O
  O5       1.0000 0.06590  0.09220  0.85054  Biso   1.000  O
  O6       1.0000 0.56590  0.59220  0.85054  Biso   1.000  O
  O7       1.0000 0.93410  0.09220  0.64946  Biso   1.000  O
  O8       1.0000 0.43410  0.59220  0.64946  Biso   1.000  O
  O9       1.0000 0.01489  0.79610  0.07497  Biso   1.000  O
  O10      1.0000 0.51489  0.29610  0.07497  Biso   1.000  O
  O11      1.0000 0.98511  0.79610  0.42503  Biso   1.000  O
  O12      1.0000 0.48511  0.29610  0.42503  Biso   1.000  O
  O13      1.0000 0.98511  0.20390  0.92503  Biso   1.000  O
  O14      1.0000 0.48511  0.70390  0.92503  Biso   1.000  O
  O15      1.0000 0.01489  0.20390  0.57497  Biso   1.000  O
  O16      1.0000 0.51489  0.70390  0.57497  Biso   1.000  O
  N1       1.0000 0.11711  0.07240  0.09940  Biso   1.000  N
  N2       1.0000 0.61711  0.57240  0.09940  Biso   1.000  N
  N3       1.0000 0.88289  0.07240  0.40060  Biso   1.000  N
  N4       1.0000 0.38289  0.57240  0.40060  Biso   1.000  N
  N5       1.0000 0.88289  0.92760  0.90060  Biso   1.000  N
  N6       1.0000 0.38289  0.42760  0.90060  Biso   1.000  N
  N7       1.0000 0.11711  0.92760  0.59940  Biso   1.000  N
  N8       1.0000 0.61711  0.42760  0.59940  Biso   1.000  N
  C1       1.0000 0.18390  0.14210  0.08120  Biso   1.000  C
  C2       1.0000 0.68390  0.64210  0.08120  Biso   1.000  C
  C3       1.0000 0.81610  0.14210  0.41880  Biso   1.000  C
  C4       1.0000 0.31610  0.64210  0.41880  Biso   1.000  C
  C5       1.0000 0.81610  0.85790  0.91880  Biso   1.000  C
  C6       1.0000 0.31610  0.35790  0.91880  Biso   1.000  C
  C7       1.0000 0.18390  0.85790  0.58120  Biso   1.000  C
  C8       1.0000 0.68390  0.35790  0.58120  Biso   1.000  C
  H1       1.0000 0.18180  0.16660  0.01750  Biso   1.000  H
  H2       1.0000 0.68180  0.66660  0.01750  Biso   1.000  H
  H3       1.0000 0.81820  0.16660  0.48250  Biso   1.000  H
  H4       1.0000 0.31820  0.66660  0.48250  Biso   1.000  H
  H5       1.0000 0.81820  0.83340  0.98250  Biso   1.000  H
  H6       1.0000 0.31820  0.33340  0.98250  Biso   1.000  H
  H7       1.0000 0.18180  0.83340  0.51750  Biso   1.000  H
  H8       1.0000 0.68180  0.33340  0.51750  Biso   1.000  H
  C9       1.0000 0.99130  0.34620  0.19840  Biso   1.000  C
  C10      1.0000 0.49130  0.84620  0.19840  Biso   1.000  C
  C11      1.0000 0.00870  0.34620  0.30160  Biso   1.000  C
  C12      1.0000 0.50870  0.84620  0.30160  Biso   1.000  C
  C13      1.0000 0.00870  0.65380  0.80160  Biso   1.000  C
  C14      1.0000 0.50870  0.15380  0.80160  Biso   1.000  C
  C15      1.0000 0.99130  0.65380  0.69840  Biso   1.000  C
  C16      1.0000 0.49130  0.15380  0.69840  Biso   1.000  C
  H9       1.0000 0.98440  0.24810  0.16370  Biso   1.000  H
  H10      1.0000 0.48440  0.74810  0.16370  Biso   1.000  H
  H11      1.0000 0.01560  0.24810  0.33630  Biso   1.000  H
  H12      1.0000 0.51560  0.74810  0.33630  Biso   1.000  H
  H13      1.0000 0.01560  0.75190  0.83630  Biso   1.000  H
  H14      1.0000 0.51560  0.25190  0.83630  Biso   1.000  H
  H15      1.0000 0.98440  0.75190  0.66370  Biso   1.000  H
  H16      1.0000 0.48440  0.25190  0.66370  Biso   1.000  H
  C17      1.0000 0.98450  0.49210  0.14930  Biso   1.000  C
  C18      1.0000 0.48450  0.99210  0.14930  Biso   1.000  C
  C19      1.0000 0.01550  0.49210  0.35070  Biso   1.000  C
  C20      1.0000 0.51550  0.99210  0.35070  Biso   1.000  C
  C21      1.0000 0.01550  0.50790  0.85070  Biso   1.000  C
  C22      1.0000 0.51550  0.00790  0.85070  Biso   1.000  C
  C23      1.0000 0.98450  0.50790  0.64930  Biso   1.000  C
  C24      1.0000 0.48450  0.00790  0.64930  Biso   1.000  C
  H17      1.0000 0.97470  0.49150  0.08140  Biso   1.000  H
  H18      1.0000 0.47470  0.99150  0.08140  Biso   1.000  H
  H19      1.0000 0.02530  0.49150  0.41860  Biso   1.000  H
  H20      1.0000 0.52530  0.99150  0.41860  Biso   1.000  H
  H21      1.0000 0.02530  0.50850  0.91860  Biso   1.000  H
  H22      1.0000 0.52530  0.00850  0.91860  Biso   1.000  H
  H23      1.0000 0.97470  0.50850  0.58140  Biso   1.000  H
  H24      1.0000 0.47470  0.00850  0.58140  Biso   1.000  H
  C25      1.0000 0.99191  0.64070  0.19820  Biso   1.000  C
  C26      1.0000 0.49191  0.14070  0.19820  Biso   1.000  C
  C27      1.0000 0.00809  0.64070  0.30180  Biso   1.000  C
  C28      1.0000 0.50809  0.14070  0.30180  Biso   1.000  C
  C29      1.0000 0.00809  0.35930  0.80180  Biso   1.000  C
  C30      1.0000 0.50809  0.85930  0.80180  Biso   1.000  C
  C31      1.0000 0.99191  0.35930  0.69820  Biso   1.000  C
  C32      1.0000 0.49191  0.85930  0.69820  Biso   1.000  C
  C33      1.0000 0.97890  0.79520  0.13870  Biso   1.000  C
  C34      1.0000 0.47890  0.29520  0.13870  Biso   1.000  C
  C35      1.0000 0.02110  0.79520  0.36130  Biso   1.000  C
  C36      1.0000 0.52110  0.29520  0.36130  Biso   1.000  C
  C37      1.0000 0.02110  0.20480  0.86130  Biso   1.000  C
  C38      1.0000 0.52110  0.70480  0.86130  Biso   1.000  C
  C39      1.0000 0.97890  0.20480  0.63870  Biso   1.000  C
  C40      1.0000 0.47890  0.70480  0.63870  Biso   1.000  C
  C41      1.0000 0.14690  0.05920  0.19800  Biso   1.000  C
  C42      1.0000 0.64690  0.55920  0.19800  Biso   1.000  C
  C43      1.0000 0.85310  0.05920  0.30200  Biso   1.000  C
  C44      1.0000 0.35310  0.55920  0.30200  Biso   1.000  C
  C45      1.0000 0.85310  0.94080  0.80200  Biso   1.000  C
  C46      1.0000 0.35310  0.44080  0.80200  Biso   1.000  C
  C47      1.0000 0.14690  0.94080  0.69800  Biso   1.000  C
  C48      1.0000 0.64690  0.44080  0.69800  Biso   1.000  C
  H25      1.0000 0.11530  0.01480  0.23280  Biso   1.000  H
  H26      1.0000 0.61530  0.51480  0.23280  Biso   1.000  H
  H27      1.0000 0.88470  0.01480  0.26720  Biso   1.000  H
  H28      1.0000 0.38470  0.51480  0.26720  Biso   1.000  H
  H29      1.0000 0.88470  0.98520  0.76720  Biso   1.000  H
  H30      1.0000 0.38470  0.48520  0.76720  Biso   1.000  H
  H31      1.0000 0.11530  0.98520  0.73280  Biso   1.000  H
  H32      1.0000 0.61530  0.48520  0.73280  Biso   1.000  H
  N9       1.0000 0.22960  0.11890  0.24190  Biso   1.000  N
  N10      1.0000 0.72960  0.61890  0.24190  Biso   1.000  N
  N11      1.0000 0.77040  0.11890  0.25810  Biso   1.000  N
  N12      1.0000 0.27040  0.61890  0.25810  Biso   1.000  N
  N13      1.0000 0.77040  0.88110  0.75810  Biso   1.000  N
  N14      1.0000 0.27040  0.38110  0.75810  Biso   1.000  N
  N15      1.0000 0.22960  0.88110  0.74190  Biso   1.000  N
  N16      1.0000 0.72960  0.38110  0.74190  Biso   1.000  N
  C49      1.0000 0.25380  0.17090  0.16790  Biso   1.000  C
  C50      1.0000 0.75380  0.67090  0.16790  Biso   1.000  C
  C51      1.0000 0.74620  0.17090  0.33210  Biso   1.000  C
  C52      1.0000 0.24620  0.67090  0.33210  Biso   1.000  C
  C53      1.0000 0.74620  0.82910  0.83210  Biso   1.000  C
  C54      1.0000 0.24620  0.32910  0.83210  Biso   1.000  C
  C55      1.0000 0.25380  0.82910  0.66790  Biso   1.000  C
  C56      1.0000 0.75380  0.32910  0.66790  Biso   1.000  C
  H33      1.0000 0.30740  0.21690  0.17520  Biso   1.000  H
  H34      1.0000 0.80740  0.71690  0.17520  Biso   1.000  H
  H35      1.0000 0.69260  0.21690  0.32480  Biso   1.000  H
  H36      1.0000 0.19260  0.71690  0.32480  Biso   1.000  H
  H37      1.0000 0.69260  0.78310  0.82480  Biso   1.000  H
  H38      1.0000 0.19260  0.28310  0.82480  Biso   1.000  H
  H39      1.0000 0.30740  0.78310  0.67520  Biso   1.000  H
  H40      1.0000 0.80740  0.28310  0.67520  Biso   1.000  H
  C57      1.0000 0.28380  0.13270  0.34590  Biso   1.000  C
  C58      1.0000 0.78380  0.63270  0.34590  Biso   1.000  C
  C59      1.0000 0.71620  0.13270  0.15410  Biso   1.000  C
  C60      1.0000 0.21620  0.63270  0.15410  Biso   1.000  C
  C61      1.0000 0.71620  0.86730  0.65410  Biso   1.000  C
  C62      1.0000 0.21620  0.36730  0.65410  Biso   1.000  C
  C63      1.0000 0.28380  0.86730  0.84590  Biso   1.000  C
  C64      1.0000 0.78380  0.36730  0.84590  Biso   1.000  C
  H41      1.0000 0.34220  0.16380  0.36390  Biso   1.000  H
  H42      1.0000 0.84220  0.66380  0.36390  Biso   1.000  H
  H43      1.0000 0.65780  0.16380  0.13610  Biso   1.000  H
  H44      1.0000 0.15780  0.66380  0.13610  Biso   1.000  H
  H45      1.0000 0.65780  0.83620  0.63610  Biso   1.000  H
  H46      1.0000 0.15780  0.33620  0.63610  Biso   1.000  H
  H47      1.0000 0.34220  0.83620  0.86390  Biso   1.000  H
  H48      1.0000 0.84220  0.33620  0.86390  Biso   1.000  H
  C65      1.0000 0.25770  0.10570  0.41470  Biso   1.000  C
  C66      1.0000 0.75770  0.60570  0.41470  Biso   1.000  C
  C67      1.0000 0.74230  0.10570  0.08530  Biso   1.000  C
  C68      1.0000 0.24230  0.60570  0.08530  Biso   1.000  C
  C69      1.0000 0.74230  0.89430  0.58530  Biso   1.000  C
  C70      1.0000 0.24230  0.39430  0.58530  Biso   1.000  C
  C71      1.0000 0.25770  0.89430  0.91470  Biso   1.000  C
  C72      1.0000 0.75770  0.39430  0.91470  Biso   1.000  C
  H49      1.0000 0.19970  0.07450  0.39900  Biso   1.000  H
  H50      1.0000 0.69970  0.57450  0.39900  Biso   1.000  H
  H51      1.0000 0.80030  0.07450  0.10100  Biso   1.000  H
  H52      1.0000 0.30030  0.57450  0.10100  Biso   1.000  H
  H53      1.0000 0.80030  0.92550  0.60100  Biso   1.000  H
  H54      1.0000 0.30030  0.42550  0.60100  Biso   1.000  H
  H55      1.0000 0.19970  0.92550  0.89900  Biso   1.000  H
  H56      1.0000 0.69970  0.42550  0.89900  Biso   1.000  H
  H57      1.0000 0.29630  0.11680  0.48160  Biso   1.000  H
  H58      1.0000 0.79630  0.61680  0.48160  Biso   1.000  H
  H59      1.0000 0.70370  0.11680  0.01840  Biso   1.000  H
  H60      1.0000 0.20370  0.61680  0.01840  Biso   1.000  H
  H61      1.0000 0.70370  0.88320  0.51840  Biso   1.000  H
  H62      1.0000 0.20370  0.38320  0.51840  Biso   1.000  H
  H63      1.0000 0.29630  0.88320  0.98160  Biso   1.000  H
  H64      1.0000 0.79630  0.38320  0.98160  Biso   1.000  H
