data_image0
_cell_length_a       7.9585
_cell_length_b       16.8134
_cell_length_c       21.622
_cell_angle_alpha    90
_cell_angle_beta     90
_cell_angle_gamma    90

_symmetry_space_group_name_H-M    "P 1"
_symmetry_int_tables_number       1

loop_
  _symmetry_equiv_pos_as_xyz
  'x, y, z'

loop_
  _atom_site_label
  _atom_site_occupancy
  _atom_site_fract_x
  _atom_site_fract_y
  _atom_site_fract_z
  _atom_site_thermal_displace_type
  _atom_site_B_iso_or_equiv
  _atom_site_type_symbol
  Cu1      1.0000 0.50000  0.29645  0.25000  Biso   1.000  Cu
  Cu2      1.0000 0.00000  0.20355  0.75000  Biso   1.000  Cu
  Cu3      1.0000 0.50000  0.70355  0.75000  Biso   1.000  Cu
  Cu4      1.0000 0.00000  0.79645  0.25000  Biso   1.000  Cu
  N1       1.0000 0.42650  0.38394  0.15499  Biso   1.000  N
  N2       1.0000 0.07350  0.11606  0.65499  Biso   1.000  N
  N3       1.0000 0.92650  0.11606  0.84501  Biso   1.000  N
  N4       1.0000 0.57350  0.38394  0.34501  Biso   1.000  N
  N5       1.0000 0.57350  0.61606  0.84501  Biso   1.000  N
  N6       1.0000 0.92650  0.88394  0.34501  Biso   1.000  N
  N7       1.0000 0.07350  0.88394  0.15499  Biso   1.000  N
  N8       1.0000 0.42650  0.61606  0.65499  Biso   1.000  N
  O1       1.0000 0.33275  0.21916  0.22756  Biso   1.000  O
  O2       1.0000 0.16725  0.28084  0.72756  Biso   1.000  O
  O3       1.0000 0.83275  0.28084  0.77244  Biso   1.000  O
  O4       1.0000 0.66725  0.21916  0.27244  Biso   1.000  O
  O5       1.0000 0.66725  0.78084  0.77244  Biso   1.000  O
  O6       1.0000 0.83275  0.71916  0.27244  Biso   1.000  O
  O7       1.0000 0.16725  0.71916  0.22756  Biso   1.000  O
  O8       1.0000 0.33275  0.78084  0.72756  Biso   1.000  O
  O9       1.0000 0.55020  0.33970  0.14447  Biso   1.000  O
  O10      1.0000 0.94980  0.16030  0.64447  Biso   1.000  O
  O11      1.0000 0.05020  0.16030  0.85553  Biso   1.000  O
  O12      1.0000 0.44980  0.33970  0.35553  Biso   1.000  O
  O13      1.0000 0.44980  0.66030  0.85553  Biso   1.000  O
  O14      1.0000 0.05020  0.83970  0.35553  Biso   1.000  O
  O15      1.0000 0.94980  0.83970  0.14447  Biso   1.000  O
  O16      1.0000 0.55020  0.66030  0.64447  Biso   1.000  O
  O17      1.0000 0.36170  0.38098  0.20990  Biso   1.000  O
  O18      1.0000 0.13830  0.11902  0.70990  Biso   1.000  O
  O19      1.0000 0.86170  0.11902  0.79010  Biso   1.000  O
  O20      1.0000 0.63830  0.38098  0.29010  Biso   1.000  O
  O21      1.0000 0.63830  0.61902  0.79010  Biso   1.000  O
  O22      1.0000 0.86170  0.88098  0.29010  Biso   1.000  O
  O23      1.0000 0.13830  0.88098  0.20990  Biso   1.000  O
  O24      1.0000 0.36170  0.61902  0.70990  Biso   1.000  O
  O25      1.0000 0.36720  0.42924  0.11622  Biso   1.000  O
  O26      1.0000 0.13280  0.07076  0.61622  Biso   1.000  O
  O27      1.0000 0.86720  0.07076  0.88378  Biso   1.000  O
  O28      1.0000 0.63280  0.42924  0.38378  Biso   1.000  O
  O29      1.0000 0.63280  0.57076  0.88378  Biso   1.000  O
  O30      1.0000 0.86720  0.92924  0.38378  Biso   1.000  O
  O31      1.0000 0.13280  0.92924  0.11622  Biso   1.000  O
  O32      1.0000 0.36720  0.57076  0.61622  Biso   1.000  O
  P1       1.0000 0.29254  0.14981  0.18585  Biso   1.000  P
  P2       1.0000 0.20746  0.35019  0.68585  Biso   1.000  P
  P3       1.0000 0.79254  0.35019  0.81415  Biso   1.000  P
  P4       1.0000 0.70746  0.14981  0.31415  Biso   1.000  P
  P5       1.0000 0.70746  0.85019  0.81415  Biso   1.000  P
  P6       1.0000 0.79254  0.64981  0.31415  Biso   1.000  P
  P7       1.0000 0.20746  0.64981  0.18585  Biso   1.000  P
  P8       1.0000 0.29254  0.85019  0.68585  Biso   1.000  P
  C1       1.0000 0.47290  0.09367  0.16184  Biso   1.000  C
  C2       1.0000 0.02710  0.40633  0.66184  Biso   1.000  C
  C3       1.0000 0.97290  0.40633  0.83816  Biso   1.000  C
  C4       1.0000 0.52710  0.09367  0.33816  Biso   1.000  C
  C5       1.0000 0.52710  0.90633  0.83816  Biso   1.000  C
  C6       1.0000 0.97290  0.59367  0.33816  Biso   1.000  C
  C7       1.0000 0.02710  0.59367  0.16184  Biso   1.000  C
  C8       1.0000 0.47290  0.90633  0.66184  Biso   1.000  C
  C9       1.0000 0.60010  0.13583  0.13181  Biso   1.000  C
  C10      1.0000 0.89990  0.36417  0.63181  Biso   1.000  C
  C11      1.0000 0.10010  0.36417  0.86819  Biso   1.000  C
  C12      1.0000 0.39990  0.13583  0.36819  Biso   1.000  C
  C13      1.0000 0.39990  0.86417  0.86819  Biso   1.000  C
  C14      1.0000 0.10010  0.63583  0.36819  Biso   1.000  C
  C15      1.0000 0.89990  0.63583  0.13181  Biso   1.000  C
  C16      1.0000 0.60010  0.86417  0.63181  Biso   1.000  C
  H1       1.0000 0.59180  0.19190  0.12740  Biso   1.000  H
  H2       1.0000 0.90820  0.30810  0.62740  Biso   1.000  H
  H3       1.0000 0.09180  0.30810  0.87260  Biso   1.000  H
  H4       1.0000 0.40820  0.19190  0.37260  Biso   1.000  H
  H5       1.0000 0.40820  0.80810  0.87260  Biso   1.000  H
  H6       1.0000 0.09180  0.69190  0.37260  Biso   1.000  H
  H7       1.0000 0.90820  0.69190  0.12740  Biso   1.000  H
  H8       1.0000 0.59180  0.80810  0.62740  Biso   1.000  H
  C17      1.0000 0.73870  0.09591  0.10843  Biso   1.000  C
  C18      1.0000 0.76130  0.40409  0.60843  Biso   1.000  C
  C19      1.0000 0.23870  0.40409  0.89157  Biso   1.000  C
  C20      1.0000 0.26130  0.09591  0.39157  Biso   1.000  C
  C21      1.0000 0.26130  0.90409  0.89157  Biso   1.000  C
  C22      1.0000 0.23870  0.59591  0.39157  Biso   1.000  C
  C23      1.0000 0.76130  0.59591  0.10843  Biso   1.000  C
  C24      1.0000 0.73870  0.90409  0.60843  Biso   1.000  C
  H9       1.0000 0.82500  0.12440  0.08780  Biso   1.000  H
  H10      1.0000 0.67500  0.37560  0.58780  Biso   1.000  H
  H11      1.0000 0.32500  0.37560  0.91220  Biso   1.000  H
  H12      1.0000 0.17500  0.12440  0.41220  Biso   1.000  H
  H13      1.0000 0.17500  0.87560  0.91220  Biso   1.000  H
  H14      1.0000 0.32500  0.62440  0.41220  Biso   1.000  H
  H15      1.0000 0.67500  0.62440  0.08780  Biso   1.000  H
  H16      1.0000 0.82500  0.87560  0.58780  Biso   1.000  H
  C25      1.0000 0.75050  0.01396  0.11541  Biso   1.000  C
  C26      1.0000 0.74950  0.48604  0.61541  Biso   1.000  C
  C27      1.0000 0.25050  0.48604  0.88459  Biso   1.000  C
  C28      1.0000 0.24950  0.01396  0.38459  Biso   1.000  C
  C29      1.0000 0.24950  0.98604  0.88459  Biso   1.000  C
  C30      1.0000 0.25050  0.51396  0.38459  Biso   1.000  C
  C31      1.0000 0.74950  0.51396  0.11541  Biso   1.000  C
  C32      1.0000 0.75050  0.98604  0.61541  Biso   1.000  C
  H17      1.0000 0.84460  0.98640  0.09890  Biso   1.000  H
  H18      1.0000 0.65540  0.51360  0.59890  Biso   1.000  H
  H19      1.0000 0.34460  0.51360  0.90110  Biso   1.000  H
  H20      1.0000 0.15540  0.98640  0.40110  Biso   1.000  H
  H21      1.0000 0.15540  0.01360  0.90110  Biso   1.000  H
  H22      1.0000 0.34460  0.48640  0.40110  Biso   1.000  H
  H23      1.0000 0.65540  0.48640  0.09890  Biso   1.000  H
  H24      1.0000 0.84460  0.01360  0.59890  Biso   1.000  H
  C33      1.0000 0.62630  0.97213  0.14621  Biso   1.000  C
  C34      1.0000 0.87370  0.52787  0.64621  Biso   1.000  C
  C35      1.0000 0.12630  0.52787  0.85379  Biso   1.000  C
  C36      1.0000 0.37370  0.97213  0.35379  Biso   1.000  C
  C37      1.0000 0.37370  0.02787  0.85379  Biso   1.000  C
  C38      1.0000 0.12630  0.47213  0.35379  Biso   1.000  C
  C39      1.0000 0.87370  0.47213  0.14621  Biso   1.000  C
  C40      1.0000 0.62630  0.02787  0.64621  Biso   1.000  C
  H25      1.0000 0.63680  0.91630  0.15160  Biso   1.000  H
  H26      1.0000 0.86320  0.58370  0.65160  Biso   1.000  H
  H27      1.0000 0.13680  0.58370  0.84840  Biso   1.000  H
  H28      1.0000 0.36320  0.91630  0.34840  Biso   1.000  H
  H29      1.0000 0.36320  0.08370  0.84840  Biso   1.000  H
  H30      1.0000 0.13680  0.41630  0.34840  Biso   1.000  H
  H31      1.0000 0.86320  0.41630  0.15160  Biso   1.000  H
  H32      1.0000 0.63680  0.08370  0.65160  Biso   1.000  H
  C41      1.0000 0.48560  0.01174  0.16930  Biso   1.000  C
  C42      1.0000 0.01440  0.48826  0.66930  Biso   1.000  C
  C43      1.0000 0.98560  0.48826  0.83070  Biso   1.000  C
  C44      1.0000 0.51440  0.01174  0.33070  Biso   1.000  C
  C45      1.0000 0.51440  0.98826  0.83070  Biso   1.000  C
  C46      1.0000 0.98560  0.51174  0.33070  Biso   1.000  C
  C47      1.0000 0.01440  0.51174  0.16930  Biso   1.000  C
  C48      1.0000 0.48560  0.98826  0.66930  Biso   1.000  C
  H33      1.0000 0.39930  0.98300  0.18990  Biso   1.000  H
  H34      1.0000 0.10070  0.51700  0.68990  Biso   1.000  H
  H35      1.0000 0.89930  0.51700  0.81010  Biso   1.000  H
  H36      1.0000 0.60070  0.98300  0.31010  Biso   1.000  H
  H37      1.0000 0.60070  0.01700  0.81010  Biso   1.000  H
  H38      1.0000 0.89930  0.48300  0.31010  Biso   1.000  H
  H39      1.0000 0.10070  0.48300  0.18990  Biso   1.000  H
  H40      1.0000 0.39930  0.01700  0.68990  Biso   1.000  H
  C49      1.0000 0.19420  0.18336  0.11563  Biso   1.000  C
  C50      1.0000 0.30580  0.31664  0.61563  Biso   1.000  C
  C51      1.0000 0.69420  0.31664  0.88437  Biso   1.000  C
  C52      1.0000 0.80580  0.18336  0.38437  Biso   1.000  C
  C53      1.0000 0.80580  0.81664  0.88437  Biso   1.000  C
  C54      1.0000 0.69420  0.68336  0.38437  Biso   1.000  C
  C55      1.0000 0.30580  0.68336  0.11563  Biso   1.000  C
  C56      1.0000 0.19420  0.81664  0.61563  Biso   1.000  C
  C57      1.0000 0.18540  0.13287  0.06447  Biso   1.000  C
  C58      1.0000 0.31460  0.36713  0.56447  Biso   1.000  C
  C59      1.0000 0.68540  0.36713  0.93553  Biso   1.000  C
  C60      1.0000 0.81460  0.13287  0.43553  Biso   1.000  C
  C61      1.0000 0.81460  0.86713  0.93553  Biso   1.000  C
  C62      1.0000 0.68540  0.63287  0.43553  Biso   1.000  C
  C63      1.0000 0.31460  0.63287  0.06447  Biso   1.000  C
  C64      1.0000 0.18540  0.86713  0.56447  Biso   1.000  C
  H41      1.0000 0.23640  0.08180  0.06600  Biso   1.000  H
  H42      1.0000 0.26360  0.41820  0.56600  Biso   1.000  H
  H43      1.0000 0.73640  0.41820  0.93400  Biso   1.000  H
  H44      1.0000 0.76360  0.08180  0.43400  Biso   1.000  H
  H45      1.0000 0.76360  0.91820  0.93400  Biso   1.000  H
  H46      1.0000 0.73640  0.58180  0.43400  Biso   1.000  H
  H47      1.0000 0.26360  0.58180  0.06600  Biso   1.000  H
  H48      1.0000 0.23640  0.91820  0.56600  Biso   1.000  H
  C65      1.0000 0.10210  0.15735  0.01119  Biso   1.000  C
  C66      1.0000 0.39790  0.34265  0.51119  Biso   1.000  C
  C67      1.0000 0.60210  0.34265  0.98881  Biso   1.000  C
  C68      1.0000 0.89790  0.15735  0.48881  Biso   1.000  C
  C69      1.0000 0.89790  0.84265  0.98881  Biso   1.000  C
  C70      1.0000 0.60210  0.65735  0.48881  Biso   1.000  C
  C71      1.0000 0.39790  0.65735  0.01119  Biso   1.000  C
  C72      1.0000 0.10210  0.84265  0.51119  Biso   1.000  C
  H49      1.0000 0.09590  0.12300  0.97640  Biso   1.000  H
  H50      1.0000 0.40410  0.37700  0.47640  Biso   1.000  H
  H51      1.0000 0.59590  0.37700  0.02360  Biso   1.000  H
  H52      1.0000 0.90410  0.12300  0.52360  Biso   1.000  H
  H53      1.0000 0.90410  0.87700  0.02360  Biso   1.000  H
  H54      1.0000 0.59590  0.62300  0.52360  Biso   1.000  H
  H55      1.0000 0.40410  0.62300  0.97640  Biso   1.000  H
  H56      1.0000 0.09590  0.87700  0.47640  Biso   1.000  H
  C73      1.0000 0.02820  0.23186  0.00889  Biso   1.000  C
  C74      1.0000 0.47180  0.26814  0.50889  Biso   1.000  C
  C75      1.0000 0.52820  0.26814  0.99111  Biso   1.000  C
  C76      1.0000 0.97180  0.23186  0.49111  Biso   1.000  C
  C77      1.0000 0.97180  0.76814  0.99111  Biso   1.000  C
  C78      1.0000 0.52820  0.73186  0.49111  Biso   1.000  C
  C79      1.0000 0.47180  0.73186  0.00889  Biso   1.000  C
  C80      1.0000 0.02820  0.76814  0.50889  Biso   1.000  C
  H57      1.0000 0.97040  0.24830  0.97260  Biso   1.000  H
  H58      1.0000 0.52960  0.25170  0.47260  Biso   1.000  H
  H59      1.0000 0.47040  0.25170  0.02740  Biso   1.000  H
  H60      1.0000 0.02960  0.24830  0.52740  Biso   1.000  H
  H61      1.0000 0.02960  0.75170  0.02740  Biso   1.000  H
  H62      1.0000 0.47040  0.74830  0.52740  Biso   1.000  H
  H63      1.0000 0.52960  0.74830  0.97260  Biso   1.000  H
  H64      1.0000 0.97040  0.75170  0.47260  Biso   1.000  H
  C81      1.0000 0.03830  0.28245  0.05930  Biso   1.000  C
  C82      1.0000 0.46170  0.21755  0.55930  Biso   1.000  C
  C83      1.0000 0.53830  0.21755  0.94070  Biso   1.000  C
  C84      1.0000 0.96170  0.28245  0.44070  Biso   1.000  C
  C85      1.0000 0.96170  0.71755  0.94070  Biso   1.000  C
  C86      1.0000 0.53830  0.78245  0.44070  Biso   1.000  C
  C87      1.0000 0.46170  0.78245  0.05930  Biso   1.000  C
  C88      1.0000 0.03830  0.71755  0.55930  Biso   1.000  C
  H65      1.0000 0.98870  0.33380  0.05730  Biso   1.000  H
  H66      1.0000 0.51130  0.16620  0.55730  Biso   1.000  H
  H67      1.0000 0.48870  0.16620  0.94270  Biso   1.000  H
  H68      1.0000 0.01130  0.33380  0.44270  Biso   1.000  H
  H69      1.0000 0.01130  0.66620  0.94270  Biso   1.000  H
  H70      1.0000 0.48870  0.83380  0.44270  Biso   1.000  H
  H71      1.0000 0.51130  0.83380  0.05730  Biso   1.000  H
  H72      1.0000 0.98870  0.66620  0.55730  Biso   1.000  H
  C89      1.0000 0.12060  0.25846  0.11267  Biso   1.000  C
  C90      1.0000 0.37940  0.24154  0.61267  Biso   1.000  C
  C91      1.0000 0.62060  0.24154  0.88733  Biso   1.000  C
  C92      1.0000 0.87940  0.25846  0.38733  Biso   1.000  C
  C93      1.0000 0.87940  0.74154  0.88733  Biso   1.000  C
  C94      1.0000 0.62060  0.75846  0.38733  Biso   1.000  C
  C95      1.0000 0.37940  0.75846  0.11267  Biso   1.000  C
  C96      1.0000 0.12060  0.74154  0.61267  Biso   1.000  C
  H73      1.0000 0.12680  0.29320  0.14720  Biso   1.000  H
  H74      1.0000 0.37320  0.20680  0.64720  Biso   1.000  H
  H75      1.0000 0.62680  0.20680  0.85280  Biso   1.000  H
  H76      1.0000 0.87320  0.29320  0.35280  Biso   1.000  H
  H77      1.0000 0.87320  0.70680  0.85280  Biso   1.000  H
  H78      1.0000 0.62680  0.79320  0.35280  Biso   1.000  H
  H79      1.0000 0.37320  0.79320  0.14720  Biso   1.000  H
  H80      1.0000 0.12680  0.70680  0.64720  Biso   1.000  H
  C97      1.0000 0.14290  0.08595  0.22329  Biso   1.000  C
  C98      1.0000 0.35710  0.41405  0.72329  Biso   1.000  C
  C99      1.0000 0.64290  0.41405  0.77671  Biso   1.000  C
  C100     1.0000 0.85710  0.08595  0.27671  Biso   1.000  C
  C101     1.0000 0.85710  0.91405  0.77671  Biso   1.000  C
  C102     1.0000 0.64290  0.58595  0.27671  Biso   1.000  C
  C103     1.0000 0.35710  0.58595  0.22329  Biso   1.000  C
  C104     1.0000 0.14290  0.91405  0.72329  Biso   1.000  C
  H81      1.0000 0.09720  0.04730  0.19310  Biso   1.000  H
  H82      1.0000 0.40280  0.45270  0.69310  Biso   1.000  H
  H83      1.0000 0.59720  0.45270  0.80690  Biso   1.000  H
  H84      1.0000 0.90280  0.04730  0.30690  Biso   1.000  H
  H85      1.0000 0.90280  0.95270  0.80690  Biso   1.000  H
  H86      1.0000 0.59720  0.54730  0.30690  Biso   1.000  H
  H87      1.0000 0.40280  0.54730  0.19310  Biso   1.000  H
  H88      1.0000 0.09720  0.95270  0.69310  Biso   1.000  H
  H89      1.0000 0.19870  0.05590  0.25690  Biso   1.000  H
  H90      1.0000 0.30130  0.44410  0.75690  Biso   1.000  H
  H91      1.0000 0.69870  0.44410  0.74310  Biso   1.000  H
  H92      1.0000 0.80130  0.05590  0.24310  Biso   1.000  H
  H93      1.0000 0.80130  0.94410  0.74310  Biso   1.000  H
  H94      1.0000 0.69870  0.55590  0.24310  Biso   1.000  H
  H95      1.0000 0.30130  0.55590  0.25690  Biso   1.000  H
  H96      1.0000 0.19870  0.94410  0.75690  Biso   1.000  H
  C105     1.0000 0.00000  0.13635  0.25000  Biso   1.000  C
  C106     1.0000 0.50000  0.36365  0.75000  Biso   1.000  C
  C107     1.0000 0.00000  0.86365  0.75000  Biso   1.000  C
  C108     1.0000 0.50000  0.63635  0.25000  Biso   1.000  C
  H97      1.0000 0.95450  0.17100  0.21700  Biso   1.000  H
  H98      1.0000 0.54550  0.32900  0.71700  Biso   1.000  H
  H99      1.0000 0.45450  0.32900  0.78300  Biso   1.000  H
  H100     1.0000 0.04550  0.17100  0.28300  Biso   1.000  H
  H101     1.0000 0.04550  0.82900  0.78300  Biso   1.000  H
  H102     1.0000 0.45450  0.67100  0.28300  Biso   1.000  H
  H103     1.0000 0.54550  0.67100  0.21700  Biso   1.000  H
  H104     1.0000 0.95450  0.82900  0.71700  Biso   1.000  H
