data_image0
_cell_length_a       9.1275
_cell_length_b       9.2763
_cell_length_c       15.2328
_cell_angle_alpha    90
_cell_angle_beta     91.91
_cell_angle_gamma    90

_symmetry_space_group_name_H-M    "P 1"
_symmetry_int_tables_number       1

loop_
  _symmetry_equiv_pos_as_xyz
  'x, y, z'

loop_
  _atom_site_label
  _atom_site_occupancy
  _atom_site_fract_x
  _atom_site_fract_y
  _atom_site_fract_z
  _atom_site_thermal_displace_type
  _atom_site_B_iso_or_equiv
  _atom_site_type_symbol
  Cu1      1.0000 0.59358  0.68883  0.62051  Biso   1.000  Cu
  Cu2      1.0000 0.40642  0.18883  0.87949  Biso   1.000  Cu
  Cu3      1.0000 0.40642  0.31117  0.37949  Biso   1.000  Cu
  Cu4      1.0000 0.59358  0.81117  0.12051  Biso   1.000  Cu
  N1       1.0000 0.55980  0.52810  0.70460  Biso   1.000  N
  N2       1.0000 0.44020  0.02810  0.79540  Biso   1.000  N
  N3       1.0000 0.44020  0.47190  0.29540  Biso   1.000  N
  N4       1.0000 0.55980  0.97190  0.20460  Biso   1.000  N
  N5       1.0000 0.51150  0.35470  0.80230  Biso   1.000  N
  N6       1.0000 0.48850  0.85470  0.69770  Biso   1.000  N
  N7       1.0000 0.48850  0.64530  0.19770  Biso   1.000  N
  N8       1.0000 0.51150  0.14530  0.30230  Biso   1.000  N
  N9       1.0000 0.66300  0.81810  0.52160  Biso   1.000  N
  N10      1.0000 0.33700  0.31810  0.97840  Biso   1.000  N
  N11      1.0000 0.33700  0.18190  0.47840  Biso   1.000  N
  N12      1.0000 0.66300  0.68190  0.02160  Biso   1.000  N
  N13      1.0000 0.80050  0.66980  0.66870  Biso   1.000  N
  N14      1.0000 0.19950  0.16980  0.83130  Biso   1.000  N
  N15      1.0000 0.19950  0.33020  0.33130  Biso   1.000  N
  N16      1.0000 0.80050  0.83020  0.16870  Biso   1.000  N
  N17      1.0000 0.22410  0.65100  0.44830  Biso   1.000  N
  N18      1.0000 0.77590  0.15100  0.05170  Biso   1.000  N
  N19      1.0000 0.77590  0.34900  0.55170  Biso   1.000  N
  N20      1.0000 0.22410  0.84900  0.94830  Biso   1.000  N
  H1       1.0000 0.13766  0.62677  0.42948  Biso   1.000  H
  H2       1.0000 0.86234  0.12677  0.07052  Biso   1.000  H
  H3       1.0000 0.86234  0.37323  0.57052  Biso   1.000  H
  H4       1.0000 0.13766  0.87323  0.92948  Biso   1.000  H
  N21      1.0000 0.42170  0.66270  0.53300  Biso   1.000  N
  N22      1.0000 0.57830  0.16270  0.96700  Biso   1.000  N
  N23      1.0000 0.57830  0.33730  0.46700  Biso   1.000  N
  N24      1.0000 0.42170  0.83730  0.03300  Biso   1.000  N
  C1       1.0000 0.68770  0.49520  0.75170  Biso   1.000  C
  C2       1.0000 0.31230  0.99520  0.74830  Biso   1.000  C
  C3       1.0000 0.31230  0.50480  0.24830  Biso   1.000  C
  C4       1.0000 0.68770  0.00480  0.25170  Biso   1.000  C
  C5       1.0000 0.81590  0.57620  0.73010  Biso   1.000  C
  C6       1.0000 0.18410  0.07620  0.76990  Biso   1.000  C
  C7       1.0000 0.18410  0.42380  0.26990  Biso   1.000  C
  C8       1.0000 0.81590  0.92380  0.23010  Biso   1.000  C
  H5       1.0000 0.90573  0.56133  0.75940  Biso   1.000  H
  H6       1.0000 0.09427  0.06133  0.74060  Biso   1.000  H
  H7       1.0000 0.09427  0.43867  0.24060  Biso   1.000  H
  H8       1.0000 0.90573  0.93867  0.25940  Biso   1.000  H
  C9       1.0000 0.65680  0.38810  0.81060  Biso   1.000  C
  C10      1.0000 0.34320  0.88810  0.68940  Biso   1.000  C
  C11      1.0000 0.34320  0.61190  0.18940  Biso   1.000  C
  C12      1.0000 0.65680  0.11190  0.31060  Biso   1.000  C
  H9       1.0000 0.72400  0.34533  0.84976  Biso   1.000  H
  H10      1.0000 0.27600  0.84533  0.65024  Biso   1.000  H
  H11      1.0000 0.27600  0.65467  0.15024  Biso   1.000  H
  H12      1.0000 0.72400  0.15467  0.34976  Biso   1.000  H
  C13      1.0000 0.45840  0.44120  0.73750  Biso   1.000  C
  C14      1.0000 0.54160  0.94120  0.76250  Biso   1.000  C
  C15      1.0000 0.54160  0.55880  0.26250  Biso   1.000  C
  C16      1.0000 0.45840  0.05880  0.23750  Biso   1.000  C
  H13      1.0000 0.36090  0.44044  0.71759  Biso   1.000  H
  H14      1.0000 0.63910  0.94044  0.78241  Biso   1.000  H
  H15      1.0000 0.63910  0.55956  0.28241  Biso   1.000  H
  H16      1.0000 0.36090  0.05956  0.21759  Biso   1.000  H
  C17      1.0000 0.43760  0.75080  0.46050  Biso   1.000  C
  C18      1.0000 0.56240  0.25080  0.03950  Biso   1.000  C
  C19      1.0000 0.56240  0.24920  0.53950  Biso   1.000  C
  C20      1.0000 0.43760  0.74920  0.96050  Biso   1.000  C
  C21      1.0000 0.29100  0.60380  0.52280  Biso   1.000  C
  C22      1.0000 0.70900  0.10380  0.97720  Biso   1.000  C
  C23      1.0000 0.70900  0.39620  0.47720  Biso   1.000  C
  C24      1.0000 0.29100  0.89620  0.02280  Biso   1.000  C
  H17      1.0000 0.25074  0.53867  0.56164  Biso   1.000  H
  H18      1.0000 0.74926  0.03867  0.93836  Biso   1.000  H
  H19      1.0000 0.74926  0.46133  0.43836  Biso   1.000  H
  H20      1.0000 0.25074  0.96133  0.06164  Biso   1.000  H
  C25      1.0000 0.80290  0.89540  0.51920  Biso   1.000  C
  C26      1.0000 0.19710  0.39540  0.98080  Biso   1.000  C
  C27      1.0000 0.19710  0.10460  0.48080  Biso   1.000  C
  C28      1.0000 0.80290  0.60460  0.01920  Biso   1.000  C
  H21      1.0000 0.78461  0.99359  0.49975  Biso   1.000  H
  H22      1.0000 0.21539  0.49359  0.00025  Biso   1.000  H
  H23      1.0000 0.21539  0.00641  0.50025  Biso   1.000  H
  H24      1.0000 0.78461  0.50641  0.99975  Biso   1.000  H
  H25      1.0000 0.86438  0.84954  0.47661  Biso   1.000  H
  H26      1.0000 0.13562  0.34954  0.02339  Biso   1.000  H
  H27      1.0000 0.13562  0.15046  0.52339  Biso   1.000  H
  H28      1.0000 0.86438  0.65046  0.97661  Biso   1.000  H
  C29      1.0000 0.57260  0.82950  0.45620  Biso   1.000  C
  C30      1.0000 0.42740  0.32950  0.04380  Biso   1.000  C
  C31      1.0000 0.42740  0.17050  0.54380  Biso   1.000  C
  C32      1.0000 0.57260  0.67050  0.95620  Biso   1.000  C
  H29      1.0000 0.59325  0.88637  0.40789  Biso   1.000  H
  H30      1.0000 0.40675  0.38637  0.09211  Biso   1.000  H
  H31      1.0000 0.40675  0.11363  0.59211  Biso   1.000  H
  H32      1.0000 0.59325  0.61363  0.90789  Biso   1.000  H
  C33      1.0000 0.31480  0.74280  0.40770  Biso   1.000  C
  C34      1.0000 0.68520  0.24280  0.09230  Biso   1.000  C
  C35      1.0000 0.68520  0.25720  0.59230  Biso   1.000  C
  C36      1.0000 0.31480  0.75720  0.90770  Biso   1.000  C
  H33      1.0000 0.29698  0.79061  0.35479  Biso   1.000  H
  H34      1.0000 0.70302  0.29061  0.14521  Biso   1.000  H
  H35      1.0000 0.70302  0.20939  0.64521  Biso   1.000  H
  H36      1.0000 0.29698  0.70939  0.85479  Biso   1.000  H
  C37      1.0000 0.92790  0.75250  0.64140  Biso   1.000  C
  C38      1.0000 0.07210  0.25250  0.85860  Biso   1.000  C
  C39      1.0000 0.07210  0.24750  0.35860  Biso   1.000  C
  C40      1.0000 0.92790  0.74750  0.14140  Biso   1.000  C
  H37      1.0000 0.97751  0.69987  0.59609  Biso   1.000  H
  H38      1.0000 0.02249  0.19987  0.90391  Biso   1.000  H
  H39      1.0000 0.02249  0.30013  0.40391  Biso   1.000  H
  H40      1.0000 0.97751  0.80013  0.09609  Biso   1.000  H
  H41      1.0000 0.99607  0.76412  0.69112  Biso   1.000  H
  H42      1.0000 0.00393  0.26412  0.80888  Biso   1.000  H
  H43      1.0000 0.00393  0.23588  0.30888  Biso   1.000  H
  H44      1.0000 0.99607  0.73588  0.19112  Biso   1.000  H
  C41      1.0000 0.88330  0.89870  0.60690  Biso   1.000  C
  C42      1.0000 0.11670  0.39870  0.89310  Biso   1.000  C
  C43      1.0000 0.11670  0.10130  0.39310  Biso   1.000  C
  C44      1.0000 0.88330  0.60130  0.10690  Biso   1.000  C
  H45      1.0000 0.82131  0.94458  0.64915  Biso   1.000  H
  H46      1.0000 0.17869  0.44458  0.85085  Biso   1.000  H
  H47      1.0000 0.17869  0.05542  0.35085  Biso   1.000  H
  H48      1.0000 0.82131  0.55542  0.14915  Biso   1.000  H
  H49      1.0000 0.97052  0.95747  0.60196  Biso   1.000  H
  H50      1.0000 0.02948  0.45747  0.89804  Biso   1.000  H
  H51      1.0000 0.02948  0.04253  0.39804  Biso   1.000  H
  H52      1.0000 0.97052  0.54253  0.10196  Biso   1.000  H
  Cl1      1.0000 0.92016  0.62907  0.36008  Biso   1.000  Cl
  Cl2      1.0000 0.07984  0.12907  0.13992  Biso   1.000  Cl
  Cl3      1.0000 0.07984  0.37093  0.63992  Biso   1.000  Cl
  Cl4      1.0000 0.92016  0.87093  0.86008  Biso   1.000  Cl
