data_image0
_cell_length_a       9.1003
_cell_length_b       9.0877
_cell_length_c       15.9711
_cell_angle_alpha    90
_cell_angle_beta     90.77
_cell_angle_gamma    90

_symmetry_space_group_name_H-M    "P 1"
_symmetry_int_tables_number       1

loop_
  _symmetry_equiv_pos_as_xyz
  'x, y, z'

loop_
  _atom_site_label
  _atom_site_occupancy
  _atom_site_fract_x
  _atom_site_fract_y
  _atom_site_fract_z
  _atom_site_thermal_displace_type
  _atom_site_B_iso_or_equiv
  _atom_site_type_symbol
  Br1      1.0000 0.07382  0.64822  0.63196  Biso   1.000  Br
  Br2      1.0000 0.92618  0.14822  0.86804  Biso   1.000  Br
  Br3      1.0000 0.92618  0.35178  0.36804  Biso   1.000  Br
  Br4      1.0000 0.07382  0.85178  0.13196  Biso   1.000  Br
  Cu1      1.0000 0.39740  0.70110  0.37491  Biso   1.000  Cu
  Cu2      1.0000 0.60260  0.20110  0.12509  Biso   1.000  Cu
  Cu3      1.0000 0.60260  0.29890  0.62509  Biso   1.000  Cu
  Cu4      1.0000 0.39740  0.79890  0.87491  Biso   1.000  Cu
  N1       1.0000 0.19150  0.67630  0.33080  Biso   1.000  N
  N2       1.0000 0.80850  0.17630  0.16920  Biso   1.000  N
  N3       1.0000 0.80850  0.32370  0.66920  Biso   1.000  N
  N4       1.0000 0.19150  0.82370  0.83080  Biso   1.000  N
  N5       1.0000 0.32080  0.83300  0.46800  Biso   1.000  N
  N6       1.0000 0.67920  0.33300  0.03200  Biso   1.000  N
  N7       1.0000 0.67920  0.16700  0.53200  Biso   1.000  N
  N8       1.0000 0.32080  0.66700  0.96800  Biso   1.000  N
  N9       1.0000 0.49380  0.36640  0.19880  Biso   1.000  N
  N10      1.0000 0.50620  0.86640  0.30120  Biso   1.000  N
  N11      1.0000 0.50620  0.63360  0.80120  Biso   1.000  N
  N12      1.0000 0.49380  0.13360  0.69880  Biso   1.000  N
  N13      1.0000 0.56230  0.66880  0.46120  Biso   1.000  N
  N14      1.0000 0.43770  0.16880  0.03880  Biso   1.000  N
  N15      1.0000 0.43770  0.33120  0.53880  Biso   1.000  N
  N16      1.0000 0.56230  0.83120  0.96120  Biso   1.000  N
  N17      1.0000 0.43770  0.53730  0.29420  Biso   1.000  N
  N18      1.0000 0.56230  0.03730  0.20580  Biso   1.000  N
  N19      1.0000 0.56230  0.46270  0.70580  Biso   1.000  N
  N20      1.0000 0.43770  0.96270  0.79420  Biso   1.000  N
  C1       1.0000 0.65160  0.73530  0.58730  Biso   1.000  C
  C2       1.0000 0.34840  0.23530  0.91270  Biso   1.000  C
  C3       1.0000 0.34840  0.26470  0.41270  Biso   1.000  C
  C4       1.0000 0.65160  0.76470  0.08730  Biso   1.000  C
  H1       1.0000 0.66190  0.77792  0.63996  Biso   1.000  H
  H2       1.0000 0.33810  0.27792  0.86004  Biso   1.000  H
  H3       1.0000 0.33810  0.22208  0.36004  Biso   1.000  H
  H4       1.0000 0.66190  0.72208  0.13996  Biso   1.000  H
  N21      1.0000 0.74900  0.64370  0.54840  Biso   1.000  N
  N22      1.0000 0.25100  0.14370  0.95160  Biso   1.000  N
  N23      1.0000 0.25100  0.35630  0.45160  Biso   1.000  N
  N24      1.0000 0.74900  0.85630  0.04840  Biso   1.000  N
  H5       1.0000 0.83244  0.61531  0.56846  Biso   1.000  H
  H6       1.0000 0.16756  0.11531  0.93154  Biso   1.000  H
  H7       1.0000 0.16756  0.38469  0.43154  Biso   1.000  H
  H8       1.0000 0.83244  0.88469  0.06846  Biso   1.000  H
  C5       1.0000 0.53640  0.75070  0.53240  Biso   1.000  C
  C6       1.0000 0.46360  0.25070  0.96760  Biso   1.000  C
  C7       1.0000 0.46360  0.24930  0.46760  Biso   1.000  C
  C8       1.0000 0.53640  0.74930  0.03240  Biso   1.000  C
  C9       1.0000 0.40190  0.83420  0.53440  Biso   1.000  C
  C10      1.0000 0.59810  0.33420  0.96560  Biso   1.000  C
  C11      1.0000 0.59810  0.16580  0.46560  Biso   1.000  C
  C12      1.0000 0.40190  0.66580  0.03440  Biso   1.000  C
  H9       1.0000 0.37490  0.88670  0.58182  Biso   1.000  H
  H10      1.0000 0.62510  0.38670  0.91818  Biso   1.000  H
  H11      1.0000 0.62510  0.11330  0.41818  Biso   1.000  H
  H12      1.0000 0.37490  0.61330  0.08182  Biso   1.000  H
  C13      1.0000 0.18310  0.91540  0.46790  Biso   1.000  C
  C14      1.0000 0.81690  0.41540  0.03210  Biso   1.000  C
  C15      1.0000 0.81690  0.08460  0.53210  Biso   1.000  C
  C16      1.0000 0.18310  0.58460  0.96790  Biso   1.000  C
  H13      1.0000 0.20327  0.01679  0.48329  Biso   1.000  H
  H14      1.0000 0.79673  0.51679  0.01671  Biso   1.000  H
  H15      1.0000 0.79673  0.98321  0.51671  Biso   1.000  H
  H16      1.0000 0.20327  0.48321  0.98329  Biso   1.000  H
  H17      1.0000 0.11880  0.87420  0.50983  Biso   1.000  H
  H18      1.0000 0.88120  0.37420  0.99017  Biso   1.000  H
  H19      1.0000 0.88120  0.12580  0.49017  Biso   1.000  H
  H20      1.0000 0.11880  0.62580  0.00983  Biso   1.000  H
  C17      1.0000 0.54220  0.45430  0.26110  Biso   1.000  C
  C18      1.0000 0.45780  0.95430  0.23890  Biso   1.000  C
  C19      1.0000 0.45780  0.54570  0.73890  Biso   1.000  C
  C20      1.0000 0.54220  0.04570  0.76110  Biso   1.000  C
  H21      1.0000 0.63975  0.45690  0.27921  Biso   1.000  H
  H22      1.0000 0.36025  0.95690  0.22079  Biso   1.000  H
  H23      1.0000 0.36025  0.54310  0.72079  Biso   1.000  H
  H24      1.0000 0.63975  0.04310  0.77921  Biso   1.000  H
  C21      1.0000 0.10520  0.91240  0.38360  Biso   1.000  C
  C22      1.0000 0.89480  0.41240  0.11640  Biso   1.000  C
  C23      1.0000 0.89480  0.08760  0.61640  Biso   1.000  C
  C24      1.0000 0.10520  0.58760  0.88360  Biso   1.000  C
  H25      1.0000 0.16913  0.95484  0.34195  Biso   1.000  H
  H26      1.0000 0.83087  0.45484  0.15805  Biso   1.000  H
  H27      1.0000 0.83087  0.04516  0.65805  Biso   1.000  H
  H28      1.0000 0.16913  0.54516  0.84195  Biso   1.000  H
  H29      1.0000 0.01768  0.97314  0.38634  Biso   1.000  H
  H30      1.0000 0.98232  0.47314  0.11366  Biso   1.000  H
  H31      1.0000 0.98232  0.02686  0.61366  Biso   1.000  H
  H32      1.0000 0.01768  0.52686  0.88634  Biso   1.000  H
  C25      1.0000 0.34640  0.39490  0.19260  Biso   1.000  C
  C26      1.0000 0.65360  0.89490  0.30740  Biso   1.000  C
  C27      1.0000 0.65360  0.60510  0.80740  Biso   1.000  C
  C28      1.0000 0.34640  0.10510  0.69260  Biso   1.000  C
  H33      1.0000 0.28090  0.35000  0.15536  Biso   1.000  H
  H34      1.0000 0.71910  0.85000  0.34464  Biso   1.000  H
  H35      1.0000 0.71910  0.65000  0.84464  Biso   1.000  H
  H36      1.0000 0.28090  0.15000  0.65536  Biso   1.000  H
  C29      1.0000 0.06120  0.75800  0.35600  Biso   1.000  C
  C30      1.0000 0.93880  0.25800  0.14400  Biso   1.000  C
  C31      1.0000 0.93880  0.24200  0.64400  Biso   1.000  C
  C32      1.0000 0.06120  0.74200  0.85600  Biso   1.000  C
  H37      1.0000 0.01369  0.70725  0.40167  Biso   1.000  H
  H38      1.0000 0.98631  0.20725  0.09833  Biso   1.000  H
  H39      1.0000 0.98631  0.29275  0.59833  Biso   1.000  H
  H40      1.0000 0.01369  0.79275  0.90167  Biso   1.000  H
  H41      1.0000 0.99207  0.76377  0.30933  Biso   1.000  H
  H42      1.0000 0.00793  0.26377  0.19067  Biso   1.000  H
  H43      1.0000 0.00793  0.23623  0.69067  Biso   1.000  H
  H44      1.0000 0.99207  0.73623  0.80933  Biso   1.000  H
  C33      1.0000 0.69100  0.60550  0.47260  Biso   1.000  C
  C34      1.0000 0.30900  0.10550  0.02740  Biso   1.000  C
  C35      1.0000 0.30900  0.39450  0.52740  Biso   1.000  C
  C36      1.0000 0.69100  0.89450  0.97260  Biso   1.000  C
  H45      1.0000 0.73581  0.54355  0.43426  Biso   1.000  H
  H46      1.0000 0.26419  0.04355  0.06574  Biso   1.000  H
  H47      1.0000 0.26419  0.45645  0.56574  Biso   1.000  H
  H48      1.0000 0.73581  0.95645  0.93426  Biso   1.000  H
  C37      1.0000 0.17890  0.57910  0.27250  Biso   1.000  C
  C38      1.0000 0.82110  0.07910  0.22750  Biso   1.000  C
  C39      1.0000 0.82110  0.42090  0.72750  Biso   1.000  C
  C40      1.0000 0.17890  0.92090  0.77250  Biso   1.000  C
  H49      1.0000 0.08930  0.56025  0.24585  Biso   1.000  H
  H50      1.0000 0.91070  0.06025  0.25415  Biso   1.000  H
  H51      1.0000 0.91070  0.43975  0.75415  Biso   1.000  H
  H52      1.0000 0.08930  0.93975  0.74585  Biso   1.000  H
  C41      1.0000 0.31110  0.50110  0.25050  Biso   1.000  C
  C42      1.0000 0.68890  0.00110  0.24950  Biso   1.000  C
  C43      1.0000 0.68890  0.49890  0.74950  Biso   1.000  C
  C44      1.0000 0.31110  0.99890  0.75050  Biso   1.000  C
