data_image0
_cell_length_a       5.0543
_cell_length_b       7.4409
_cell_length_c       9.154
_cell_angle_alpha    99.4225
_cell_angle_beta     99.4699
_cell_angle_gamma    97.4062

_symmetry_space_group_name_H-M    "P 1"
_symmetry_int_tables_number       1

loop_
  _symmetry_equiv_pos_as_xyz
  'x, y, z'

loop_
  _atom_site_label
  _atom_site_occupancy
  _atom_site_fract_x
  _atom_site_fract_y
  _atom_site_fract_z
  _atom_site_thermal_displace_type
  _atom_site_B_iso_or_equiv
  _atom_site_type_symbol
  Cu1      1.0000 0.50000  0.50000  0.00000  Biso   1.000  Cu
  Mn1      1.0000 0.00000  0.50000  0.50000  Biso   1.000  Mn
  N1       1.0000 0.51430  0.25912  0.88257  Biso   1.000  N
  N2       1.0000 0.48570  0.74088  0.11743  Biso   1.000  N
  O1       1.0000 0.78930  0.58498  0.89942  Biso   1.000  O
  O2       1.0000 0.21070  0.41502  0.10058  Biso   1.000  O
  O3       1.0000 0.05560  0.48024  0.74485  Biso   1.000  O
  O4       1.0000 0.94440  0.51976  0.25515  Biso   1.000  O
  O5       1.0000 0.83070  0.75399  0.55625  Biso   1.000  O
  O6       1.0000 0.16930  0.24601  0.44375  Biso   1.000  O
  O7       1.0000 0.38540  0.66044  0.53519  Biso   1.000  O
  O8       1.0000 0.61460  0.33956  0.46481  Biso   1.000  O
  C1       1.0000 0.70640  0.26570  0.79661  Biso   1.000  C
  C2       1.0000 0.29360  0.73430  0.20339  Biso   1.000  C
  C3       1.0000 0.74840  0.11050  0.70235  Biso   1.000  C
  C4       1.0000 0.25160  0.88950  0.29765  Biso   1.000  C
  H1       1.0000 0.88800  0.12300  0.64600  Biso   1.000  H
  H2       1.0000 0.11200  0.87700  0.35400  Biso   1.000  H
  C5       1.0000 0.57810  0.94420  0.69325  Biso   1.000  C
  C6       1.0000 0.42190  0.05580  0.30675  Biso   1.000  C
  C7       1.0000 0.37760  0.93900  0.78088  Biso   1.000  C
  C8       1.0000 0.62240  0.06100  0.21912  Biso   1.000  C
  H3       1.0000 0.26800  0.83400  0.77800  Biso   1.000  H
  H4       1.0000 0.73200  0.16600  0.22200  Biso   1.000  H
  C9       1.0000 0.35420  0.09880  0.87647  Biso   1.000  C
  C10      1.0000 0.64580  0.90120  0.12353  Biso   1.000  C
  H5       1.0000 0.22000  0.09900  0.94000  Biso   1.000  H
  H6       1.0000 0.78000  0.90100  0.06000  Biso   1.000  H
  C11      1.0000 0.86400  0.45690  0.81265  Biso   1.000  C
  C12      1.0000 0.13600  0.54310  0.18735  Biso   1.000  C
  C13      1.0000 0.60090  0.77010  0.58653  Biso   1.000  C
  C14      1.0000 0.39910  0.22990  0.41347  Biso   1.000  C
