data_image0
_cell_length_a       7.1333
_cell_length_b       10.8846
_cell_length_c       12.6658
_cell_angle_alpha    97.7686
_cell_angle_beta     97.8597
_cell_angle_gamma    108.851

_symmetry_space_group_name_H-M    "P 1"
_symmetry_int_tables_number       1

loop_
  _symmetry_equiv_pos_as_xyz
  'x, y, z'

loop_
  _atom_site_label
  _atom_site_occupancy
  _atom_site_fract_x
  _atom_site_fract_y
  _atom_site_fract_z
  _atom_site_thermal_displace_type
  _atom_site_B_iso_or_equiv
  _atom_site_type_symbol
  Cu1      1.0000 0.02350  0.94801  0.77702  Biso   1.000  Cu
  Cu2      1.0000 0.97650  0.05199  0.22299  Biso   1.000  Cu
  K1       1.0000 0.28412  0.51449  0.92538  Biso   1.000  K
  K2       1.0000 0.71588  0.48551  0.07462  Biso   1.000  K
  K3       1.0000 0.21231  0.49312  0.56787  Biso   1.000  K
  K4       1.0000 0.78769  0.50688  0.43213  Biso   1.000  K
  N1       1.0000 0.15070  0.94313  0.92624  Biso   1.000  N
  N2       1.0000 0.84930  0.05687  0.07376  Biso   1.000  N
  N3       1.0000 0.85730  0.96216  0.64075  Biso   1.000  N
  N4       1.0000 0.14270  0.03784  0.35925  Biso   1.000  N
  O1       1.0000 0.18470  0.13340  0.81118  Biso   1.000  O
  O2       1.0000 0.81530  0.86660  0.18882  Biso   1.000  O
  O3       1.0000 0.39610  0.28464  0.94503  Biso   1.000  O
  O4       1.0000 0.60390  0.71536  0.05497  Biso   1.000  O
  O5       1.0000 0.11000  0.62601  0.08835  Biso   1.000  O
  O6       1.0000 0.89000  0.37399  0.91165  Biso   1.000  O
  O7       1.0000 0.26770  0.76041  0.24343  Biso   1.000  O
  O8       1.0000 0.73230  0.23959  0.75657  Biso   1.000  O
  O9       1.0000 0.83130  0.76781  0.75292  Biso   1.000  O
  O10      1.0000 0.16870  0.23219  0.24708  Biso   1.000  O
  O11      1.0000 0.61160  0.61961  0.61974  Biso   1.000  O
  O12      1.0000 0.38840  0.38039  0.38026  Biso   1.000  O
  O13      1.0000 0.76350  0.12832  0.31463  Biso   1.000  O
  O14      1.0000 0.23650  0.87168  0.68537  Biso   1.000  O
  O15      1.0000 0.90950  0.27460  0.46497  Biso   1.000  O
  O16      1.0000 0.09050  0.72540  0.53503  Biso   1.000  O
  O17      1.0000 0.19800  0.64582  0.77261  Biso   1.000  O
  O18      1.0000 0.80200  0.35418  0.22739  Biso   1.000  O
  H1       1.0000 0.21200  0.71500  0.75200  Biso   1.000  H
  H2       1.0000 0.78800  0.28500  0.24800  Biso   1.000  H
  H3       1.0000 0.08600  0.59300  0.74700  Biso   1.000  H
  H4       1.0000 0.91400  0.40700  0.25300  Biso   1.000  H
  O19      1.0000 0.32120  0.46244  0.14017  Biso   1.000  O
  O20      1.0000 0.67880  0.53756  0.85983  Biso   1.000  O
  H5       1.0000 0.23700  0.50200  0.13300  Biso   1.000  H
  H6       1.0000 0.76300  0.49800  0.86700  Biso   1.000  H
  H7       1.0000 0.27300  0.40000  0.16300  Biso   1.000  H
  H8       1.0000 0.72700  0.60000  0.83700  Biso   1.000  H
  O21      1.0000 0.32190  0.36827  0.71841  Biso   1.000  O
  O22      1.0000 0.67810  0.63173  0.28159  Biso   1.000  O
  H9       1.0000 0.28800  0.29800  0.73900  Biso   1.000  H
  H10      1.0000 0.71200  0.70200  0.26100  Biso   1.000  H
  H11      1.0000 0.42400  0.40600  0.74700  Biso   1.000  H
  H12      1.0000 0.57600  0.59400  0.25300  Biso   1.000  H
  O23      1.0000 0.83910  0.45397  0.65010  Biso   1.000  O
  O24      1.0000 0.16090  0.54603  0.34990  Biso   1.000  O
  H13      1.0000 0.80500  0.38300  0.68000  Biso   1.000  H
  H14      1.0000 0.19500  0.61700  0.32000  Biso   1.000  H
  H15      1.0000 0.76300  0.48800  0.65500  Biso   1.000  H
  H16      1.0000 0.23700  0.51200  0.34500  Biso   1.000  H
  C1       1.0000 0.27420  0.06403  0.97583  Biso   1.000  C
  C2       1.0000 0.72580  0.93597  0.02417  Biso   1.000  C
  C3       1.0000 0.37590  0.08611  0.08043  Biso   1.000  C
  C4       1.0000 0.62410  0.91389  0.91957  Biso   1.000  C
  H17      1.0000 0.45900  0.16500  0.10980  Biso   1.000  H
  H18      1.0000 0.54100  0.83500  0.89020  Biso   1.000  H
  C5       1.0000 0.35220  0.98080  0.13707  Biso   1.000  C
  C6       1.0000 0.64780  0.01920  0.86293  Biso   1.000  C
  H19      1.0000 0.42600  0.99600  0.20600  Biso   1.000  H
  H20      1.0000 0.57400  0.00400  0.79400  Biso   1.000  H
  C7       1.0000 0.22710  0.85596  0.08616  Biso   1.000  C
  C8       1.0000 0.77290  0.14404  0.91384  Biso   1.000  C
  C9       1.0000 0.12890  0.84085  0.98049  Biso   1.000  C
  C10      1.0000 0.87110  0.15915  0.01951  Biso   1.000  C
  H21      1.0000 0.04200  0.75900  0.94180  Biso   1.000  H
  H22      1.0000 0.95800  0.24100  0.05820  Biso   1.000  H
  C11      1.0000 0.28970  0.17144  0.90727  Biso   1.000  C
  C12      1.0000 0.71030  0.82856  0.09273  Biso   1.000  C
  C13      1.0000 0.19940  0.73728  0.14544  Biso   1.000  C
  C14      1.0000 0.80060  0.26272  0.85456  Biso   1.000  C
  C15      1.0000 0.72690  0.84251  0.59323  Biso   1.000  C
  C16      1.0000 0.27310  0.15749  0.40677  Biso   1.000  C
  C17      1.0000 0.61490  0.82080  0.49122  Biso   1.000  C
  C18      1.0000 0.38510  0.17920  0.50878  Biso   1.000  C
  H23      1.0000 0.52400  0.74100  0.46180  Biso   1.000  H
  H24      1.0000 0.47600  0.25900  0.53820  Biso   1.000  H
  C19      1.0000 0.64310  0.92477  0.43341  Biso   1.000  C
  C20      1.0000 0.35690  0.07523  0.56659  Biso   1.000  C
  H25      1.0000 0.57600  0.90900  0.36300  Biso   1.000  H
  H26      1.0000 0.42400  0.09100  0.63700  Biso   1.000  H
  C21      1.0000 0.77700  0.04816  0.48110  Biso   1.000  C
  C22      1.0000 0.22300  0.95184  0.51890  Biso   1.000  C
  C23      1.0000 0.87800  0.06413  0.58616  Biso   1.000  C
  C24      1.0000 0.12200  0.93587  0.41384  Biso   1.000  C
  H27      1.0000 0.96800  0.14300  0.62200  Biso   1.000  H
  H28      1.0000 0.03200  0.85700  0.37800  Biso   1.000  H
  C25      1.0000 0.71950  0.73323  0.65904  Biso   1.000  C
  C26      1.0000 0.28050  0.26677  0.34096  Biso   1.000  C
  C27      1.0000 0.82000  0.16159  0.41620  Biso   1.000  C
  C28      1.0000 0.18000  0.83841  0.58380  Biso   1.000  C
