data_image0
_cell_length_a       4.8051
_cell_length_b       7.6647
_cell_length_c       13.7278
_cell_angle_alpha    99.985
_cell_angle_beta     97.82
_cell_angle_gamma    104.184

_symmetry_space_group_name_H-M    "P 1"
_symmetry_int_tables_number       1

loop_
  _symmetry_equiv_pos_as_xyz
  'x, y, z'

loop_
  _atom_site_label
  _atom_site_occupancy
  _atom_site_fract_x
  _atom_site_fract_y
  _atom_site_fract_z
  _atom_site_thermal_displace_type
  _atom_site_B_iso_or_equiv
  _atom_site_type_symbol
  Cu1      1.0000 0.50000  0.00000  0.50000  Biso   1.000  Cu
  Cu2      1.0000 0.50000  0.50000  0.00000  Biso   1.000  Cu
  O1       1.0000 0.35340  0.55620  0.12290  Biso   1.000  O
  O2       1.0000 0.64660  0.44380  0.87710  Biso   1.000  O
  O3       1.0000 0.20900  0.93870  0.58200  Biso   1.000  O
  O4       1.0000 0.79100  0.06130  0.41800  Biso   1.000  O
  N1       1.0000 0.24150  0.78840  0.39970  Biso   1.000  N
  N2       1.0000 0.75850  0.21160  0.60030  Biso   1.000  N
  O5       1.0000 0.75890  0.76010  0.56930  Biso   1.000  O
  O6       1.0000 0.24110  0.23990  0.43070  Biso   1.000  O
  C1       1.0000 0.26860  0.71680  0.30670  Biso   1.000  C
  C2       1.0000 0.73140  0.28320  0.69330  Biso   1.000  C
  H1       1.0000 0.42873  0.77353  0.28132  Biso   1.000  H
  H2       1.0000 0.57127  0.22647  0.71868  Biso   1.000  H
  O7       1.0000 0.90240  0.36340  0.08630  Biso   1.000  O
  O8       1.0000 0.09760  0.63660  0.91370  Biso   1.000  O
  C3       1.0000 0.06750  0.56150  0.24710  Biso   1.000  C
  C4       1.0000 0.93250  0.43850  0.75290  Biso   1.000  C
  C5       1.0000 0.98770  0.80650  0.53750  Biso   1.000  C
  C6       1.0000 0.01230  0.19350  0.46250  Biso   1.000  C
  C7       1.0000 0.00590  0.70650  0.43490  Biso   1.000  C
  C8       1.0000 0.99410  0.29350  0.56510  Biso   1.000  C
  C9       1.0000 0.10840  0.48520  0.14300  Biso   1.000  C
  C10      1.0000 0.89160  0.51480  0.85700  Biso   1.000  C
  C11      1.0000 0.83010  0.47810  0.28510  Biso   1.000  C
  C12      1.0000 0.16990  0.52190  0.71490  Biso   1.000  C
  H3       1.0000 0.69165  0.37332  0.24619  Biso   1.000  H
  H4       1.0000 0.30835  0.62668  0.75381  Biso   1.000  H
  C13      1.0000 0.79870  0.55080  0.38130  Biso   1.000  C
  C14      1.0000 0.20130  0.44920  0.61870  Biso   1.000  C
  H5       1.0000 0.64166  0.49553  0.40865  Biso   1.000  H
  H6       1.0000 0.35834  0.50447  0.59135  Biso   1.000  H
  O9       1.0000 0.78550  0.73450  0.04890  Biso   1.000  O
  O10      1.0000 0.21450  0.26550  0.95110  Biso   1.000  O
  H7       1.0000 0.70308  0.81407  0.07312  Biso   1.000  H
  H8       1.0000 0.29692  0.18593  0.92688  Biso   1.000  H
  H9       1.0000 0.86211  0.76732  0.00037  Biso   1.000  H
  H10      1.0000 0.13789  0.23268  0.99963  Biso   1.000  H
  O11      1.0000 0.78170  0.90510  0.76960  Biso   1.000  O
  O12      1.0000 0.21830  0.09490  0.23040  Biso   1.000  O
  H11      1.0000 0.75456  0.86472  0.70638  Biso   1.000  H
  H12      1.0000 0.24544  0.13528  0.29362  Biso   1.000  H
  H13      1.0000 0.96270  0.95561  0.79219  Biso   1.000  H
  H14      1.0000 0.03730  0.04439  0.20781  Biso   1.000  H
  O13      1.0000 0.61970  0.02300  0.12370  Biso   1.000  O
  O14      1.0000 0.38030  0.97700  0.87630  Biso   1.000  O
  H15      1.0000 0.49341  0.02278  0.16141  Biso   1.000  H
  H16      1.0000 0.50659  0.97722  0.83859  Biso   1.000  H
  H17      1.0000 0.62843  0.11118  0.09318  Biso   1.000  H
  H18      1.0000 0.37157  0.88882  0.90682  Biso   1.000  H
