data_image0
_cell_length_a       6.5022
_cell_length_b       7.9297
_cell_length_c       16.2724
_cell_angle_alpha    78.273
_cell_angle_beta     88.479
_cell_angle_gamma    84.506

_symmetry_space_group_name_H-M    "P 1"
_symmetry_int_tables_number       1

loop_
  _symmetry_equiv_pos_as_xyz
  'x, y, z'

loop_
  _atom_site_label
  _atom_site_occupancy
  _atom_site_fract_x
  _atom_site_fract_y
  _atom_site_fract_z
  _atom_site_thermal_displace_type
  _atom_site_B_iso_or_equiv
  _atom_site_type_symbol
  Cu1      1.0000 0.51856  0.19502  0.53664  Biso   1.000  Cu
  Cu2      1.0000 0.48144  0.80498  0.46336  Biso   1.000  Cu
  Co1      1.0000 0.97853  0.67580  0.02807  Biso   1.000  Co
  Co2      1.0000 0.02147  0.32420  0.97193  Biso   1.000  Co
  Co3      1.0000 0.50000  0.50000  0.00000  Biso   1.000  Co
  N1       1.0000 0.40770  0.09250  0.64680  Biso   1.000  N
  N2       1.0000 0.59230  0.90750  0.35320  Biso   1.000  N
  N3       1.0000 0.58940  0.33220  0.42610  Biso   1.000  N
  N4       1.0000 0.41060  0.66780  0.57390  Biso   1.000  N
  O1       1.0000 0.72960  0.25970  0.60180  Biso   1.000  O
  O2       1.0000 0.27040  0.74030  0.39820  Biso   1.000  O
  O3       1.0000 0.84110  0.22290  0.73370  Biso   1.000  O
  O4       1.0000 0.15890  0.77710  0.26630  Biso   1.000  O
  O5       1.0000 0.43200  0.76180  0.94000  Biso   1.000  O
  O6       1.0000 0.56800  0.23820  0.06000  Biso   1.000  O
  O7       1.0000 0.09270  0.79990  0.91330  Biso   1.000  O
  O8       1.0000 0.90730  0.20010  0.08670  Biso   1.000  O
  O9       1.0000 0.30420  0.12270  0.47520  Biso   1.000  O
  O10      1.0000 0.69580  0.87730  0.52480  Biso   1.000  O
  O11      1.0000 0.14640  0.19140  0.35100  Biso   1.000  O
  O12      1.0000 0.85360  0.80860  0.64900  Biso   1.000  O
  O13      1.0000 0.53300  0.57450  0.11770  Biso   1.000  O
  O14      1.0000 0.46700  0.42550  0.88230  Biso   1.000  O
  O15      1.0000 0.86960  0.57770  0.14660  Biso   1.000  O
  O16      1.0000 0.13040  0.42230  0.85340  Biso   1.000  O
  O17      1.0000 0.19880  0.46480  0.03520  Biso   1.000  O
  O18      1.0000 0.80120  0.53520  0.96480  Biso   1.000  O
  H1       1.0000 0.20300  0.42600  0.08690  Biso   1.000  H
  H2       1.0000 0.79700  0.57400  0.91310  Biso   1.000  H
  O19      1.0000 0.17720  0.80290  0.09590  Biso   1.000  O
  O20      1.0000 0.82280  0.19710  0.90410  Biso   1.000  O
  H3       1.0000 0.29300  0.76800  0.07900  Biso   1.000  H
  H4       1.0000 0.70700  0.23200  0.92100  Biso   1.000  H
  H5       1.0000 0.16100  0.80800  0.14720  Biso   1.000  H
  H6       1.0000 0.83900  0.19200  0.85280  Biso   1.000  H
  O21      1.0000 0.74970  0.88540  0.01400  Biso   1.000  O
  O22      1.0000 0.25030  0.11460  0.98600  Biso   1.000  O
  H7       1.0000 0.64900  0.84900  0.99300  Biso   1.000  H
  H8       1.0000 0.35100  0.15100  0.00700  Biso   1.000  H
  H9       1.0000 0.79200  0.97800  0.98500  Biso   1.000  H
  H10      1.0000 0.20800  0.02200  0.01500  Biso   1.000  H
  C1       1.0000 0.53480  0.09600  0.70900  Biso   1.000  C
  C2       1.0000 0.46520  0.90400  0.29100  Biso   1.000  C
  C3       1.0000 0.50080  0.01170  0.79040  Biso   1.000  C
  C4       1.0000 0.49920  0.98830  0.20960  Biso   1.000  C
  H11      1.0000 0.58600  0.00500  0.83200  Biso   1.000  H
  H12      1.0000 0.41400  0.99500  0.16800  Biso   1.000  H
  C5       1.0000 0.32030  0.92770  0.80860  Biso   1.000  C
  C6       1.0000 0.67970  0.07230  0.19140  Biso   1.000  C
  C7       1.0000 0.18210  0.93340  0.74400  Biso   1.000  C
  C8       1.0000 0.81790  0.06660  0.25600  Biso   1.000  C
  H13      1.0000 0.07300  0.86600  0.74900  Biso   1.000  H
  H14      1.0000 0.92700  0.13400  0.25100  Biso   1.000  H
  C9       1.0000 0.23110  0.01460  0.66340  Biso   1.000  C
  C10      1.0000 0.76890  0.98540  0.33660  Biso   1.000  C
  H15      1.0000 0.15200  0.02600  0.61600  Biso   1.000  H
  H16      1.0000 0.84800  0.97400  0.38400  Biso   1.000  H
  C11      1.0000 0.71950  0.20000  0.68120  Biso   1.000  C
  C12      1.0000 0.28050  0.80000  0.31880  Biso   1.000  C
  C13      1.0000 0.27850  0.82370  0.89470  Biso   1.000  C
  C14      1.0000 0.72150  0.17630  0.10530  Biso   1.000  C
  C15      1.0000 0.44970  0.32500  0.36740  Biso   1.000  C
  C16      1.0000 0.55030  0.67500  0.63260  Biso   1.000  C
  C17      1.0000 0.46880  0.40490  0.28520  Biso   1.000  C
  C18      1.0000 0.53120  0.59510  0.71480  Biso   1.000  C
  H17      1.0000 0.37100  0.39700  0.24800  Biso   1.000  H
  H18      1.0000 0.62900  0.60300  0.75200  Biso   1.000  H
  C19      1.0000 0.64230  0.49140  0.25900  Biso   1.000  C
  C20      1.0000 0.35770  0.50860  0.74100  Biso   1.000  C
  C21      1.0000 0.78500  0.50160  0.32030  Biso   1.000  C
  C22      1.0000 0.21500  0.49840  0.67970  Biso   1.000  C
  H19      1.0000 0.90200  0.55700  0.30600  Biso   1.000  H
  H20      1.0000 0.09800  0.44300  0.69400  Biso   1.000  H
  C23      1.0000 0.75230  0.42320  0.40290  Biso   1.000  C
  C24      1.0000 0.24770  0.57680  0.59710  Biso   1.000  C
  H21      1.0000 0.86000  0.42700  0.45700  Biso   1.000  H
  H22      1.0000 0.14000  0.57300  0.54300  Biso   1.000  H
  C25      1.0000 0.28140  0.20590  0.39900  Biso   1.000  C
  C26      1.0000 0.71860  0.79410  0.60100  Biso   1.000  C
  C27      1.0000 0.68410  0.55490  0.16760  Biso   1.000  C
  C28      1.0000 0.31590  0.44510  0.83240  Biso   1.000  C
