data_image0
_cell_length_a       4.8473
_cell_length_b       14.9742
_cell_length_c       9.3476
_cell_angle_alpha    90
_cell_angle_beta     103.306
_cell_angle_gamma    90

_symmetry_space_group_name_H-M    "P 1"
_symmetry_int_tables_number       1

loop_
  _symmetry_equiv_pos_as_xyz
  'x, y, z'

loop_
  _atom_site_label
  _atom_site_occupancy
  _atom_site_fract_x
  _atom_site_fract_y
  _atom_site_fract_z
  _atom_site_thermal_displace_type
  _atom_site_B_iso_or_equiv
  _atom_site_type_symbol
  Cu1      1.0000 0.50000  0.50000  0.00000  Biso   1.000  Cu
  Cu2      1.0000 0.50000  0.00000  0.50000  Biso   1.000  Cu
  Mn1      1.0000 0.00000  0.50000  0.50000  Biso   1.000  Mn
  Mn2      1.0000 0.00000  0.00000  0.00000  Biso   1.000  Mn
  N1       1.0000 0.43310  0.38182  0.07370  Biso   1.000  N
  N2       1.0000 0.56690  0.88182  0.42630  Biso   1.000  N
  N3       1.0000 0.56690  0.61818  0.92630  Biso   1.000  N
  N4       1.0000 0.43310  0.11818  0.57370  Biso   1.000  N
  O1       1.0000 0.24220  0.54149  0.11550  Biso   1.000  O
  O2       1.0000 0.75780  0.04149  0.38450  Biso   1.000  O
  O3       1.0000 0.75780  0.45851  0.88450  Biso   1.000  O
  O4       1.0000 0.24220  0.95851  0.61550  Biso   1.000  O
  O5       1.0000 0.97390  0.49056  0.26130  Biso   1.000  O
  O6       1.0000 0.02610  0.99056  0.23870  Biso   1.000  O
  O7       1.0000 0.02610  0.50944  0.73870  Biso   1.000  O
  O8       1.0000 0.97390  0.00944  0.76130  Biso   1.000  O
  O9       1.0000 0.76330  0.12931  0.00490  Biso   1.000  O
  O10      1.0000 0.23670  0.62931  0.49510  Biso   1.000  O
  O11      1.0000 0.23670  0.87069  0.99510  Biso   1.000  O
  O12      1.0000 0.76330  0.37069  0.50490  Biso   1.000  O
  O13      1.0000 0.38270  0.06997  0.06550  Biso   1.000  O
  O14      1.0000 0.61730  0.56997  0.43450  Biso   1.000  O
  O15      1.0000 0.61730  0.93003  0.93450  Biso   1.000  O
  O16      1.0000 0.38270  0.43003  0.56550  Biso   1.000  O
  C1       1.0000 0.25510  0.38640  0.16640  Biso   1.000  C
  C2       1.0000 0.74490  0.88640  0.33360  Biso   1.000  C
  C3       1.0000 0.74490  0.61360  0.83360  Biso   1.000  C
  C4       1.0000 0.25510  0.11360  0.66640  Biso   1.000  C
  C5       1.0000 0.17040  0.31090  0.22840  Biso   1.000  C
  C6       1.0000 0.82960  0.81090  0.27160  Biso   1.000  C
  C7       1.0000 0.82960  0.68910  0.77160  Biso   1.000  C
  C8       1.0000 0.17040  0.18910  0.72840  Biso   1.000  C
  H1       1.0000 0.06200  0.31630  0.29000  Biso   1.000  H
  H2       1.0000 0.93800  0.81630  0.21000  Biso   1.000  H
  H3       1.0000 0.93800  0.68370  0.71000  Biso   1.000  H
  H4       1.0000 0.06200  0.18370  0.79000  Biso   1.000  H
  C9       1.0000 0.26430  0.22850  0.19260  Biso   1.000  C
  C10      1.0000 0.73570  0.72850  0.30740  Biso   1.000  C
  C11      1.0000 0.73570  0.77150  0.80740  Biso   1.000  C
  C12      1.0000 0.26430  0.27150  0.69260  Biso   1.000  C
  H5       1.0000 0.20600  0.17700  0.22800  Biso   1.000  H
  H6       1.0000 0.79400  0.67700  0.27200  Biso   1.000  H
  H7       1.0000 0.79400  0.82300  0.77200  Biso   1.000  H
  H8       1.0000 0.20600  0.32300  0.72800  Biso   1.000  H
  C13      1.0000 0.44950  0.22390  0.09830  Biso   1.000  C
  C14      1.0000 0.55050  0.72390  0.40170  Biso   1.000  C
  C15      1.0000 0.55050  0.77610  0.90170  Biso   1.000  C
  C16      1.0000 0.44950  0.27610  0.59830  Biso   1.000  C
  C17      1.0000 0.53180  0.30250  0.04260  Biso   1.000  C
  C18      1.0000 0.46820  0.80250  0.45740  Biso   1.000  C
  C19      1.0000 0.46820  0.69750  0.95740  Biso   1.000  C
  C20      1.0000 0.53180  0.19750  0.54260  Biso   1.000  C
  H9       1.0000 0.66300  0.30300  0.97400  Biso   1.000  H
  H10      1.0000 0.33700  0.80300  0.52600  Biso   1.000  H
  H11      1.0000 0.33700  0.69700  0.02600  Biso   1.000  H
  H12      1.0000 0.66300  0.19700  0.47400  Biso   1.000  H
  C21      1.0000 0.15110  0.47980  0.18560  Biso   1.000  C
  C22      1.0000 0.84890  0.97980  0.31440  Biso   1.000  C
  C23      1.0000 0.84890  0.52020  0.81440  Biso   1.000  C
  C24      1.0000 0.15110  0.02020  0.68560  Biso   1.000  C
  C25      1.0000 0.54030  0.13340  0.05140  Biso   1.000  C
  C26      1.0000 0.45970  0.63340  0.44860  Biso   1.000  C
  C27      1.0000 0.45970  0.86660  0.94860  Biso   1.000  C
  C28      1.0000 0.54030  0.36660  0.55140  Biso   1.000  C
