data_image0
_cell_length_a       4.7978
_cell_length_b       7.6519
_cell_length_c       13.7692
_cell_angle_alpha    99.689
_cell_angle_beta     98.4139
_cell_angle_gamma    103.697

_symmetry_space_group_name_H-M    "P 1"
_symmetry_int_tables_number       1

loop_
  _symmetry_equiv_pos_as_xyz
  'x, y, z'

loop_
  _atom_site_label
  _atom_site_occupancy
  _atom_site_fract_x
  _atom_site_fract_y
  _atom_site_fract_z
  _atom_site_thermal_displace_type
  _atom_site_B_iso_or_equiv
  _atom_site_type_symbol
  Cu1      1.0000 0.00000  0.00000  0.00000  Biso   1.000  Cu
  Cu2      1.0000 0.00000  0.50000  0.50000  Biso   1.000  Cu
  N1       1.0000 0.26140  0.71250  0.60093  Biso   1.000  N
  N2       1.0000 0.73860  0.28750  0.39907  Biso   1.000  N
  O1       1.0000 0.29150  0.56170  0.41800  Biso   1.000  O
  O2       1.0000 0.70850  0.43830  0.58200  Biso   1.000  O
  O3       1.0000 0.74330  0.73980  0.43074  Biso   1.000  O
  O4       1.0000 0.25670  0.26020  0.56926  Biso   1.000  O
  O5       1.0000 0.60040  0.13840  0.91478  Biso   1.000  O
  O6       1.0000 0.39960  0.86160  0.08522  Biso   1.000  O
  O7       1.0000 0.14840  0.94700  0.87699  Biso   1.000  O
  O8       1.0000 0.85160  0.05300  0.12301  Biso   1.000  O
  O9       1.0000 0.29140  0.23190  0.05170  Biso   1.000  O
  O10      1.0000 0.70860  0.76810  0.94830  Biso   1.000  O
  H1       1.0000 0.41000  0.23800  0.01800  Biso   1.000  H
  H2       1.0000 0.59000  0.76200  0.98200  Biso   1.000  H
  H3       1.0000 0.23400  0.31600  0.06700  Biso   1.000  H
  H4       1.0000 0.76600  0.68400  0.93300  Biso   1.000  H
  C1       1.0000 0.49580  0.79420  0.56520  Biso   1.000  C
  C2       1.0000 0.50420  0.20580  0.43480  Biso   1.000  C
  C3       1.0000 0.70250  0.95070  0.61890  Biso   1.000  C
  C4       1.0000 0.29750  0.04930  0.38110  Biso   1.000  C
  H5       1.0000 0.86100  0.00200  0.59100  Biso   1.000  H
  H6       1.0000 0.13900  0.99800  0.40900  Biso   1.000  H
  C5       1.0000 0.67090  0.02470  0.71470  Biso   1.000  C
  C6       1.0000 0.32910  0.97530  0.28530  Biso   1.000  C
  H7       1.0000 0.80300  0.11700  0.75100  Biso   1.000  H
  H8       1.0000 0.19700  0.88300  0.24900  Biso   1.000  H
  C7       1.0000 0.43430  0.93990  0.75270  Biso   1.000  C
  C8       1.0000 0.56570  0.06010  0.24730  Biso   1.000  C
  C9       1.0000 0.23270  0.78380  0.69310  Biso   1.000  C
  C10      1.0000 0.76730  0.21620  0.30690  Biso   1.000  C
  H9       1.0000 0.06800  0.72200  0.71400  Biso   1.000  H
  H10      1.0000 0.93200  0.27800  0.28600  Biso   1.000  H
  C11      1.0000 0.51320  0.69440  0.46310  Biso   1.000  C
  C12      1.0000 0.48680  0.30560  0.53690  Biso   1.000  C
  C13      1.0000 0.39430  0.01640  0.85670  Biso   1.000  C
  C14      1.0000 0.60570  0.98360  0.14330  Biso   1.000  C
  O11      1.0000 0.27990  0.40260  0.77010  Biso   1.000  O
  O12      1.0000 0.72010  0.59740  0.22990  Biso   1.000  O
  H11      1.0000 0.45400  0.44100  0.79100  Biso   1.000  H
  H12      1.0000 0.54600  0.55900  0.20900  Biso   1.000  H
  H13      1.0000 0.26700  0.37500  0.71700  Biso   1.000  H
  H14      1.0000 0.73300  0.62500  0.28300  Biso   1.000  H
  O13      1.0000 0.87650  0.47690  0.87590  Biso   1.000  O
  O14      1.0000 0.12350  0.52310  0.12410  Biso   1.000  O
  H15      1.0000 0.00000  0.47300  0.84400  Biso   1.000  H
  H16      1.0000 0.00000  0.52700  0.15600  Biso   1.000  H
  H17      1.0000 0.84400  0.38100  0.89500  Biso   1.000  H
  H18      1.0000 0.15600  0.61900  0.10500  Biso   1.000  H
