data_image0
_cell_length_a       7.503
_cell_length_b       7.7725
_cell_length_c       7.8373
_cell_angle_alpha    112.768
_cell_angle_beta     97.0919
_cell_angle_gamma    91.3008

_symmetry_space_group_name_H-M    "P 1"
_symmetry_int_tables_number       1

loop_
  _symmetry_equiv_pos_as_xyz
  'x, y, z'

loop_
  _atom_site_label
  _atom_site_occupancy
  _atom_site_fract_x
  _atom_site_fract_y
  _atom_site_fract_z
  _atom_site_thermal_displace_type
  _atom_site_B_iso_or_equiv
  _atom_site_type_symbol
  Co1      1.0000 0.50000  0.50000  0.00000  Biso   1.000  Co
  Cu1      1.0000 0.00000  0.50000  0.50000  Biso   1.000  Cu
  N1       1.0000 0.10250  0.70970  0.45210  Biso   1.000  N
  N2       1.0000 0.89750  0.29030  0.54790  Biso   1.000  N
  O1       1.0000 0.86290  0.43022  0.25316  Biso   1.000  O
  O2       1.0000 0.13710  0.56978  0.74684  Biso   1.000  O
  O3       1.0000 0.78312  0.55739  0.04681  Biso   1.000  O
  O4       1.0000 0.21688  0.44261  0.95319  Biso   1.000  O
  O5       1.0000 0.27100  0.07560  0.09708  Biso   1.000  O
  O6       1.0000 0.72900  0.92440  0.90292  Biso   1.000  O
  O7       1.0000 0.28060  0.30381  0.38229  Biso   1.000  O
  O8       1.0000 0.71940  0.69619  0.61771  Biso   1.000  O
  C1       1.0000 0.02700  0.70750  0.28620  Biso   1.000  C
  C2       1.0000 0.97300  0.29250  0.71380  Biso   1.000  C
  C3       1.0000 0.07310  0.84170  0.22210  Biso   1.000  C
  C4       1.0000 0.92690  0.15830  0.77790  Biso   1.000  C
  H1       1.0000 0.02000  0.83700  0.11500  Biso   1.000  H
  H2       1.0000 0.98000  0.16300  0.88500  Biso   1.000  H
  C5       1.0000 0.19840  0.98910  0.33640  Biso   1.000  C
  C6       1.0000 0.80160  0.01090  0.66360  Biso   1.000  C
  O9       1.0000 0.47120  0.55310  0.27914  Biso   1.000  O
  O10      1.0000 0.52880  0.44690  0.72086  Biso   1.000  O
  H3       1.0000 0.40300  0.48000  0.29200  Biso   1.000  H
  H4       1.0000 0.59700  0.52000  0.70800  Biso   1.000  H
  H5       1.0000 0.55800  0.58300  0.36000  Biso   1.000  H
  H6       1.0000 0.44200  0.41700  0.64000  Biso   1.000  H
  C7       1.0000 0.27270  0.99370  0.50990  Biso   1.000  C
  C8       1.0000 0.72730  0.00630  0.49010  Biso   1.000  C
  H7       1.0000 0.35500  0.08800  0.59100  Biso   1.000  H
  H8       1.0000 0.64500  0.91200  0.40900  Biso   1.000  H
  O11      1.0000 0.50230  0.78230  0.05950  Biso   1.000  O
  O12      1.0000 0.49770  0.21770  0.94050  Biso   1.000  O
  H9       1.0000 0.56800  0.81400  0.00700  Biso   1.000  H
  H10      1.0000 0.43200  0.18600  0.99300  Biso   1.000  H
  C9       1.0000 0.22390  0.84970  0.56210  Biso   1.000  C
  C10      1.0000 0.77610  0.15030  0.43790  Biso   1.000  C
  H11      1.0000 0.26700  0.84400  0.67000  Biso   1.000  H
  H12      1.0000 0.73300  0.15600  0.33000  Biso   1.000  H
  C11      1.0000 0.88070  0.55270  0.18470  Biso   1.000  C
  C12      1.0000 0.11930  0.44730  0.81530  Biso   1.000  C
  C13      1.0000 0.25430  0.13610  0.26650  Biso   1.000  C
  C14      1.0000 0.74570  0.86390  0.73350  Biso   1.000  C
  H13      1.0000 0.41500  0.83500  0.04900  Biso   1.000  H
  H14      1.0000 0.58500  0.16500  0.95100  Biso   1.000  H
