data_image0
_cell_length_a       8.509
_cell_length_b       14.559
_cell_length_c       14.132
_cell_angle_alpha    90
_cell_angle_beta     95.614
_cell_angle_gamma    90

_symmetry_space_group_name_H-M    "P 1"
_symmetry_int_tables_number       1

loop_
  _symmetry_equiv_pos_as_xyz
  'x, y, z'

loop_
  _atom_site_label
  _atom_site_occupancy
  _atom_site_fract_x
  _atom_site_fract_y
  _atom_site_fract_z
  _atom_site_thermal_displace_type
  _atom_site_B_iso_or_equiv
  _atom_site_type_symbol
  Cu1      1.0000 0.60488  0.17679  0.60052  Biso   1.000  Cu
  Cu2      1.0000 0.39512  0.67679  0.89948  Biso   1.000  Cu
  Cu3      1.0000 0.39512  0.82321  0.39948  Biso   1.000  Cu
  Cu4      1.0000 0.60488  0.32321  0.10052  Biso   1.000  Cu
  Cu5      1.0000 0.38071  0.21857  0.78182  Biso   1.000  Cu
  Cu6      1.0000 0.61929  0.71857  0.71818  Biso   1.000  Cu
  Cu7      1.0000 0.61929  0.78143  0.21818  Biso   1.000  Cu
  Cu8      1.0000 0.38071  0.28143  0.28182  Biso   1.000  Cu
  Cl1      1.0000 0.76670  0.04639  0.69098  Biso   1.000  Cl
  Cl2      1.0000 0.23330  0.54639  0.80902  Biso   1.000  Cl
  Cl3      1.0000 0.23330  0.95361  0.30902  Biso   1.000  Cl
  Cl4      1.0000 0.76670  0.45361  0.19098  Biso   1.000  Cl
  O1       1.0000 0.78200  0.25960  0.60050  Biso   1.000  O
  O2       1.0000 0.21800  0.75960  0.89950  Biso   1.000  O
  O3       1.0000 0.21800  0.74040  0.39950  Biso   1.000  O
  O4       1.0000 0.78200  0.24040  0.10050  Biso   1.000  O
  O5       1.0000 0.90360  0.37310  0.68070  Biso   1.000  O
  O6       1.0000 0.09640  0.87310  0.81930  Biso   1.000  O
  O7       1.0000 0.09640  0.62690  0.31930  Biso   1.000  O
  O8       1.0000 0.90360  0.12690  0.18070  Biso   1.000  O
  O9       1.0000 0.47860  0.28160  0.89590  Biso   1.000  O
  O10      1.0000 0.52140  0.78160  0.60410  Biso   1.000  O
  O11      1.0000 0.52140  0.71840  0.10410  Biso   1.000  O
  O12      1.0000 0.47860  0.21840  0.39590  Biso   1.000  O
  O13      1.0000 0.64920  0.37170  0.97650  Biso   1.000  O
  O14      1.0000 0.35080  0.87170  0.52350  Biso   1.000  O
  O15      1.0000 0.35080  0.62830  0.02350  Biso   1.000  O
  O16      1.0000 0.64920  0.12830  0.47650  Biso   1.000  O
  O17      1.0000 0.55760  0.24300  0.71130  Biso   1.000  O
  O18      1.0000 0.44240  0.74300  0.78870  Biso   1.000  O
  O19      1.0000 0.44240  0.75700  0.28870  Biso   1.000  O
  O20      1.0000 0.55760  0.25700  0.21130  Biso   1.000  O
  O21      1.0000 0.23630  0.35160  0.71300  Biso   1.000  O
  O22      1.0000 0.76370  0.85160  0.78700  Biso   1.000  O
  O23      1.0000 0.76370  0.64840  0.28700  Biso   1.000  O
  O24      1.0000 0.23630  0.14840  0.21300  Biso   1.000  O
  H1       1.0000 0.26300  0.40200  0.74500  Biso   1.000  H
  H2       1.0000 0.73700  0.90200  0.75500  Biso   1.000  H
  H3       1.0000 0.73700  0.59800  0.25500  Biso   1.000  H
  H4       1.0000 0.26300  0.09800  0.24500  Biso   1.000  H
  H5       1.0000 0.13800  0.35900  0.68700  Biso   1.000  H
  H6       1.0000 0.86200  0.85900  0.81300  Biso   1.000  H
  H7       1.0000 0.86200  0.64100  0.31300  Biso   1.000  H
  H8       1.0000 0.13800  0.14100  0.18700  Biso   1.000  H
  O25      1.0000 0.52290  0.07030  0.84790  Biso   1.000  O
  O26      1.0000 0.47710  0.57030  0.65210  Biso   1.000  O
  O27      1.0000 0.47710  0.92970  0.15210  Biso   1.000  O
  O28      1.0000 0.52290  0.42970  0.34790  Biso   1.000  O
  N1       1.0000 0.38630  0.12750  0.59400  Biso   1.000  N
  N2       1.0000 0.61370  0.62750  0.90600  Biso   1.000  N
  N3       1.0000 0.61370  0.87250  0.40600  Biso   1.000  N
  N4       1.0000 0.38630  0.37250  0.09400  Biso   1.000  N
  N5       1.0000 0.29110  0.14960  0.66470  Biso   1.000  N
  N6       1.0000 0.70890  0.64960  0.83530  Biso   1.000  N
  N7       1.0000 0.70890  0.85040  0.33530  Biso   1.000  N
  N8       1.0000 0.29110  0.35040  0.16470  Biso   1.000  N
  N9       1.0000 0.14650  0.08650  0.54760  Biso   1.000  N
  N10      1.0000 0.85350  0.58650  0.95240  Biso   1.000  N
  N11      1.0000 0.85350  0.91350  0.45240  Biso   1.000  N
  N12      1.0000 0.14650  0.41350  0.04760  Biso   1.000  N
  N13      1.0000 0.20210  0.18120  0.85420  Biso   1.000  N
  N14      1.0000 0.79790  0.68120  0.64580  Biso   1.000  N
  N15      1.0000 0.79790  0.81880  0.14580  Biso   1.000  N
  N16      1.0000 0.20210  0.31880  0.35420  Biso   1.000  N
  N17      1.0000 0.12420  0.24210  0.90860  Biso   1.000  N
  N18      1.0000 0.87580  0.74210  0.59140  Biso   1.000  N
  N19      1.0000 0.87580  0.75790  0.09140  Biso   1.000  N
  N20      1.0000 0.12420  0.25790  0.40860  Biso   1.000  N
  N21      1.0000 0.03370  0.10340  0.92660  Biso   1.000  N
  N22      1.0000 0.96630  0.60340  0.57340  Biso   1.000  N
  N23      1.0000 0.96630  0.89660  0.07340  Biso   1.000  N
  N24      1.0000 0.03370  0.39660  0.42660  Biso   1.000  N
  C1       1.0000 0.29720  0.09000  0.52510  Biso   1.000  C
  C2       1.0000 0.70280  0.59000  0.97490  Biso   1.000  C
  C3       1.0000 0.70280  0.91000  0.47490  Biso   1.000  C
  C4       1.0000 0.29720  0.41000  0.02510  Biso   1.000  C
  H9       1.0000 0.33200  0.06840  0.46800  Biso   1.000  H
  H10      1.0000 0.66800  0.56840  0.03200  Biso   1.000  H
  H11      1.0000 0.66800  0.93160  0.53200  Biso   1.000  H
  H12      1.0000 0.33200  0.43160  0.96800  Biso   1.000  H
  C5       1.0000 0.14810  0.12440  0.63440  Biso   1.000  C
  C6       1.0000 0.85190  0.62440  0.86560  Biso   1.000  C
  C7       1.0000 0.85190  0.87560  0.36560  Biso   1.000  C
  C8       1.0000 0.14810  0.37560  0.13440  Biso   1.000  C
  H13      1.0000 0.05920  0.13160  0.66830  Biso   1.000  H
  H14      1.0000 0.94080  0.63160  0.83170  Biso   1.000  H
  H15      1.0000 0.94080  0.86840  0.33170  Biso   1.000  H
  H16      1.0000 0.05920  0.36840  0.16830  Biso   1.000  H
  C9       1.0000 0.01030  0.04970  0.48860  Biso   1.000  C
  C10      1.0000 0.98970  0.54970  0.01140  Biso   1.000  C
  C11      1.0000 0.98970  0.95030  0.51140  Biso   1.000  C
  C12      1.0000 0.01030  0.45030  0.98860  Biso   1.000  C
  H17      1.0000 0.02650  0.05650  0.42120  Biso   1.000  H
  H18      1.0000 0.97350  0.55650  0.07880  Biso   1.000  H
  H19      1.0000 0.97350  0.94350  0.57880  Biso   1.000  H
  H20      1.0000 0.02650  0.44350  0.92120  Biso   1.000  H
  H21      1.0000 0.91500  0.08390  0.50060  Biso   1.000  H
  H22      1.0000 0.08500  0.58390  0.99940  Biso   1.000  H
  H23      1.0000 0.08500  0.91610  0.49940  Biso   1.000  H
  H24      1.0000 0.91500  0.41610  0.00060  Biso   1.000  H
  C13      1.0000 0.14600  0.10000  0.86620  Biso   1.000  C
  C14      1.0000 0.85400  0.60000  0.63380  Biso   1.000  C
  C15      1.0000 0.85400  0.90000  0.13380  Biso   1.000  C
  C16      1.0000 0.14600  0.40000  0.36620  Biso   1.000  C
  H25      1.0000 0.17900  0.04640  0.83690  Biso   1.000  H
  H26      1.0000 0.82100  0.54640  0.66310  Biso   1.000  H
  H27      1.0000 0.82100  0.95360  0.16310  Biso   1.000  H
  H28      1.0000 0.17900  0.45360  0.33690  Biso   1.000  H
  C17      1.0000 0.02630  0.19280  0.95130  Biso   1.000  C
  C18      1.0000 0.97370  0.69280  0.54870  Biso   1.000  C
  C19      1.0000 0.97370  0.80720  0.04870  Biso   1.000  C
  C20      1.0000 0.02630  0.30720  0.45130  Biso   1.000  C
  H29      1.0000 0.95860  0.21620  0.99420  Biso   1.000  H
  H30      1.0000 0.04140  0.71620  0.50580  Biso   1.000  H
  H31      1.0000 0.04140  0.78380  0.00580  Biso   1.000  H
  H32      1.0000 0.95860  0.28380  0.49420  Biso   1.000  H
  C21      1.0000 0.94790  0.02600  0.96360  Biso   1.000  C
  C22      1.0000 0.05210  0.52600  0.53640  Biso   1.000  C
  C23      1.0000 0.05210  0.97400  0.03640  Biso   1.000  C
  C24      1.0000 0.94790  0.47400  0.46360  Biso   1.000  C
  H33      1.0000 0.91090  0.98490  0.91120  Biso   1.000  H
  H34      1.0000 0.08910  0.48490  0.58880  Biso   1.000  H
  H35      1.0000 0.08910  0.01510  0.08880  Biso   1.000  H
  H36      1.0000 0.91090  0.51510  0.41120  Biso   1.000  H
  H37      1.0000 0.85530  0.04900  0.99240  Biso   1.000  H
  H38      1.0000 0.14470  0.54900  0.50760  Biso   1.000  H
  H39      1.0000 0.14470  0.95100  0.00760  Biso   1.000  H
  H40      1.0000 0.85530  0.45100  0.49240  Biso   1.000  H
  C25      1.0000 0.79950  0.31270  0.67030  Biso   1.000  C
  C26      1.0000 0.20050  0.81270  0.82970  Biso   1.000  C
  C27      1.0000 0.20050  0.68730  0.32970  Biso   1.000  C
  C28      1.0000 0.79950  0.18730  0.17030  Biso   1.000  C
  C29      1.0000 0.59520  0.33410  0.90050  Biso   1.000  C
  C30      1.0000 0.40480  0.83410  0.59950  Biso   1.000  C
  C31      1.0000 0.40480  0.66590  0.09950  Biso   1.000  C
  C32      1.0000 0.59520  0.16590  0.40050  Biso   1.000  C
  C33      1.0000 0.69780  0.28560  0.75360  Biso   1.000  C
  C34      1.0000 0.30220  0.78560  0.74640  Biso   1.000  C
  C35      1.0000 0.30220  0.71440  0.24640  Biso   1.000  C
  C36      1.0000 0.69780  0.21440  0.25360  Biso   1.000  C
  H41      1.0000 0.75750  0.24130  0.79650  Biso   1.000  H
  H42      1.0000 0.24250  0.74130  0.70350  Biso   1.000  H
  H43      1.0000 0.24250  0.75870  0.20350  Biso   1.000  H
  H44      1.0000 0.75750  0.25870  0.29650  Biso   1.000  H
  C37      1.0000 0.65670  0.36890  0.80970  Biso   1.000  C
  C38      1.0000 0.34330  0.86890  0.69030  Biso   1.000  C
  C39      1.0000 0.34330  0.63110  0.19030  Biso   1.000  C
  C40      1.0000 0.65670  0.13110  0.30970  Biso   1.000  C
  H45      1.0000 0.57580  0.40560  0.77290  Biso   1.000  H
  H46      1.0000 0.42420  0.90560  0.72710  Biso   1.000  H
  H47      1.0000 0.42420  0.59440  0.22710  Biso   1.000  H
  H48      1.0000 0.57580  0.09440  0.27290  Biso   1.000  H
  H49      1.0000 0.75040  0.40730  0.82470  Biso   1.000  H
  H50      1.0000 0.24960  0.90730  0.67530  Biso   1.000  H
  H51      1.0000 0.24960  0.59270  0.17530  Biso   1.000  H
  H52      1.0000 0.75040  0.09270  0.32470  Biso   1.000  H
  C41      1.0000 0.65500  0.32150  0.72490  Biso   1.000  C
  C42      1.0000 0.34500  0.82150  0.77510  Biso   1.000  C
  C43      1.0000 0.34500  0.67850  0.27510  Biso   1.000  C
  C44      1.0000 0.65500  0.17850  0.22490  Biso   1.000  C
  H53      1.0000 0.59710  0.37980  0.71210  Biso   1.000  H
  H54      1.0000 0.40290  0.87980  0.78790  Biso   1.000  H
  H55      1.0000 0.40290  0.62020  0.28790  Biso   1.000  H
  H56      1.0000 0.59710  0.12020  0.21210  Biso   1.000  H
  C45      1.0000 0.71600  0.30950  0.82810  Biso   1.000  C
  C46      1.0000 0.28400  0.80950  0.67190  Biso   1.000  C
  C47      1.0000 0.28400  0.69050  0.17190  Biso   1.000  C
  C48      1.0000 0.71600  0.19050  0.32810  Biso   1.000  C
  H57      1.0000 0.80990  0.34790  0.84160  Biso   1.000  H
  H58      1.0000 0.19010  0.84790  0.65840  Biso   1.000  H
  H59      1.0000 0.19010  0.65210  0.15840  Biso   1.000  H
  H60      1.0000 0.80990  0.15210  0.34160  Biso   1.000  H
  H61      1.0000 0.74850  0.24540  0.83830  Biso   1.000  H
  H62      1.0000 0.25150  0.74540  0.66170  Biso   1.000  H
  H63      1.0000 0.25150  0.75460  0.16170  Biso   1.000  H
  H64      1.0000 0.74850  0.25460  0.33830  Biso   1.000  H
  O29      1.0000 0.42000  0.39740  0.55140  Biso   1.000  O
  O30      1.0000 0.58000  0.89740  0.94860  Biso   1.000  O
  O31      1.0000 0.58000  0.60260  0.44860  Biso   1.000  O
  O32      1.0000 0.42000  0.10260  0.05140  Biso   1.000  O
