data_image0
_cell_length_a       8.55
_cell_length_b       14.769
_cell_length_c       14.134
_cell_angle_alpha    90
_cell_angle_beta     95.544
_cell_angle_gamma    90

_symmetry_space_group_name_H-M    "P 1"
_symmetry_int_tables_number       1

loop_
  _symmetry_equiv_pos_as_xyz
  'x, y, z'

loop_
  _atom_site_label
  _atom_site_occupancy
  _atom_site_fract_x
  _atom_site_fract_y
  _atom_site_fract_z
  _atom_site_thermal_displace_type
  _atom_site_B_iso_or_equiv
  _atom_site_type_symbol
  Cu1      1.0000 0.90429  0.18127  0.40107  Biso   1.000  Cu
  Cu2      1.0000 0.09571  0.68127  0.09893  Biso   1.000  Cu
  Cu3      1.0000 0.09571  0.81873  0.59893  Biso   1.000  Cu
  Cu4      1.0000 0.90429  0.31873  0.90107  Biso   1.000  Cu
  Cu5      1.0000 0.12754  0.21979  0.21906  Biso   1.000  Cu
  Cu6      1.0000 0.87246  0.71979  0.28094  Biso   1.000  Cu
  Cu7      1.0000 0.87246  0.78021  0.78094  Biso   1.000  Cu
  Cu8      1.0000 0.12754  0.28021  0.71906  Biso   1.000  Cu
  Br1      1.0000 0.73302  0.04635  0.30253  Biso   1.000  Br
  Br2      1.0000 0.26698  0.54635  0.19747  Biso   1.000  Br
  Br3      1.0000 0.26698  0.95365  0.69747  Biso   1.000  Br
  Br4      1.0000 0.73302  0.45365  0.80253  Biso   1.000  Br
  O1       1.0000 0.72900  0.26390  0.40100  Biso   1.000  O
  O2       1.0000 0.27100  0.76390  0.09900  Biso   1.000  O
  O3       1.0000 0.27100  0.73610  0.59900  Biso   1.000  O
  O4       1.0000 0.72900  0.23610  0.90100  Biso   1.000  O
  O5       1.0000 0.60660  0.37460  0.31970  Biso   1.000  O
  O6       1.0000 0.39340  0.87460  0.18030  Biso   1.000  O
  O7       1.0000 0.39340  0.62540  0.68030  Biso   1.000  O
  O8       1.0000 0.60660  0.12540  0.81970  Biso   1.000  O
  O9       1.0000 0.02990  0.28130  0.10540  Biso   1.000  O
  O10      1.0000 0.97010  0.78130  0.39460  Biso   1.000  O
  O11      1.0000 0.97010  0.71870  0.89460  Biso   1.000  O
  O12      1.0000 0.02990  0.21870  0.60540  Biso   1.000  O
  O13      1.0000 0.85800  0.36820  0.02530  Biso   1.000  O
  O14      1.0000 0.14200  0.86820  0.47470  Biso   1.000  O
  O15      1.0000 0.14200  0.63180  0.97470  Biso   1.000  O
  O16      1.0000 0.85800  0.13180  0.52530  Biso   1.000  O
  O17      1.0000 0.95180  0.24420  0.28890  Biso   1.000  O
  O18      1.0000 0.04820  0.74420  0.21110  Biso   1.000  O
  O19      1.0000 0.04820  0.75580  0.71110  Biso   1.000  O
  O20      1.0000 0.95180  0.25580  0.78890  Biso   1.000  O
  O21      1.0000 0.27730  0.34570  0.29320  Biso   1.000  O
  O22      1.0000 0.72270  0.84570  0.20680  Biso   1.000  O
  O23      1.0000 0.72270  0.65430  0.70680  Biso   1.000  O
  O24      1.0000 0.27730  0.15430  0.79320  Biso   1.000  O
  H1       1.0000 0.24600  0.39200  0.25500  Biso   1.000  H
  H2       1.0000 0.75400  0.89200  0.24500  Biso   1.000  H
  H3       1.0000 0.75400  0.60800  0.74500  Biso   1.000  H
  H4       1.0000 0.24600  0.10800  0.75500  Biso   1.000  H
  H5       1.0000 0.37600  0.33600  0.28000  Biso   1.000  H
  H6       1.0000 0.62400  0.83600  0.22000  Biso   1.000  H
  H7       1.0000 0.62400  0.66400  0.72000  Biso   1.000  H
  H8       1.0000 0.37600  0.16400  0.78000  Biso   1.000  H
  O25      1.0000 0.98850  0.06860  0.14480  Biso   1.000  O
  O26      1.0000 0.01150  0.56860  0.35520  Biso   1.000  O
  O27      1.0000 0.01150  0.93140  0.85520  Biso   1.000  O
  O28      1.0000 0.98850  0.43140  0.64480  Biso   1.000  O
  N1       1.0000 0.11900  0.12960  0.40670  Biso   1.000  N
  N2       1.0000 0.88100  0.62960  0.09330  Biso   1.000  N
  N3       1.0000 0.88100  0.87040  0.59330  Biso   1.000  N
  N4       1.0000 0.11900  0.37040  0.90670  Biso   1.000  N
  N5       1.0000 0.21280  0.14980  0.33550  Biso   1.000  N
  N6       1.0000 0.78720  0.64980  0.16450  Biso   1.000  N
  N7       1.0000 0.78720  0.85020  0.66450  Biso   1.000  N
  N8       1.0000 0.21280  0.35020  0.83550  Biso   1.000  N
  N9       1.0000 0.35580  0.08730  0.45190  Biso   1.000  N
  N10      1.0000 0.64420  0.58730  0.04810  Biso   1.000  N
  N11      1.0000 0.64420  0.91270  0.54810  Biso   1.000  N
  N12      1.0000 0.35580  0.41270  0.95190  Biso   1.000  N
  N13      1.0000 0.30460  0.18120  0.14750  Biso   1.000  N
  N14      1.0000 0.69540  0.68120  0.35250  Biso   1.000  N
  N15      1.0000 0.69540  0.81880  0.85250  Biso   1.000  N
  N16      1.0000 0.30460  0.31880  0.64750  Biso   1.000  N
  N17      1.0000 0.38480  0.24110  0.09310  Biso   1.000  N
  N18      1.0000 0.61520  0.74110  0.40690  Biso   1.000  N
  N19      1.0000 0.61520  0.75890  0.90690  Biso   1.000  N
  N20      1.0000 0.38480  0.25890  0.59310  Biso   1.000  N
  N21      1.0000 0.46840  0.10350  0.07180  Biso   1.000  N
  N22      1.0000 0.53160  0.60350  0.42820  Biso   1.000  N
  N23      1.0000 0.53160  0.89650  0.92820  Biso   1.000  N
  N24      1.0000 0.46840  0.39650  0.57180  Biso   1.000  N
  C1       1.0000 0.20970  0.09170  0.47590  Biso   1.000  C
  C2       1.0000 0.79030  0.59170  0.02410  Biso   1.000  C
  C3       1.0000 0.79030  0.90830  0.52410  Biso   1.000  C
  C4       1.0000 0.20970  0.40830  0.97590  Biso   1.000  C
  H9       1.0000 0.17670  0.07110  0.53280  Biso   1.000  H
  H10      1.0000 0.82330  0.57110  0.96720  Biso   1.000  H
  H11      1.0000 0.82330  0.92890  0.46720  Biso   1.000  H
  H12      1.0000 0.17670  0.42890  0.03280  Biso   1.000  H
  C5       1.0000 0.35490  0.12450  0.36590  Biso   1.000  C
  C6       1.0000 0.64510  0.62450  0.13410  Biso   1.000  C
  C7       1.0000 0.64510  0.87550  0.63410  Biso   1.000  C
  C8       1.0000 0.35490  0.37550  0.86590  Biso   1.000  C
  H13      1.0000 0.44270  0.13130  0.33250  Biso   1.000  H
  H14      1.0000 0.55730  0.63130  0.16750  Biso   1.000  H
  H15      1.0000 0.55730  0.86870  0.66750  Biso   1.000  H
  H16      1.0000 0.44270  0.36870  0.83250  Biso   1.000  H
  C9       1.0000 0.49420  0.05080  0.51020  Biso   1.000  C
  C10      1.0000 0.50580  0.55080  0.98980  Biso   1.000  C
  C11      1.0000 0.50580  0.94920  0.48980  Biso   1.000  C
  C12      1.0000 0.49420  0.44920  0.01020  Biso   1.000  C
  H17      1.0000 0.48330  0.06050  0.57710  Biso   1.000  H
  H18      1.0000 0.51670  0.56050  0.92290  Biso   1.000  H
  H19      1.0000 0.51670  0.93950  0.42290  Biso   1.000  H
  H20      1.0000 0.48330  0.43950  0.07710  Biso   1.000  H
  H21      1.0000 0.58870  0.08140  0.49450  Biso   1.000  H
  H22      1.0000 0.41130  0.58140  0.00550  Biso   1.000  H
  H23      1.0000 0.41130  0.91860  0.50550  Biso   1.000  H
  H24      1.0000 0.58870  0.41860  0.99450  Biso   1.000  H
  C13      1.0000 0.35700  0.10140  0.13190  Biso   1.000  C
  C14      1.0000 0.64300  0.60140  0.36810  Biso   1.000  C
  C15      1.0000 0.64300  0.89860  0.86810  Biso   1.000  C
  C16      1.0000 0.35700  0.39860  0.63190  Biso   1.000  C
  H25      1.0000 0.32180  0.04880  0.15920  Biso   1.000  H
  H26      1.0000 0.67820  0.54880  0.34080  Biso   1.000  H
  H27      1.0000 0.67820  0.95120  0.84080  Biso   1.000  H
  H28      1.0000 0.32180  0.45120  0.65920  Biso   1.000  H
  C17      1.0000 0.47880  0.19090  0.04830  Biso   1.000  C
  C18      1.0000 0.52120  0.69090  0.45170  Biso   1.000  C
  C19      1.0000 0.52120  0.80910  0.95170  Biso   1.000  C
  C20      1.0000 0.47880  0.30910  0.54830  Biso   1.000  C
  H29      1.0000 0.54520  0.21310  0.00530  Biso   1.000  H
  H30      1.0000 0.45480  0.71310  0.49470  Biso   1.000  H
  H31      1.0000 0.45480  0.78690  0.99470  Biso   1.000  H
  H32      1.0000 0.54520  0.28690  0.50530  Biso   1.000  H
  C21      1.0000 0.55240  0.02480  0.03730  Biso   1.000  C
  C22      1.0000 0.44760  0.52480  0.46270  Biso   1.000  C
  C23      1.0000 0.44760  0.97520  0.96270  Biso   1.000  C
  C24      1.0000 0.55240  0.47520  0.53730  Biso   1.000  C
  H33      1.0000 0.58330  0.98440  0.08990  Biso   1.000  H
  H34      1.0000 0.41670  0.48440  0.41010  Biso   1.000  H
  H35      1.0000 0.41670  0.01560  0.91010  Biso   1.000  H
  H36      1.0000 0.58330  0.51560  0.58990  Biso   1.000  H
  H37      1.0000 0.64680  0.04490  0.01060  Biso   1.000  H
  H38      1.0000 0.35320  0.54490  0.48940  Biso   1.000  H
  H39      1.0000 0.35320  0.95510  0.98940  Biso   1.000  H
  H40      1.0000 0.64680  0.45510  0.51060  Biso   1.000  H
  C25      1.0000 0.71150  0.31570  0.32990  Biso   1.000  C
  C26      1.0000 0.28850  0.81570  0.17010  Biso   1.000  C
  C27      1.0000 0.28850  0.68430  0.67010  Biso   1.000  C
  C28      1.0000 0.71150  0.18430  0.82990  Biso   1.000  C
  C29      1.0000 0.82200  0.30500  0.24900  Biso   1.000  C
  C30      1.0000 0.17800  0.80500  0.25100  Biso   1.000  C
  C31      1.0000 0.17800  0.69500  0.75100  Biso   1.000  C
  C32      1.0000 0.82200  0.19500  0.74900  Biso   1.000  C
  C33      1.0000 0.85200  0.37100  0.19170  Biso   1.000  C
  C34      1.0000 0.14800  0.87100  0.30830  Biso   1.000  C
  C35      1.0000 0.14800  0.62900  0.80830  Biso   1.000  C
  C36      1.0000 0.85200  0.12900  0.69170  Biso   1.000  C
  C37      1.0000 0.91310  0.33140  0.10280  Biso   1.000  C
  C38      1.0000 0.08690  0.83140  0.39720  Biso   1.000  C
  C39      1.0000 0.08690  0.66860  0.89720  Biso   1.000  C
  C40      1.0000 0.91310  0.16860  0.60280  Biso   1.000  C
  C41      1.0000 0.80900  0.27700  0.25400  Biso   1.000  C
  C42      1.0000 0.19100  0.77700  0.24600  Biso   1.000  C
  C43      1.0000 0.19100  0.72300  0.74600  Biso   1.000  C
  C44      1.0000 0.80900  0.22300  0.75400  Biso   1.000  C
  C45      1.0000 0.79000  0.31900  0.17600  Biso   1.000  C
  C46      1.0000 0.21000  0.81900  0.32400  Biso   1.000  C
  C47      1.0000 0.21000  0.68100  0.82400  Biso   1.000  C
  C48      1.0000 0.79000  0.18100  0.67600  Biso   1.000  C
  O29      1.0000 0.07730  0.39780  0.44800  Biso   1.000  O
  O30      1.0000 0.92270  0.89780  0.05200  Biso   1.000  O
  O31      1.0000 0.92270  0.60220  0.55200  Biso   1.000  O
  O32      1.0000 0.07730  0.10220  0.94800  Biso   1.000  O
