data_image0
_cell_length_a       4.872
_cell_length_b       14.347
_cell_length_c       11.655
_cell_angle_alpha    90
_cell_angle_beta     114.709
_cell_angle_gamma    90

_symmetry_space_group_name_H-M    "P 1"
_symmetry_int_tables_number       1

loop_
  _symmetry_equiv_pos_as_xyz
  'x, y, z'

loop_
  _atom_site_label
  _atom_site_occupancy
  _atom_site_fract_x
  _atom_site_fract_y
  _atom_site_fract_z
  _atom_site_thermal_displace_type
  _atom_site_B_iso_or_equiv
  _atom_site_type_symbol
  Cu1      1.0000 0.57091  0.90836  0.94369  Biso   1.000  Cu
  Cu2      1.0000 0.42909  0.40836  0.55631  Biso   1.000  Cu
  Cu3      1.0000 0.42909  0.09163  0.05631  Biso   1.000  Cu
  Cu4      1.0000 0.57091  0.59164  0.44369  Biso   1.000  Cu
  O1       1.0000 0.15630  0.83257  0.92371  Biso   1.000  O
  O2       1.0000 0.84370  0.33257  0.57629  Biso   1.000  O
  O3       1.0000 0.84370  0.16743  0.07629  Biso   1.000  O
  O4       1.0000 0.15630  0.66743  0.42371  Biso   1.000  O
  O5       1.0000 0.87680  0.81366  0.03231  Biso   1.000  O
  O6       1.0000 0.12320  0.31366  0.46769  Biso   1.000  O
  O7       1.0000 0.12320  0.18634  0.96769  Biso   1.000  O
  O8       1.0000 0.87680  0.68634  0.53231  Biso   1.000  O
  N1       1.0000 0.50760  0.62355  0.26817  Biso   1.000  N
  N2       1.0000 0.49240  0.12355  0.23183  Biso   1.000  N
  N3       1.0000 0.49240  0.37645  0.73183  Biso   1.000  N
  N4       1.0000 0.50760  0.87645  0.76817  Biso   1.000  N
  N5       1.0000 0.62260  0.96440  0.10872  Biso   1.000  N
  N6       1.0000 0.37740  0.46440  0.39128  Biso   1.000  N
  N7       1.0000 0.37740  0.03560  0.89128  Biso   1.000  N
  N8       1.0000 0.62260  0.53560  0.60872  Biso   1.000  N
  N9       1.0000 0.70760  0.92531  0.20920  Biso   1.000  N
  N10      1.0000 0.29240  0.42531  0.29080  Biso   1.000  N
  N11      1.0000 0.29240  0.07469  0.79080  Biso   1.000  N
  N12      1.0000 0.70760  0.57469  0.70920  Biso   1.000  N
  N13      1.0000 0.78830  0.89015  0.30450  Biso   1.000  N
  N14      1.0000 0.21170  0.39015  0.19550  Biso   1.000  N
  N15      1.0000 0.21170  0.10985  0.69550  Biso   1.000  N
  N16      1.0000 0.78830  0.60985  0.80450  Biso   1.000  N
  C1       1.0000 0.32270  0.69175  0.19900  Biso   1.000  C
  C2       1.0000 0.67730  0.19175  0.30100  Biso   1.000  C
  C3       1.0000 0.67730  0.30825  0.80100  Biso   1.000  C
  C4       1.0000 0.32270  0.80825  0.69900  Biso   1.000  C
  H1       1.0000 0.21010  0.72500  0.23280  Biso   1.000  H
  H2       1.0000 0.78990  0.22500  0.26720  Biso   1.000  H
  H3       1.0000 0.78990  0.27500  0.76720  Biso   1.000  H
  H4       1.0000 0.21010  0.77500  0.73280  Biso   1.000  H
  C5       1.0000 0.29500  0.71399  0.07880  Biso   1.000  C
  C6       1.0000 0.70500  0.21399  0.42120  Biso   1.000  C
  C7       1.0000 0.70500  0.28601  0.92120  Biso   1.000  C
  C8       1.0000 0.29500  0.78601  0.57880  Biso   1.000  C
  C9       1.0000 0.46030  0.66324  0.02830  Biso   1.000  C
  C10      1.0000 0.53970  0.16324  0.47170  Biso   1.000  C
  C11      1.0000 0.53970  0.33676  0.97170  Biso   1.000  C
  C12      1.0000 0.46030  0.83676  0.52830  Biso   1.000  C
  H5       1.0000 0.44770  0.67730  0.94840  Biso   1.000  H
  H6       1.0000 0.55230  0.17730  0.55160  Biso   1.000  H
  H7       1.0000 0.55230  0.32270  0.05160  Biso   1.000  H
  H8       1.0000 0.44770  0.82270  0.44840  Biso   1.000  H
  C13      1.0000 0.64400  0.59151  0.09790  Biso   1.000  C
  C14      1.0000 0.35600  0.09151  0.40210  Biso   1.000  C
  C15      1.0000 0.35600  0.40849  0.90210  Biso   1.000  C
  C16      1.0000 0.64400  0.90849  0.59790  Biso   1.000  C
  H9       1.0000 0.75290  0.55570  0.06490  Biso   1.000  H
  H10      1.0000 0.24710  0.05570  0.43510  Biso   1.000  H
  H11      1.0000 0.24710  0.44430  0.93510  Biso   1.000  H
  H12      1.0000 0.75290  0.94430  0.56490  Biso   1.000  H
  C17      1.0000 0.66240  0.57429  0.21710  Biso   1.000  C
  C18      1.0000 0.33760  0.07429  0.28290  Biso   1.000  C
  C19      1.0000 0.33760  0.42571  0.78290  Biso   1.000  C
  C20      1.0000 0.66240  0.92571  0.71710  Biso   1.000  C
  H13      1.0000 0.78740  0.52640  0.26420  Biso   1.000  H
  H14      1.0000 0.21260  0.02640  0.23580  Biso   1.000  H
  H15      1.0000 0.21260  0.47360  0.73580  Biso   1.000  H
  H16      1.0000 0.78740  0.97360  0.76420  Biso   1.000  H
  C21      1.0000 0.09530  0.79333  0.00520  Biso   1.000  C
  C22      1.0000 0.90470  0.29333  0.49480  Biso   1.000  C
  C23      1.0000 0.90470  0.20667  0.99480  Biso   1.000  C
  C24      1.0000 0.09530  0.70667  0.50520  Biso   1.000  C
