data_image0
_cell_length_a       6.4068
_cell_length_b       9.701
_cell_length_c       12.398
_cell_angle_alpha    90
_cell_angle_beta     90
_cell_angle_gamma    90

_symmetry_space_group_name_H-M    "P 1"
_symmetry_int_tables_number       1

loop_
  _symmetry_equiv_pos_as_xyz
  'x, y, z'

loop_
  _atom_site_label
  _atom_site_occupancy
  _atom_site_fract_x
  _atom_site_fract_y
  _atom_site_fract_z
  _atom_site_thermal_displace_type
  _atom_site_B_iso_or_equiv
  _atom_site_type_symbol
  Cu1      1.0000 0.20017  0.20193  0.98850  Biso   1.000  Cu
  Cu2      1.0000 0.29983  0.79807  0.48850  Biso   1.000  Cu
  Cu3      1.0000 0.79983  0.70193  0.51150  Biso   1.000  Cu
  Cu4      1.0000 0.70017  0.29807  0.01150  Biso   1.000  Cu
  O1       1.0000 0.10640  0.12112  0.12479  Biso   1.000  O
  O2       1.0000 0.39360  0.87888  0.62479  Biso   1.000  O
  O3       1.0000 0.89360  0.62112  0.37521  Biso   1.000  O
  O4       1.0000 0.60640  0.37888  0.87521  Biso   1.000  O
  O5       1.0000 0.78970  0.21340  0.14928  Biso   1.000  O
  O6       1.0000 0.71030  0.78660  0.64928  Biso   1.000  O
  O7       1.0000 0.21030  0.71340  0.35072  Biso   1.000  O
  O8       1.0000 0.28970  0.28660  0.85072  Biso   1.000  O
  N1       1.0000 0.11840  0.98320  0.43926  Biso   1.000  N
  N2       1.0000 0.38160  0.01680  0.93926  Biso   1.000  N
  N3       1.0000 0.88160  0.48320  0.06074  Biso   1.000  N
  N4       1.0000 0.61840  0.51680  0.56074  Biso   1.000  N
  N5       1.0000 0.91260  0.18980  0.92781  Biso   1.000  N
  N6       1.0000 0.58740  0.81020  0.42781  Biso   1.000  N
  N7       1.0000 0.08740  0.68980  0.57219  Biso   1.000  N
  N8       1.0000 0.41260  0.31020  0.07219  Biso   1.000  N
  N9       1.0000 0.88960  0.17260  0.83195  Biso   1.000  N
  N10      1.0000 0.61040  0.82740  0.33195  Biso   1.000  N
  N11      1.0000 0.11040  0.67260  0.66805  Biso   1.000  N
  N12      1.0000 0.38960  0.32740  0.16805  Biso   1.000  N
  N13      1.0000 0.86550  0.15400  0.74249  Biso   1.000  N
  N14      1.0000 0.63450  0.84600  0.24249  Biso   1.000  N
  N15      1.0000 0.13450  0.65400  0.75751  Biso   1.000  N
  N16      1.0000 0.36550  0.34600  0.25751  Biso   1.000  N
  C1       1.0000 0.10480  0.02210  0.33509  Biso   1.000  C
  C2       1.0000 0.39520  0.97790  0.83509  Biso   1.000  C
  C3       1.0000 0.89520  0.52210  0.16491  Biso   1.000  C
  C4       1.0000 0.60480  0.47790  0.66491  Biso   1.000  C
  H1       1.0000 0.19980  0.98560  0.28610  Biso   1.000  H
  H2       1.0000 0.30020  0.01440  0.78610  Biso   1.000  H
  H3       1.0000 0.80020  0.48560  0.21390  Biso   1.000  H
  H4       1.0000 0.69980  0.51440  0.71390  Biso   1.000  H
  C5       1.0000 0.95680  0.11330  0.29803  Biso   1.000  C
  C6       1.0000 0.54320  0.88670  0.79803  Biso   1.000  C
  C7       1.0000 0.04320  0.61330  0.20197  Biso   1.000  C
  C8       1.0000 0.45680  0.38670  0.70197  Biso   1.000  C
  C9       1.0000 0.81770  0.16870  0.37113  Biso   1.000  C
  C10      1.0000 0.68230  0.83130  0.87113  Biso   1.000  C
  C11      1.0000 0.18230  0.66870  0.12887  Biso   1.000  C
  C12      1.0000 0.31770  0.33130  0.62887  Biso   1.000  C
  H5       1.0000 0.71360  0.22880  0.34830  Biso   1.000  H
  H6       1.0000 0.78640  0.77120  0.84830  Biso   1.000  H
  H7       1.0000 0.28640  0.72880  0.15170  Biso   1.000  H
  H8       1.0000 0.21360  0.27120  0.65170  Biso   1.000  H
  C13      1.0000 0.83530  0.13360  0.47835  Biso   1.000  C
  C14      1.0000 0.66470  0.86640  0.97835  Biso   1.000  C
  C15      1.0000 0.16470  0.63360  0.02165  Biso   1.000  C
  C16      1.0000 0.33530  0.36640  0.52165  Biso   1.000  C
  H9       1.0000 0.74620  0.17180  0.52950  Biso   1.000  H
  H10      1.0000 0.75380  0.82820  0.02950  Biso   1.000  H
  H11      1.0000 0.25380  0.67180  0.97050  Biso   1.000  H
  H12      1.0000 0.24620  0.32820  0.47050  Biso   1.000  H
  C17      1.0000 0.98730  0.04080  0.50846  Biso   1.000  C
  C18      1.0000 0.51270  0.95920  0.00846  Biso   1.000  C
  C19      1.0000 0.01270  0.54080  0.99154  Biso   1.000  C
  C20      1.0000 0.48730  0.45920  0.49154  Biso   1.000  C
  H13      1.0000 0.99840  0.01750  0.58100  Biso   1.000  H
  H14      1.0000 0.50160  0.98250  0.08100  Biso   1.000  H
  H15      1.0000 0.00160  0.51750  0.91900  Biso   1.000  H
  H16      1.0000 0.49840  0.48250  0.41900  Biso   1.000  H
  C21      1.0000 0.94830  0.15230  0.17987  Biso   1.000  C
  C22      1.0000 0.55170  0.84770  0.67987  Biso   1.000  C
  C23      1.0000 0.05170  0.65230  0.32013  Biso   1.000  C
  C24      1.0000 0.44830  0.34770  0.82013  Biso   1.000  C
