data_image0
_cell_length_a       29.021
_cell_length_b       9.157
_cell_length_c       18.413
_cell_angle_alpha    90
_cell_angle_beta     90
_cell_angle_gamma    90

_symmetry_space_group_name_H-M    "P 1"
_symmetry_int_tables_number       1

loop_
  _symmetry_equiv_pos_as_xyz
  'x, y, z'

loop_
  _atom_site_label
  _atom_site_occupancy
  _atom_site_fract_x
  _atom_site_fract_y
  _atom_site_fract_z
  _atom_site_thermal_displace_type
  _atom_site_B_iso_or_equiv
  _atom_site_type_symbol
  Cu1      1.0000 0.00000  0.50000  0.00000  Biso   1.000  Cu
  Cu2      1.0000 0.50000  0.00000  0.00000  Biso   1.000  Cu
  Cu3      1.0000 0.00000  0.00000  0.50000  Biso   1.000  Cu
  Cu4      1.0000 0.50000  0.50000  0.50000  Biso   1.000  Cu
  P1       1.0000 0.00000  0.14760  0.85880  Biso   1.000  P
  P2       1.0000 0.50000  0.64760  0.85880  Biso   1.000  P
  P3       1.0000 0.00000  0.35240  0.35880  Biso   1.000  P
  P4       1.0000 0.00000  0.64760  0.64120  Biso   1.000  P
  P5       1.0000 0.00000  0.85240  0.14120  Biso   1.000  P
  P6       1.0000 0.50000  0.85240  0.35880  Biso   1.000  P
  P7       1.0000 0.50000  0.14760  0.64120  Biso   1.000  P
  P8       1.0000 0.50000  0.35240  0.14120  Biso   1.000  P
  F1       1.0000 0.00000  0.01460  0.80490  Biso   1.000  F
  F2       1.0000 0.50000  0.51460  0.80490  Biso   1.000  F
  F3       1.0000 0.00000  0.48540  0.30490  Biso   1.000  F
  F4       1.0000 0.00000  0.51460  0.69510  Biso   1.000  F
  F5       1.0000 0.00000  0.98540  0.19510  Biso   1.000  F
  F6       1.0000 0.50000  0.98540  0.30490  Biso   1.000  F
  F7       1.0000 0.50000  0.01460  0.69510  Biso   1.000  F
  F8       1.0000 0.50000  0.48540  0.19510  Biso   1.000  F
  F9       1.0000 0.00000  0.28160  0.91630  Biso   1.000  F
  F10      1.0000 0.50000  0.78160  0.91630  Biso   1.000  F
  F11      1.0000 0.00000  0.21840  0.41630  Biso   1.000  F
  F12      1.0000 0.00000  0.78160  0.58370  Biso   1.000  F
  F13      1.0000 0.00000  0.71840  0.08370  Biso   1.000  F
  F14      1.0000 0.50000  0.71840  0.41630  Biso   1.000  F
  F15      1.0000 0.50000  0.28160  0.58370  Biso   1.000  F
  F16      1.0000 0.50000  0.21840  0.08370  Biso   1.000  F
  F17      1.0000 0.00000  0.04190  0.92470  Biso   1.000  F
  F18      1.0000 0.50000  0.54190  0.92470  Biso   1.000  F
  F19      1.0000 0.00000  0.45810  0.42470  Biso   1.000  F
  F20      1.0000 0.00000  0.54190  0.57530  Biso   1.000  F
  F21      1.0000 0.00000  0.95810  0.07530  Biso   1.000  F
  F22      1.0000 0.50000  0.95810  0.42470  Biso   1.000  F
  F23      1.0000 0.50000  0.04190  0.57530  Biso   1.000  F
  F24      1.0000 0.50000  0.45810  0.07530  Biso   1.000  F
  F25      1.0000 0.00000  0.26120  0.79580  Biso   1.000  F
  F26      1.0000 0.50000  0.76120  0.79580  Biso   1.000  F
  F27      1.0000 0.00000  0.23880  0.29580  Biso   1.000  F
  F28      1.0000 0.00000  0.76120  0.70420  Biso   1.000  F
  F29      1.0000 0.00000  0.73880  0.20420  Biso   1.000  F
  F30      1.0000 0.50000  0.73880  0.29580  Biso   1.000  F
  F31      1.0000 0.50000  0.26120  0.70420  Biso   1.000  F
  F32      1.0000 0.50000  0.23880  0.20420  Biso   1.000  F
  F33      1.0000 0.05570  0.15340  0.86270  Biso   1.000  F
  F34      1.0000 0.55570  0.65340  0.86270  Biso   1.000  F
  F35      1.0000 0.94430  0.34660  0.36270  Biso   1.000  F
  F36      1.0000 0.94430  0.65340  0.63730  Biso   1.000  F
  F37      1.0000 0.05570  0.84660  0.13730  Biso   1.000  F
  F38      1.0000 0.44430  0.84660  0.36270  Biso   1.000  F
  F39      1.0000 0.44430  0.15340  0.63730  Biso   1.000  F
  F40      1.0000 0.55570  0.34660  0.13730  Biso   1.000  F
  F41      1.0000 0.94430  0.84660  0.13730  Biso   1.000  F
  F42      1.0000 0.44430  0.34660  0.13730  Biso   1.000  F
  F43      1.0000 0.05570  0.65340  0.63730  Biso   1.000  F
  F44      1.0000 0.05570  0.34660  0.36270  Biso   1.000  F
  F45      1.0000 0.94430  0.15340  0.86270  Biso   1.000  F
  F46      1.0000 0.55570  0.15340  0.63730  Biso   1.000  F
  F47      1.0000 0.55570  0.84660  0.36270  Biso   1.000  F
  F48      1.0000 0.44430  0.65340  0.86270  Biso   1.000  F
  O1       1.0000 0.14790  0.04380  0.19080  Biso   1.000  O
  O2       1.0000 0.64790  0.54380  0.19080  Biso   1.000  O
  O3       1.0000 0.85210  0.45620  0.69080  Biso   1.000  O
  O4       1.0000 0.85210  0.54380  0.30920  Biso   1.000  O
  O5       1.0000 0.14790  0.95620  0.80920  Biso   1.000  O
  O6       1.0000 0.35210  0.95620  0.69080  Biso   1.000  O
  O7       1.0000 0.35210  0.04380  0.30920  Biso   1.000  O
  O8       1.0000 0.64790  0.45620  0.80920  Biso   1.000  O
  O9       1.0000 0.85210  0.95620  0.80920  Biso   1.000  O
  O10      1.0000 0.35210  0.45620  0.80920  Biso   1.000  O
  O11      1.0000 0.14790  0.54380  0.30920  Biso   1.000  O
  O12      1.0000 0.14790  0.45620  0.69080  Biso   1.000  O
  O13      1.0000 0.85210  0.04380  0.19080  Biso   1.000  O
  O14      1.0000 0.64790  0.04380  0.30920  Biso   1.000  O
  O15      1.0000 0.64790  0.95620  0.69080  Biso   1.000  O
  O16      1.0000 0.35210  0.54380  0.19080  Biso   1.000  O
  O17      1.0000 0.24900  0.00000  0.50000  Biso   1.000  O
  O18      1.0000 0.74900  0.50000  0.50000  Biso   1.000  O
  O19      1.0000 0.75100  0.50000  0.00000  Biso   1.000  O
  O20      1.0000 0.25100  0.00000  0.00000  Biso   1.000  O
  O21      1.0000 0.75100  0.00000  0.50000  Biso   1.000  O
  O22      1.0000 0.25100  0.50000  0.50000  Biso   1.000  O
  O23      1.0000 0.24900  0.50000  0.00000  Biso   1.000  O
  O24      1.0000 0.74900  0.00000  0.00000  Biso   1.000  O
  N1       1.0000 0.04800  0.40160  0.06120  Biso   1.000  N
  N2       1.0000 0.54800  0.90160  0.06120  Biso   1.000  N
  N3       1.0000 0.95200  0.09840  0.56120  Biso   1.000  N
  N4       1.0000 0.95200  0.90160  0.43880  Biso   1.000  N
  N5       1.0000 0.04800  0.59840  0.93880  Biso   1.000  N
  N6       1.0000 0.45200  0.59840  0.56120  Biso   1.000  N
  N7       1.0000 0.45200  0.40160  0.43880  Biso   1.000  N
  N8       1.0000 0.54800  0.09840  0.93880  Biso   1.000  N
  N9       1.0000 0.95200  0.59840  0.93880  Biso   1.000  N
  N10      1.0000 0.45200  0.09840  0.93880  Biso   1.000  N
  N11      1.0000 0.04800  0.90160  0.43880  Biso   1.000  N
  N12      1.0000 0.04800  0.09840  0.56120  Biso   1.000  N
  N13      1.0000 0.95200  0.40160  0.06120  Biso   1.000  N
  N14      1.0000 0.54800  0.40160  0.43880  Biso   1.000  N
  N15      1.0000 0.54800  0.59840  0.56120  Biso   1.000  N
  N16      1.0000 0.45200  0.90160  0.06120  Biso   1.000  N
  N17      1.0000 0.15070  0.23280  0.26830  Biso   1.000  N
  N18      1.0000 0.65070  0.73280  0.26830  Biso   1.000  N
  N19      1.0000 0.84930  0.26720  0.76830  Biso   1.000  N
  N20      1.0000 0.84930  0.73280  0.23170  Biso   1.000  N
  N21      1.0000 0.15070  0.76720  0.73170  Biso   1.000  N
  N22      1.0000 0.34930  0.76720  0.76830  Biso   1.000  N
  N23      1.0000 0.34930  0.23280  0.23170  Biso   1.000  N
  N24      1.0000 0.65070  0.26720  0.73170  Biso   1.000  N
  N25      1.0000 0.84930  0.76720  0.73170  Biso   1.000  N
  N26      1.0000 0.34930  0.26720  0.73170  Biso   1.000  N
  N27      1.0000 0.15070  0.73280  0.23170  Biso   1.000  N
  N28      1.0000 0.15070  0.26720  0.76830  Biso   1.000  N
  N29      1.0000 0.84930  0.23280  0.26830  Biso   1.000  N
  N30      1.0000 0.65070  0.23280  0.23170  Biso   1.000  N
  N31      1.0000 0.65070  0.76720  0.76830  Biso   1.000  N
  N32      1.0000 0.34930  0.73280  0.26830  Biso   1.000  N
  H1       1.0000 0.14320  0.32320  0.27310  Biso   1.000  H
  H2       1.0000 0.64320  0.82320  0.27310  Biso   1.000  H
  H3       1.0000 0.85680  0.17680  0.77310  Biso   1.000  H
  H4       1.0000 0.85680  0.82320  0.22690  Biso   1.000  H
  H5       1.0000 0.14320  0.67680  0.72690  Biso   1.000  H
  H6       1.0000 0.35680  0.67680  0.77310  Biso   1.000  H
  H7       1.0000 0.35680  0.32320  0.22690  Biso   1.000  H
  H8       1.0000 0.64320  0.17680  0.72690  Biso   1.000  H
  H9       1.0000 0.85680  0.67680  0.72690  Biso   1.000  H
  H10      1.0000 0.35680  0.17680  0.72690  Biso   1.000  H
  H11      1.0000 0.14320  0.82320  0.22690  Biso   1.000  H
  H12      1.0000 0.14320  0.17680  0.77310  Biso   1.000  H
  H13      1.0000 0.85680  0.32320  0.27310  Biso   1.000  H
  H14      1.0000 0.64320  0.32320  0.22690  Biso   1.000  H
  H15      1.0000 0.64320  0.67680  0.77310  Biso   1.000  H
  H16      1.0000 0.35680  0.82320  0.27310  Biso   1.000  H
  C1       1.0000 0.06190  0.45530  0.12010  Biso   1.000  C
  C2       1.0000 0.56190  0.95530  0.12010  Biso   1.000  C
  C3       1.0000 0.93810  0.04470  0.62010  Biso   1.000  C
  C4       1.0000 0.93810  0.95530  0.37990  Biso   1.000  C
  C5       1.0000 0.06190  0.54470  0.87990  Biso   1.000  C
  C6       1.0000 0.43810  0.54470  0.62010  Biso   1.000  C
  C7       1.0000 0.43810  0.45530  0.37990  Biso   1.000  C
  C8       1.0000 0.56190  0.04470  0.87990  Biso   1.000  C
  C9       1.0000 0.93810  0.54470  0.87990  Biso   1.000  C
  C10      1.0000 0.43810  0.04470  0.87990  Biso   1.000  C
  C11      1.0000 0.06190  0.95530  0.37990  Biso   1.000  C
  C12      1.0000 0.06190  0.04470  0.62010  Biso   1.000  C
  C13      1.0000 0.93810  0.45530  0.12010  Biso   1.000  C
  C14      1.0000 0.56190  0.45530  0.37990  Biso   1.000  C
  C15      1.0000 0.56190  0.54470  0.62010  Biso   1.000  C
  C16      1.0000 0.43810  0.95530  0.12010  Biso   1.000  C
  H17      1.0000 0.05240  0.54970  0.13120  Biso   1.000  H
  H18      1.0000 0.55240  0.04970  0.13120  Biso   1.000  H
  H19      1.0000 0.94760  0.95030  0.63120  Biso   1.000  H
  H20      1.0000 0.94760  0.04970  0.36880  Biso   1.000  H
  H21      1.0000 0.05240  0.45030  0.86880  Biso   1.000  H
  H22      1.0000 0.44760  0.45030  0.63120  Biso   1.000  H
  H23      1.0000 0.44760  0.54970  0.36880  Biso   1.000  H
  H24      1.0000 0.55240  0.95030  0.86880  Biso   1.000  H
  H25      1.0000 0.94760  0.45030  0.86880  Biso   1.000  H
  H26      1.0000 0.44760  0.95030  0.86880  Biso   1.000  H
  H27      1.0000 0.05240  0.04970  0.36880  Biso   1.000  H
  H28      1.0000 0.05240  0.95030  0.63120  Biso   1.000  H
  H29      1.0000 0.94760  0.54970  0.13120  Biso   1.000  H
  H30      1.0000 0.55240  0.54970  0.36880  Biso   1.000  H
  H31      1.0000 0.55240  0.45030  0.63120  Biso   1.000  H
  H32      1.0000 0.44760  0.04970  0.13120  Biso   1.000  H
  C17      1.0000 0.09070  0.38430  0.17070  Biso   1.000  C
  C18      1.0000 0.59070  0.88430  0.17070  Biso   1.000  C
  C19      1.0000 0.90930  0.11570  0.67070  Biso   1.000  C
  C20      1.0000 0.90930  0.88430  0.32930  Biso   1.000  C
  C21      1.0000 0.09070  0.61570  0.82930  Biso   1.000  C
  C22      1.0000 0.40930  0.61570  0.67070  Biso   1.000  C
  C23      1.0000 0.40930  0.38430  0.32930  Biso   1.000  C
  C24      1.0000 0.59070  0.11570  0.82930  Biso   1.000  C
  C25      1.0000 0.90930  0.61570  0.82930  Biso   1.000  C
  C26      1.0000 0.40930  0.11570  0.82930  Biso   1.000  C
  C27      1.0000 0.09070  0.88430  0.32930  Biso   1.000  C
  C28      1.0000 0.09070  0.11570  0.67070  Biso   1.000  C
  C29      1.0000 0.90930  0.38430  0.17070  Biso   1.000  C
  C30      1.0000 0.59070  0.38430  0.32930  Biso   1.000  C
  C31      1.0000 0.59070  0.61570  0.67070  Biso   1.000  C
  C32      1.0000 0.40930  0.88430  0.17070  Biso   1.000  C
  H33      1.0000 0.09810  0.43010  0.21430  Biso   1.000  H
  H34      1.0000 0.59810  0.93010  0.21430  Biso   1.000  H
  H35      1.0000 0.90190  0.06990  0.71430  Biso   1.000  H
  H36      1.0000 0.90190  0.93010  0.28570  Biso   1.000  H
  H37      1.0000 0.09810  0.56990  0.78570  Biso   1.000  H
  H38      1.0000 0.40190  0.56990  0.71430  Biso   1.000  H
  H39      1.0000 0.40190  0.43010  0.28570  Biso   1.000  H
  H40      1.0000 0.59810  0.06990  0.78570  Biso   1.000  H
  H41      1.0000 0.90190  0.56990  0.78570  Biso   1.000  H
  H42      1.0000 0.40190  0.06990  0.78570  Biso   1.000  H
  H43      1.0000 0.09810  0.93010  0.28570  Biso   1.000  H
  H44      1.0000 0.09810  0.06990  0.71430  Biso   1.000  H
  H45      1.0000 0.90190  0.43010  0.21430  Biso   1.000  H
  H46      1.0000 0.59810  0.43010  0.28570  Biso   1.000  H
  H47      1.0000 0.59810  0.56990  0.71430  Biso   1.000  H
  H48      1.0000 0.40190  0.93010  0.21430  Biso   1.000  H
  C33      1.0000 0.10730  0.25230  0.15630  Biso   1.000  C
  C34      1.0000 0.60730  0.75230  0.15630  Biso   1.000  C
  C35      1.0000 0.89270  0.24770  0.65630  Biso   1.000  C
  C36      1.0000 0.89270  0.75230  0.34370  Biso   1.000  C
  C37      1.0000 0.10730  0.74770  0.84370  Biso   1.000  C
  C38      1.0000 0.39270  0.74770  0.65630  Biso   1.000  C
  C39      1.0000 0.39270  0.25230  0.34370  Biso   1.000  C
  C40      1.0000 0.60730  0.24770  0.84370  Biso   1.000  C
  C41      1.0000 0.89270  0.74770  0.84370  Biso   1.000  C
  C42      1.0000 0.39270  0.24770  0.84370  Biso   1.000  C
  C43      1.0000 0.10730  0.75230  0.34370  Biso   1.000  C
  C44      1.0000 0.10730  0.24770  0.65630  Biso   1.000  C
  C45      1.0000 0.89270  0.25230  0.15630  Biso   1.000  C
  C46      1.0000 0.60730  0.25230  0.34370  Biso   1.000  C
  C47      1.0000 0.60730  0.74770  0.65630  Biso   1.000  C
  C48      1.0000 0.39270  0.75230  0.15630  Biso   1.000  C
  C49      1.0000 0.09590  0.20100  0.09130  Biso   1.000  C
  C50      1.0000 0.59590  0.70100  0.09130  Biso   1.000  C
  C51      1.0000 0.90410  0.29900  0.59130  Biso   1.000  C
  C52      1.0000 0.90410  0.70100  0.40870  Biso   1.000  C
  C53      1.0000 0.09590  0.79900  0.90870  Biso   1.000  C
  C54      1.0000 0.40410  0.79900  0.59130  Biso   1.000  C
  C55      1.0000 0.40410  0.20100  0.40870  Biso   1.000  C
  C56      1.0000 0.59590  0.29900  0.90870  Biso   1.000  C
  C57      1.0000 0.90410  0.79900  0.90870  Biso   1.000  C
  C58      1.0000 0.40410  0.29900  0.90870  Biso   1.000  C
  C59      1.0000 0.09590  0.70100  0.40870  Biso   1.000  C
  C60      1.0000 0.09590  0.29900  0.59130  Biso   1.000  C
  C61      1.0000 0.90410  0.20100  0.09130  Biso   1.000  C
  C62      1.0000 0.59590  0.20100  0.40870  Biso   1.000  C
  C63      1.0000 0.59590  0.79900  0.59130  Biso   1.000  C
  C64      1.0000 0.40410  0.70100  0.09130  Biso   1.000  C
  H49      1.0000 0.10850  0.11330  0.07530  Biso   1.000  H
  H50      1.0000 0.60850  0.61330  0.07530  Biso   1.000  H
  H51      1.0000 0.89150  0.38670  0.57530  Biso   1.000  H
  H52      1.0000 0.89150  0.61330  0.42470  Biso   1.000  H
  H53      1.0000 0.10850  0.88670  0.92470  Biso   1.000  H
  H54      1.0000 0.39150  0.88670  0.57530  Biso   1.000  H
  H55      1.0000 0.39150  0.11330  0.42470  Biso   1.000  H
  H56      1.0000 0.60850  0.38670  0.92470  Biso   1.000  H
  H57      1.0000 0.89150  0.88670  0.92470  Biso   1.000  H
  H58      1.0000 0.39150  0.38670  0.92470  Biso   1.000  H
  H59      1.0000 0.10850  0.61330  0.42470  Biso   1.000  H
  H60      1.0000 0.10850  0.38670  0.57530  Biso   1.000  H
  H61      1.0000 0.89150  0.11330  0.07530  Biso   1.000  H
  H62      1.0000 0.60850  0.11330  0.42470  Biso   1.000  H
  H63      1.0000 0.60850  0.88670  0.57530  Biso   1.000  H
  H64      1.0000 0.39150  0.61330  0.07530  Biso   1.000  H
  C65      1.0000 0.06560  0.27620  0.04730  Biso   1.000  C
  C66      1.0000 0.56560  0.77620  0.04730  Biso   1.000  C
  C67      1.0000 0.93440  0.22380  0.54730  Biso   1.000  C
  C68      1.0000 0.93440  0.77620  0.45270  Biso   1.000  C
  C69      1.0000 0.06560  0.72380  0.95270  Biso   1.000  C
  C70      1.0000 0.43440  0.72380  0.54730  Biso   1.000  C
  C71      1.0000 0.43440  0.27620  0.45270  Biso   1.000  C
  C72      1.0000 0.56560  0.22380  0.95270  Biso   1.000  C
  C73      1.0000 0.93440  0.72380  0.95270  Biso   1.000  C
  C74      1.0000 0.43440  0.22380  0.95270  Biso   1.000  C
  C75      1.0000 0.06560  0.77620  0.45270  Biso   1.000  C
  C76      1.0000 0.06560  0.22380  0.54730  Biso   1.000  C
  C77      1.0000 0.93440  0.27620  0.04730  Biso   1.000  C
  C78      1.0000 0.56560  0.27620  0.45270  Biso   1.000  C
  C79      1.0000 0.56560  0.72380  0.54730  Biso   1.000  C
  C80      1.0000 0.43440  0.77620  0.04730  Biso   1.000  C
  H65      1.0000 0.05730  0.23210  0.00370  Biso   1.000  H
  H66      1.0000 0.55730  0.73210  0.00370  Biso   1.000  H
  H67      1.0000 0.94270  0.26790  0.50370  Biso   1.000  H
  H68      1.0000 0.94270  0.73210  0.49630  Biso   1.000  H
  H69      1.0000 0.05730  0.76790  0.99630  Biso   1.000  H
  H70      1.0000 0.44270  0.76790  0.50370  Biso   1.000  H
  H71      1.0000 0.44270  0.23210  0.49630  Biso   1.000  H
  H72      1.0000 0.55730  0.26790  0.99630  Biso   1.000  H
  H73      1.0000 0.94270  0.76790  0.99630  Biso   1.000  H
  H74      1.0000 0.44270  0.26790  0.99630  Biso   1.000  H
  H75      1.0000 0.05730  0.73210  0.49630  Biso   1.000  H
  H76      1.0000 0.05730  0.26790  0.50370  Biso   1.000  H
  H77      1.0000 0.94270  0.23210  0.00370  Biso   1.000  H
  H78      1.0000 0.55730  0.23210  0.49630  Biso   1.000  H
  H79      1.0000 0.55730  0.76790  0.50370  Biso   1.000  H
  H80      1.0000 0.44270  0.73210  0.00370  Biso   1.000  H
  C81      1.0000 0.13690  0.16540  0.20610  Biso   1.000  C
  C82      1.0000 0.63690  0.66540  0.20610  Biso   1.000  C
  C83      1.0000 0.86310  0.33460  0.70610  Biso   1.000  C
  C84      1.0000 0.86310  0.66540  0.29390  Biso   1.000  C
  C85      1.0000 0.13690  0.83460  0.79390  Biso   1.000  C
  C86      1.0000 0.36310  0.83460  0.70610  Biso   1.000  C
  C87      1.0000 0.36310  0.16540  0.29390  Biso   1.000  C
  C88      1.0000 0.63690  0.33460  0.79390  Biso   1.000  C
  C89      1.0000 0.86310  0.83460  0.79390  Biso   1.000  C
  C90      1.0000 0.36310  0.33460  0.79390  Biso   1.000  C
  C91      1.0000 0.13690  0.66540  0.29390  Biso   1.000  C
  C92      1.0000 0.13690  0.33460  0.70610  Biso   1.000  C
  C93      1.0000 0.86310  0.16540  0.20610  Biso   1.000  C
  C94      1.0000 0.63690  0.16540  0.29390  Biso   1.000  C
  C95      1.0000 0.63690  0.83460  0.70610  Biso   1.000  C
  C96      1.0000 0.36310  0.66540  0.20610  Biso   1.000  C
  C97      1.0000 0.17600  0.17000  0.32580  Biso   1.000  C
  C98      1.0000 0.67600  0.67000  0.32580  Biso   1.000  C
  C99      1.0000 0.82400  0.33000  0.82580  Biso   1.000  C
  C100     1.0000 0.82400  0.67000  0.17420  Biso   1.000  C
  C101     1.0000 0.17600  0.83000  0.67420  Biso   1.000  C
  C102     1.0000 0.32400  0.83000  0.82580  Biso   1.000  C
  C103     1.0000 0.32400  0.17000  0.17420  Biso   1.000  C
  C104     1.0000 0.67600  0.33000  0.67420  Biso   1.000  C
  C105     1.0000 0.82400  0.83000  0.67420  Biso   1.000  C
  C106     1.0000 0.32400  0.33000  0.67420  Biso   1.000  C
  C107     1.0000 0.17600  0.67000  0.17420  Biso   1.000  C
  C108     1.0000 0.17600  0.33000  0.82580  Biso   1.000  C
  C109     1.0000 0.82400  0.17000  0.32580  Biso   1.000  C
  C110     1.0000 0.67600  0.17000  0.17420  Biso   1.000  C
  C111     1.0000 0.67600  0.83000  0.82580  Biso   1.000  C
  C112     1.0000 0.32400  0.67000  0.32580  Biso   1.000  C
  C113     1.0000 0.20860  0.06320  0.31720  Biso   1.000  C
  C114     1.0000 0.70860  0.56320  0.31720  Biso   1.000  C
  C115     1.0000 0.79140  0.43680  0.81720  Biso   1.000  C
  C116     1.0000 0.79140  0.56320  0.18280  Biso   1.000  C
  C117     1.0000 0.20860  0.93680  0.68280  Biso   1.000  C
  C118     1.0000 0.29140  0.93680  0.81720  Biso   1.000  C
  C119     1.0000 0.29140  0.06320  0.18280  Biso   1.000  C
  C120     1.0000 0.70860  0.43680  0.68280  Biso   1.000  C
  C121     1.0000 0.79140  0.93680  0.68280  Biso   1.000  C
  C122     1.0000 0.29140  0.43680  0.68280  Biso   1.000  C
  C123     1.0000 0.20860  0.56320  0.18280  Biso   1.000  C
  C124     1.0000 0.20860  0.43680  0.81720  Biso   1.000  C
  C125     1.0000 0.79140  0.06320  0.31720  Biso   1.000  C
  C126     1.0000 0.70860  0.06320  0.18280  Biso   1.000  C
  C127     1.0000 0.70860  0.93680  0.81720  Biso   1.000  C
  C128     1.0000 0.29140  0.56320  0.31720  Biso   1.000  C
  H81      1.0000 0.21570  0.02930  0.27090  Biso   1.000  H
  H82      1.0000 0.71570  0.52930  0.27090  Biso   1.000  H
  H83      1.0000 0.78430  0.47070  0.77090  Biso   1.000  H
  H84      1.0000 0.78430  0.52930  0.22910  Biso   1.000  H
  H85      1.0000 0.21570  0.97070  0.72910  Biso   1.000  H
  H86      1.0000 0.28430  0.97070  0.77090  Biso   1.000  H
  H87      1.0000 0.28430  0.02930  0.22910  Biso   1.000  H
  H88      1.0000 0.71570  0.47070  0.72910  Biso   1.000  H
  H89      1.0000 0.78430  0.97070  0.72910  Biso   1.000  H
  H90      1.0000 0.28430  0.47070  0.72910  Biso   1.000  H
  H91      1.0000 0.21570  0.52930  0.22910  Biso   1.000  H
  H92      1.0000 0.21570  0.47070  0.77090  Biso   1.000  H
  H93      1.0000 0.78430  0.02930  0.27090  Biso   1.000  H
  H94      1.0000 0.71570  0.02930  0.22910  Biso   1.000  H
  H95      1.0000 0.71570  0.97070  0.77090  Biso   1.000  H
  H96      1.0000 0.28430  0.52930  0.27090  Biso   1.000  H
  C129     1.0000 0.23090  0.00600  0.37650  Biso   1.000  C
  C130     1.0000 0.73090  0.50600  0.37650  Biso   1.000  C
  C131     1.0000 0.76910  0.49400  0.87650  Biso   1.000  C
  C132     1.0000 0.76910  0.50600  0.12350  Biso   1.000  C
  C133     1.0000 0.23090  0.99400  0.62350  Biso   1.000  C
  C134     1.0000 0.26910  0.99400  0.87650  Biso   1.000  C
  C135     1.0000 0.26910  0.00600  0.12350  Biso   1.000  C
  C136     1.0000 0.73090  0.49400  0.62350  Biso   1.000  C
  C137     1.0000 0.76910  0.99400  0.62350  Biso   1.000  C
  C138     1.0000 0.26910  0.49400  0.62350  Biso   1.000  C
  C139     1.0000 0.23090  0.50600  0.12350  Biso   1.000  C
  C140     1.0000 0.23090  0.49400  0.87650  Biso   1.000  C
  C141     1.0000 0.76910  0.00600  0.37650  Biso   1.000  C
  C142     1.0000 0.73090  0.00600  0.12350  Biso   1.000  C
  C143     1.0000 0.73090  0.99400  0.87650  Biso   1.000  C
  C144     1.0000 0.26910  0.50600  0.37650  Biso   1.000  C
  H97      1.0000 0.25160  0.92960  0.37010  Biso   1.000  H
  H98      1.0000 0.75160  0.42960  0.37010  Biso   1.000  H
  H99      1.0000 0.74840  0.57040  0.87010  Biso   1.000  H
  H100     1.0000 0.74840  0.42960  0.12990  Biso   1.000  H
  H101     1.0000 0.25160  0.07040  0.62990  Biso   1.000  H
  H102     1.0000 0.24840  0.07040  0.87010  Biso   1.000  H
  H103     1.0000 0.24840  0.92960  0.12990  Biso   1.000  H
  H104     1.0000 0.75160  0.57040  0.62990  Biso   1.000  H
  H105     1.0000 0.74840  0.07040  0.62990  Biso   1.000  H
  H106     1.0000 0.24840  0.57040  0.62990  Biso   1.000  H
  H107     1.0000 0.25160  0.42960  0.12990  Biso   1.000  H
  H108     1.0000 0.25160  0.57040  0.87010  Biso   1.000  H
  H109     1.0000 0.74840  0.92960  0.37010  Biso   1.000  H
  H110     1.0000 0.75160  0.92960  0.12990  Biso   1.000  H
  H111     1.0000 0.75160  0.07040  0.87010  Biso   1.000  H
  H112     1.0000 0.24840  0.42960  0.37010  Biso   1.000  H
  C145     1.0000 0.22340  0.05760  0.44320  Biso   1.000  C
  C146     1.0000 0.72340  0.55760  0.44320  Biso   1.000  C
  C147     1.0000 0.77660  0.44240  0.94320  Biso   1.000  C
  C148     1.0000 0.77660  0.55760  0.05680  Biso   1.000  C
  C149     1.0000 0.22340  0.94240  0.55680  Biso   1.000  C
  C150     1.0000 0.27660  0.94240  0.94320  Biso   1.000  C
  C151     1.0000 0.27660  0.05760  0.05680  Biso   1.000  C
  C152     1.0000 0.72340  0.44240  0.55680  Biso   1.000  C
  C153     1.0000 0.77660  0.94240  0.55680  Biso   1.000  C
  C154     1.0000 0.27660  0.44240  0.55680  Biso   1.000  C
  C155     1.0000 0.22340  0.55760  0.05680  Biso   1.000  C
  C156     1.0000 0.22340  0.44240  0.94320  Biso   1.000  C
  C157     1.0000 0.77660  0.05760  0.44320  Biso   1.000  C
  C158     1.0000 0.72340  0.05760  0.05680  Biso   1.000  C
  C159     1.0000 0.72340  0.94240  0.94320  Biso   1.000  C
  C160     1.0000 0.27660  0.55760  0.44320  Biso   1.000  C
  C161     1.0000 0.19350  0.16500  0.45280  Biso   1.000  C
  C162     1.0000 0.69350  0.66500  0.45280  Biso   1.000  C
  C163     1.0000 0.80650  0.33500  0.95280  Biso   1.000  C
  C164     1.0000 0.80650  0.66500  0.04720  Biso   1.000  C
  C165     1.0000 0.19350  0.83500  0.54720  Biso   1.000  C
  C166     1.0000 0.30650  0.83500  0.95280  Biso   1.000  C
  C167     1.0000 0.30650  0.16500  0.04720  Biso   1.000  C
  C168     1.0000 0.69350  0.33500  0.54720  Biso   1.000  C
  C169     1.0000 0.80650  0.83500  0.54720  Biso   1.000  C
  C170     1.0000 0.30650  0.33500  0.54720  Biso   1.000  C
  C171     1.0000 0.19350  0.66500  0.04720  Biso   1.000  C
  C172     1.0000 0.19350  0.33500  0.95280  Biso   1.000  C
  C173     1.0000 0.80650  0.16500  0.45280  Biso   1.000  C
  C174     1.0000 0.69350  0.16500  0.04720  Biso   1.000  C
  C175     1.0000 0.69350  0.83500  0.95280  Biso   1.000  C
  C176     1.0000 0.30650  0.66500  0.45280  Biso   1.000  C
  H113     1.0000 0.18870  0.20230  0.49910  Biso   1.000  H
  H114     1.0000 0.68870  0.70230  0.49910  Biso   1.000  H
  H115     1.0000 0.81130  0.29770  0.99910  Biso   1.000  H
  H116     1.0000 0.81130  0.70230  0.00090  Biso   1.000  H
  H117     1.0000 0.18870  0.79770  0.50090  Biso   1.000  H
  H118     1.0000 0.31130  0.79770  0.99910  Biso   1.000  H
  H119     1.0000 0.31130  0.20230  0.00090  Biso   1.000  H
  H120     1.0000 0.68870  0.29770  0.50090  Biso   1.000  H
  H121     1.0000 0.81130  0.79770  0.50090  Biso   1.000  H
  H122     1.0000 0.31130  0.29770  0.50090  Biso   1.000  H
  H123     1.0000 0.18870  0.70230  0.00090  Biso   1.000  H
  H124     1.0000 0.18870  0.29770  0.99910  Biso   1.000  H
  H125     1.0000 0.81130  0.20230  0.49910  Biso   1.000  H
  H126     1.0000 0.68870  0.20230  0.00090  Biso   1.000  H
  H127     1.0000 0.68870  0.79770  0.99910  Biso   1.000  H
  H128     1.0000 0.31130  0.70230  0.49910  Biso   1.000  H
  C177     1.0000 0.16950  0.22260  0.39460  Biso   1.000  C
  C178     1.0000 0.66950  0.72260  0.39460  Biso   1.000  C
  C179     1.0000 0.83050  0.27740  0.89460  Biso   1.000  C
  C180     1.0000 0.83050  0.72260  0.10540  Biso   1.000  C
  C181     1.0000 0.16950  0.77740  0.60540  Biso   1.000  C
  C182     1.0000 0.33050  0.77740  0.89460  Biso   1.000  C
  C183     1.0000 0.33050  0.22260  0.10540  Biso   1.000  C
  C184     1.0000 0.66950  0.27740  0.60540  Biso   1.000  C
  C185     1.0000 0.83050  0.77740  0.60540  Biso   1.000  C
  C186     1.0000 0.33050  0.27740  0.60540  Biso   1.000  C
  C187     1.0000 0.16950  0.72260  0.10540  Biso   1.000  C
  C188     1.0000 0.16950  0.27740  0.89460  Biso   1.000  C
  C189     1.0000 0.83050  0.22260  0.39460  Biso   1.000  C
  C190     1.0000 0.66950  0.22260  0.10540  Biso   1.000  C
  C191     1.0000 0.66950  0.77740  0.89460  Biso   1.000  C
  C192     1.0000 0.33050  0.72260  0.39460  Biso   1.000  C
  H129     1.0000 0.14860  0.29800  0.40230  Biso   1.000  H
  H130     1.0000 0.64860  0.79800  0.40230  Biso   1.000  H
  H131     1.0000 0.85140  0.20200  0.90230  Biso   1.000  H
  H132     1.0000 0.85140  0.79800  0.09770  Biso   1.000  H
  H133     1.0000 0.14860  0.70200  0.59770  Biso   1.000  H
  H134     1.0000 0.35140  0.70200  0.90230  Biso   1.000  H
  H135     1.0000 0.35140  0.29800  0.09770  Biso   1.000  H
  H136     1.0000 0.64860  0.20200  0.59770  Biso   1.000  H
  H137     1.0000 0.85140  0.70200  0.59770  Biso   1.000  H
  H138     1.0000 0.35140  0.20200  0.59770  Biso   1.000  H
  H139     1.0000 0.14860  0.79800  0.09770  Biso   1.000  H
  H140     1.0000 0.14860  0.20200  0.90230  Biso   1.000  H
  H141     1.0000 0.85140  0.29800  0.40230  Biso   1.000  H
  H142     1.0000 0.64860  0.29800  0.09770  Biso   1.000  H
  H143     1.0000 0.64860  0.70200  0.90230  Biso   1.000  H
  H144     1.0000 0.35140  0.79800  0.40230  Biso   1.000  H
