data_image0
_cell_length_a       7.799
_cell_length_b       14.077
_cell_length_c       14.54
_cell_angle_alpha    70.779
_cell_angle_beta     77.451
_cell_angle_gamma    82.088

_symmetry_space_group_name_H-M    "P 1"
_symmetry_int_tables_number       1

loop_
  _symmetry_equiv_pos_as_xyz
  'x, y, z'

loop_
  _atom_site_label
  _atom_site_occupancy
  _atom_site_fract_x
  _atom_site_fract_y
  _atom_site_fract_z
  _atom_site_thermal_displace_type
  _atom_site_B_iso_or_equiv
  _atom_site_type_symbol
  Cu1      1.0000 0.90817  0.61804  0.73587  Biso   1.000  Cu
  Cu2      1.0000 0.09183  0.38196  0.26413  Biso   1.000  Cu
  N1       1.0000 0.77040  0.69580  0.62890  Biso   1.000  N
  N2       1.0000 0.22960  0.30420  0.37110  Biso   1.000  N
  N3       1.0000 0.26960  0.79480  0.43720  Biso   1.000  N
  N4       1.0000 0.73040  0.20520  0.56280  Biso   1.000  N
  H1       1.0000 0.26860  0.73340  0.47530  Biso   1.000  H
  H2       1.0000 0.73140  0.26660  0.52470  Biso   1.000  H
  N5       1.0000 0.41220  0.21540  0.99240  Biso   1.000  N
  N6       1.0000 0.58780  0.78460  0.00760  Biso   1.000  N
  H3       1.0000 0.45870  0.25790  0.93790  Biso   1.000  H
  H4       1.0000 0.54130  0.74210  0.06210  Biso   1.000  H
  N7       1.0000 0.00020  0.49910  0.83770  Biso   1.000  N
  N8       1.0000 0.99980  0.50090  0.16230  Biso   1.000  N
  N9       1.0000 0.14290  0.53830  0.59460  Biso   1.000  N
  N10      1.0000 0.85710  0.46170  0.40540  Biso   1.000  N
  N11      1.0000 0.57460  0.60410  0.85260  Biso   1.000  N
  N12      1.0000 0.42540  0.39590  0.14740  Biso   1.000  N
  O1       1.0000 0.39140  0.94250  0.40800  Biso   1.000  O
  O2       1.0000 0.60860  0.05750  0.59200  Biso   1.000  O
  O3       1.0000 0.83350  0.87510  0.16020  Biso   1.000  O
  O4       1.0000 0.16650  0.12490  0.83980  Biso   1.000  O
  O5       1.0000 0.15040  0.17670  0.10030  Biso   1.000  O
  O6       1.0000 0.84960  0.82330  0.89970  Biso   1.000  O
  O7       1.0000 0.12530  0.61150  0.63130  Biso   1.000  O
  O8       1.0000 0.87470  0.38850  0.36870  Biso   1.000  O
  O9       1.0000 0.26960  0.53390  0.52980  Biso   1.000  O
  O10      1.0000 0.73040  0.46610  0.47020  Biso   1.000  O
  O11      1.0000 0.02660  0.47770  0.62970  Biso   1.000  O
  O12      1.0000 0.97340  0.52230  0.37030  Biso   1.000  O
  O13      1.0000 0.71610  0.65050  0.83810  Biso   1.000  O
  O14      1.0000 0.28390  0.34950  0.16190  Biso   1.000  O
  O15      1.0000 0.45040  0.61960  0.91470  Biso   1.000  O
  O16      1.0000 0.54960  0.38040  0.08530  Biso   1.000  O
  O17      1.0000 0.57440  0.54520  0.80530  Biso   1.000  O
  O18      1.0000 0.42560  0.45480  0.19470  Biso   1.000  O
  O19      1.0000 0.02740  0.74530  0.75830  Biso   1.000  O
  O20      1.0000 0.97260  0.25470  0.24170  Biso   1.000  O
  C1       1.0000 0.69900  0.64690  0.58120  Biso   1.000  C
  C2       1.0000 0.30100  0.35310  0.41880  Biso   1.000  C
  H5       1.0000 0.73680  0.57980  0.58780  Biso   1.000  H
  H6       1.0000 0.26320  0.42020  0.41220  Biso   1.000  H
  C3       1.0000 0.57380  0.69200  0.52390  Biso   1.000  C
  C4       1.0000 0.42620  0.30800  0.47610  Biso   1.000  C
  H7       1.0000 0.52410  0.65510  0.49500  Biso   1.000  H
  H8       1.0000 0.47590  0.34490  0.50500  Biso   1.000  H
  C5       1.0000 0.52260  0.79380  0.50960  Biso   1.000  C
  C6       1.0000 0.47740  0.20620  0.49040  Biso   1.000  C
  C7       1.0000 0.60380  0.84540  0.55150  Biso   1.000  C
  C8       1.0000 0.39620  0.15460  0.44850  Biso   1.000  C
  H9       1.0000 0.57830  0.91440  0.53950  Biso   1.000  H
  H10      1.0000 0.42170  0.08560  0.46050  Biso   1.000  H
  C9       1.0000 0.72440  0.79380  0.61180  Biso   1.000  C
  C10      1.0000 0.27560  0.20620  0.38820  Biso   1.000  C
  H11      1.0000 0.77520  0.82930  0.64160  Biso   1.000  H
  H12      1.0000 0.22480  0.17070  0.35840  Biso   1.000  H
  C11      1.0000 0.38720  0.85010  0.44640  Biso   1.000  C
  C12      1.0000 0.61280  0.14990  0.55360  Biso   1.000  C
  C13      1.0000 0.14550  0.82480  0.37210  Biso   1.000  C
  C14      1.0000 0.85450  0.17520  0.62790  Biso   1.000  C
  C15      1.0000 0.06010  0.74850  0.36370  Biso   1.000  C
  C16      1.0000 0.93990  0.25150  0.63630  Biso   1.000  C
  H13      1.0000 0.07770  0.68300  0.40480  Biso   1.000  H
  H14      1.0000 0.92230  0.31700  0.59520  Biso   1.000  H
  C17      1.0000 0.94990  0.76700  0.29630  Biso   1.000  C
  C18      1.0000 0.05010  0.23300  0.70370  Biso   1.000  C
  H15      1.0000 0.89240  0.71490  0.29290  Biso   1.000  H
  H16      1.0000 0.10760  0.28510  0.70710  Biso   1.000  H
  C19      1.0000 0.92660  0.86240  0.23470  Biso   1.000  C
  C20      1.0000 0.07340  0.13760  0.76530  Biso   1.000  C
  C21      1.0000 0.00940  0.94070  0.24190  Biso   1.000  C
  C22      1.0000 0.99060  0.05930  0.75810  Biso   1.000  C
  H17      1.0000 0.98990  0.00620  0.20110  Biso   1.000  H
  H18      1.0000 0.01010  0.99380  0.79890  Biso   1.000  H
  C23      1.0000 0.12070  0.92150  0.30940  Biso   1.000  C
  C24      1.0000 0.87930  0.07850  0.69060  Biso   1.000  C
  H19      1.0000 0.17850  0.97360  0.31250  Biso   1.000  H
  H20      1.0000 0.82150  0.02640  0.68750  Biso   1.000  H
  C25      1.0000 0.73450  0.96680  0.12210  Biso   1.000  C
  C26      1.0000 0.26550  0.03320  0.87790  Biso   1.000  C
  C27      1.0000 0.61610  0.00840  0.18210  Biso   1.000  C
  C28      1.0000 0.38390  0.99160  0.81790  Biso   1.000  C
  H21      1.0000 0.60510  0.98150  0.25050  Biso   1.000  H
  H22      1.0000 0.39490  0.01850  0.74950  Biso   1.000  H
  C29      1.0000 0.51040  0.09220  0.14040  Biso   1.000  C
  C30      1.0000 0.48960  0.90780  0.85960  Biso   1.000  C
  H23      1.0000 0.42790  0.12160  0.18150  Biso   1.000  H
  H24      1.0000 0.57210  0.87840  0.81850  Biso   1.000  H
  C31      1.0000 0.52560  0.13280  0.03880  Biso   1.000  C
  C32      1.0000 0.47440  0.86720  0.96120  Biso   1.000  C
  C33      1.0000 0.64840  0.08980  0.97850  Biso   1.000  C
  C34      1.0000 0.35160  0.91020  0.02150  Biso   1.000  C
  H25      1.0000 0.65800  0.11510  0.91010  Biso   1.000  H
  H26      1.0000 0.34200  0.88490  0.08990  Biso   1.000  H
  C35      1.0000 0.75840  0.00810  0.02060  Biso   1.000  C
  C36      1.0000 0.24160  0.99190  0.97940  Biso   1.000  C
  H27      1.0000 0.84790  0.98140  0.98050  Biso   1.000  H
  H28      1.0000 0.15210  0.01860  0.01950  Biso   1.000  H
  C37      1.0000 0.24170  0.23270  0.02560  Biso   1.000  C
  C38      1.0000 0.75830  0.76730  0.97440  Biso   1.000  C
  C39      1.0000 0.15250  0.32760  0.96300  Biso   1.000  C
  C40      1.0000 0.84750  0.67240  0.03700  Biso   1.000  C
  C41      1.0000 0.99450  0.32370  0.93710  Biso   1.000  C
  C42      1.0000 0.00550  0.67630  0.06290  Biso   1.000  C
  H29      1.0000 0.93570  0.26480  0.96140  Biso   1.000  H
  H30      1.0000 0.06430  0.73520  0.03860  Biso   1.000  H
  C43      1.0000 0.92590  0.41090  0.87330  Biso   1.000  C
  C44      1.0000 0.07410  0.58910  0.12670  Biso   1.000  C
  H31      1.0000 0.82120  0.40760  0.85410  Biso   1.000  H
  H32      1.0000 0.17880  0.59240  0.14590  Biso   1.000  H
  C45      1.0000 0.14950  0.50260  0.86540  Biso   1.000  C
  C46      1.0000 0.85050  0.49740  0.13460  Biso   1.000  C
  H33      1.0000 0.20250  0.56350  0.84270  Biso   1.000  H
  H34      1.0000 0.79750  0.43650  0.15730  Biso   1.000  H
  C47      1.0000 0.23050  0.41850  0.92740  Biso   1.000  C
  C48      1.0000 0.76950  0.58150  0.07260  Biso   1.000  C
  H35      1.0000 0.33610  0.42360  0.94460  Biso   1.000  H
  H36      1.0000 0.66390  0.57640  0.05540  Biso   1.000  H
  C49      1.0000 0.18850  0.78720  0.72020  Biso   1.000  C
  C50      1.0000 0.81150  0.21280  0.27980  Biso   1.000  C
  H37      1.0000 0.19200  0.84140  0.74590  Biso   1.000  H
  H38      1.0000 0.80800  0.15860  0.25410  Biso   1.000  H
  H39      1.0000 0.20380  0.81270  0.64920  Biso   1.000  H
  H40      1.0000 0.79620  0.18730  0.35080  Biso   1.000  H
  H41      1.0000 0.28130  0.73660  0.73890  Biso   1.000  H
  H42      1.0000 0.71870  0.26340  0.26110  Biso   1.000  H
  O21      1.0000 0.43010  0.66620  0.20520  Biso   1.000  O
  O22      1.0000 0.56990  0.33380  0.79480  Biso   1.000  O
  H43      1.0000 0.31980  0.70420  0.21600  Biso   1.000  H
  H44      1.0000 0.68020  0.29580  0.78400  Biso   1.000  H
  C51      1.0000 0.51390  0.64930  0.28310  Biso   1.000  C
  C52      1.0000 0.48610  0.35070  0.71690  Biso   1.000  C
  H45      1.0000 0.55160  0.71170  0.28220  Biso   1.000  H
  H46      1.0000 0.44840  0.28830  0.71780  Biso   1.000  H
  H47      1.0000 0.61450  0.60240  0.27760  Biso   1.000  H
  H48      1.0000 0.38550  0.39760  0.72240  Biso   1.000  H
  H49      1.0000 0.43450  0.62180  0.34410  Biso   1.000  H
  H50      1.0000 0.56550  0.37820  0.65590  Biso   1.000  H
