data_image0
_cell_length_a       13.8097
_cell_length_b       14.5765
_cell_length_c       13.7853
_cell_angle_alpha    90
_cell_angle_beta     96.033
_cell_angle_gamma    90

_symmetry_space_group_name_H-M    "P 1"
_symmetry_int_tables_number       1

loop_
  _symmetry_equiv_pos_as_xyz
  'x, y, z'

loop_
  _atom_site_label
  _atom_site_occupancy
  _atom_site_fract_x
  _atom_site_fract_y
  _atom_site_fract_z
  _atom_site_thermal_displace_type
  _atom_site_B_iso_or_equiv
  _atom_site_type_symbol
  S1       1.0000 0.04000  0.11250  0.68090  Biso   1.000  S
  S2       1.0000 0.96000  0.61250  0.81910  Biso   1.000  S
  S3       1.0000 0.96000  0.88750  0.31910  Biso   1.000  S
  S4       1.0000 0.04000  0.38750  0.18090  Biso   1.000  S
  S5       1.0000 0.43960  0.86900  0.67440  Biso   1.000  S
  S6       1.0000 0.56040  0.36900  0.82560  Biso   1.000  S
  S7       1.0000 0.56040  0.13100  0.32560  Biso   1.000  S
  S8       1.0000 0.43960  0.63100  0.17440  Biso   1.000  S
  O1       1.0000 0.09560  0.16800  0.62050  Biso   1.000  O
  O2       1.0000 0.90440  0.66800  0.87950  Biso   1.000  O
  O3       1.0000 0.90440  0.83200  0.37950  Biso   1.000  O
  O4       1.0000 0.09560  0.33200  0.12050  Biso   1.000  O
  O5       1.0000 0.96290  0.05840  0.63110  Biso   1.000  O
  O6       1.0000 0.03710  0.55840  0.86890  Biso   1.000  O
  O7       1.0000 0.03710  0.94160  0.36890  Biso   1.000  O
  O8       1.0000 0.96290  0.44160  0.13110  Biso   1.000  O
  O9       1.0000 0.49890  0.92280  0.61570  Biso   1.000  O
  O10      1.0000 0.50110  0.42280  0.88430  Biso   1.000  O
  O11      1.0000 0.50110  0.07720  0.38430  Biso   1.000  O
  O12      1.0000 0.49890  0.57720  0.11570  Biso   1.000  O
  O13      1.0000 0.36470  0.81600  0.61900  Biso   1.000  O
  O14      1.0000 0.63530  0.31600  0.88100  Biso   1.000  O
  O15      1.0000 0.63530  0.18400  0.38100  Biso   1.000  O
  O16      1.0000 0.36470  0.68400  0.11900  Biso   1.000  O
  N1       1.0000 0.17280  0.92590  0.82340  Biso   1.000  N
  N2       1.0000 0.82720  0.42590  0.67660  Biso   1.000  N
  N3       1.0000 0.82720  0.07410  0.17660  Biso   1.000  N
  N4       1.0000 0.17280  0.57410  0.32340  Biso   1.000  N
  N5       1.0000 0.00970  0.97390  0.84060  Biso   1.000  N
  N6       1.0000 0.99030  0.47390  0.65940  Biso   1.000  N
  N7       1.0000 0.99030  0.02610  0.15940  Biso   1.000  N
  N8       1.0000 0.00970  0.52610  0.34060  Biso   1.000  N
  N9       1.0000 0.11880  0.05000  0.74250  Biso   1.000  N
  N10      1.0000 0.88120  0.55000  0.75750  Biso   1.000  N
  N11      1.0000 0.88120  0.95000  0.25750  Biso   1.000  N
  N12      1.0000 0.11880  0.45000  0.24250  Biso   1.000  N
  N13      1.0000 0.84830  0.38300  0.91830  Biso   1.000  N
  N14      1.0000 0.15170  0.88300  0.58170  Biso   1.000  N
  N15      1.0000 0.15170  0.61700  0.08170  Biso   1.000  N
  N16      1.0000 0.84830  0.11700  0.41830  Biso   1.000  N
  N17      1.0000 0.37720  0.04600  0.85690  Biso   1.000  N
  N18      1.0000 0.62280  0.54600  0.64310  Biso   1.000  N
  N19      1.0000 0.62280  0.95400  0.14310  Biso   1.000  N
  N20      1.0000 0.37720  0.45400  0.35690  Biso   1.000  N
  N21      1.0000 0.53250  0.98460  0.82780  Biso   1.000  N
  N22      1.0000 0.46750  0.48460  0.67220  Biso   1.000  N
  N23      1.0000 0.46750  0.01540  0.17220  Biso   1.000  N
  N24      1.0000 0.53250  0.51540  0.32780  Biso   1.000  N
  N25      1.0000 0.38380  0.93050  0.74740  Biso   1.000  N
  N26      1.0000 0.61620  0.43050  0.75260  Biso   1.000  N
  N27      1.0000 0.61620  0.06950  0.25260  Biso   1.000  N
  N28      1.0000 0.38380  0.56950  0.24740  Biso   1.000  N
  N29      1.0000 0.70900  0.58970  0.87150  Biso   1.000  N
  N30      1.0000 0.29100  0.08970  0.62850  Biso   1.000  N
  N31      1.0000 0.29100  0.41030  0.12850  Biso   1.000  N
  N32      1.0000 0.70900  0.91030  0.37150  Biso   1.000  N
  Cu1      1.0000 0.25220  0.99460  0.72880  Biso   1.000  Cu
  Cu2      1.0000 0.74780  0.49460  0.77120  Biso   1.000  Cu
  Cu3      1.0000 0.74780  0.00540  0.27120  Biso   1.000  Cu
  Cu4      1.0000 0.25220  0.50540  0.22880  Biso   1.000  Cu
  C1       1.0000 0.16540  0.85530  0.88340  Biso   1.000  C
  C2       1.0000 0.83460  0.35530  0.61660  Biso   1.000  C
  C3       1.0000 0.83460  0.14470  0.11660  Biso   1.000  C
  C4       1.0000 0.16540  0.64470  0.38340  Biso   1.000  C
  C5       1.0000 0.07950  0.84280  0.92530  Biso   1.000  C
  C6       1.0000 0.92050  0.34280  0.57470  Biso   1.000  C
  C7       1.0000 0.92050  0.15720  0.07470  Biso   1.000  C
  C8       1.0000 0.07950  0.65720  0.42530  Biso   1.000  C
  C9       1.0000 0.00330  0.90320  0.90240  Biso   1.000  C
  C10      1.0000 0.99670  0.40320  0.59760  Biso   1.000  C
  C11      1.0000 0.99670  0.09680  0.09760  Biso   1.000  C
  C12      1.0000 0.00330  0.59680  0.40240  Biso   1.000  C
  C13      1.0000 0.09540  0.98200  0.80500  Biso   1.000  C
  C14      1.0000 0.90460  0.48200  0.69500  Biso   1.000  C
  C15      1.0000 0.90460  0.01800  0.19500  Biso   1.000  C
  C16      1.0000 0.09540  0.51800  0.30500  Biso   1.000  C
  C17      1.0000 0.98710  0.18600  0.76210  Biso   1.000  C
  C18      1.0000 0.01290  0.68600  0.73790  Biso   1.000  C
  C19      1.0000 0.01290  0.81400  0.23790  Biso   1.000  C
  C20      1.0000 0.98710  0.31400  0.26210  Biso   1.000  C
  C21      1.0000 0.89140  0.17510  0.77710  Biso   1.000  C
  C22      1.0000 0.10860  0.67510  0.72290  Biso   1.000  C
  C23      1.0000 0.10860  0.82490  0.22290  Biso   1.000  C
  C24      1.0000 0.89140  0.32490  0.27710  Biso   1.000  C
  C25      1.0000 0.84570  0.23900  0.83080  Biso   1.000  C
  C26      1.0000 0.15430  0.73900  0.66920  Biso   1.000  C
  C27      1.0000 0.15430  0.76100  0.16920  Biso   1.000  C
  C28      1.0000 0.84570  0.26100  0.33080  Biso   1.000  C
  C29      1.0000 0.89620  0.31450  0.87100  Biso   1.000  C
  C30      1.0000 0.10380  0.81450  0.62900  Biso   1.000  C
  C31      1.0000 0.10380  0.68550  0.12900  Biso   1.000  C
  C32      1.0000 0.89620  0.18550  0.37100  Biso   1.000  C
  C33      1.0000 0.99410  0.32210  0.86010  Biso   1.000  C
  C34      1.0000 0.00590  0.82210  0.63990  Biso   1.000  C
  C35      1.0000 0.00590  0.67790  0.13990  Biso   1.000  C
  C36      1.0000 0.99410  0.17790  0.36010  Biso   1.000  C
  C37      1.0000 0.03980  0.25900  0.80560  Biso   1.000  C
  C38      1.0000 0.96020  0.75900  0.69440  Biso   1.000  C
  C39      1.0000 0.96020  0.74100  0.19440  Biso   1.000  C
  C40      1.0000 0.03980  0.24100  0.30560  Biso   1.000  C
  C41      1.0000 0.42090  0.10640  0.91980  Biso   1.000  C
  C42      1.0000 0.57910  0.60640  0.58020  Biso   1.000  C
  C43      1.0000 0.57910  0.89360  0.08020  Biso   1.000  C
  C44      1.0000 0.42090  0.39360  0.41980  Biso   1.000  C
  C45      1.0000 0.52080  0.10790  0.93830  Biso   1.000  C
  C46      1.0000 0.47920  0.60790  0.56170  Biso   1.000  C
  C47      1.0000 0.47920  0.89210  0.06170  Biso   1.000  C
  C48      1.0000 0.52080  0.39210  0.43830  Biso   1.000  C
  C49      1.0000 0.57530  0.04600  0.89180  Biso   1.000  C
  C50      1.0000 0.42470  0.54600  0.60820  Biso   1.000  C
  C51      1.0000 0.42470  0.95400  0.10820  Biso   1.000  C
  C52      1.0000 0.57530  0.45400  0.39180  Biso   1.000  C
  C53      1.0000 0.43660  0.98820  0.81420  Biso   1.000  C
  C54      1.0000 0.56340  0.48820  0.68580  Biso   1.000  C
  C55      1.0000 0.56340  0.01180  0.18580  Biso   1.000  C
  C56      1.0000 0.43660  0.51180  0.31420  Biso   1.000  C
  C57      1.0000 0.51800  0.79160  0.74310  Biso   1.000  C
  C58      1.0000 0.48200  0.29160  0.75690  Biso   1.000  C
  C59      1.0000 0.48200  0.20840  0.25690  Biso   1.000  C
  C60      1.0000 0.51800  0.70840  0.24310  Biso   1.000  C
  C61      1.0000 0.61810  0.80240  0.74570  Biso   1.000  C
  C62      1.0000 0.38190  0.30240  0.75430  Biso   1.000  C
  C63      1.0000 0.38190  0.19760  0.25430  Biso   1.000  C
  C64      1.0000 0.61810  0.69760  0.24570  Biso   1.000  C
  C65      1.0000 0.67990  0.73710  0.78970  Biso   1.000  C
  C66      1.0000 0.32010  0.23710  0.71030  Biso   1.000  C
  C67      1.0000 0.32010  0.26290  0.21030  Biso   1.000  C
  C68      1.0000 0.67990  0.76290  0.28970  Biso   1.000  C
  C69      1.0000 0.64330  0.66030  0.83350  Biso   1.000  C
  C70      1.0000 0.35670  0.16030  0.66650  Biso   1.000  C
  C71      1.0000 0.35670  0.33970  0.16650  Biso   1.000  C
  C72      1.0000 0.64330  0.83970  0.33350  Biso   1.000  C
  C73      1.0000 0.54400  0.65060  0.83350  Biso   1.000  C
  C74      1.0000 0.45600  0.15060  0.66650  Biso   1.000  C
  C75      1.0000 0.45600  0.34940  0.16650  Biso   1.000  C
  C76      1.0000 0.54400  0.84940  0.33350  Biso   1.000  C
  C77      1.0000 0.48130  0.71600  0.78710  Biso   1.000  C
  C78      1.0000 0.51870  0.21600  0.71290  Biso   1.000  C
  C79      1.0000 0.51870  0.28400  0.21290  Biso   1.000  C
  C80      1.0000 0.48130  0.78400  0.28710  Biso   1.000  C
  C81      1.0000 0.25110  0.79270  0.90180  Biso   1.000  C
  C82      1.0000 0.74890  0.29270  0.59820  Biso   1.000  C
  C83      1.0000 0.74890  0.20730  0.09820  Biso   1.000  C
  C84      1.0000 0.25110  0.70730  0.40180  Biso   1.000  C
  C85      1.0000 0.90780  0.89300  0.94250  Biso   1.000  C
  C86      1.0000 0.09220  0.39300  0.55750  Biso   1.000  C
  C87      1.0000 0.09220  0.10700  0.05750  Biso   1.000  C
  C88      1.0000 0.90780  0.60700  0.44250  Biso   1.000  C
  C89      1.0000 0.35660  0.17130  0.96730  Biso   1.000  C
  C90      1.0000 0.64340  0.67130  0.53270  Biso   1.000  C
  C91      1.0000 0.64340  0.82870  0.03270  Biso   1.000  C
  C92      1.0000 0.35660  0.32870  0.46730  Biso   1.000  C
  C93      1.0000 0.68430  0.04280  0.90470  Biso   1.000  C
  C94      1.0000 0.31570  0.54280  0.59530  Biso   1.000  C
  C95      1.0000 0.31570  0.95720  0.09530  Biso   1.000  C
  C96      1.0000 0.68430  0.45720  0.40470  Biso   1.000  C
  O17      1.0000 0.65710  0.02180  0.54810  Biso   1.000  O
  O18      1.0000 0.34290  0.52180  0.95190  Biso   1.000  O
  O19      1.0000 0.34290  0.97820  0.45190  Biso   1.000  O
  O20      1.0000 0.65710  0.47820  0.04810  Biso   1.000  O
  O21      1.0000 0.80270  0.94210  0.69420  Biso   1.000  O
  O22      1.0000 0.19730  0.44210  0.80580  Biso   1.000  O
  O23      1.0000 0.19730  0.05790  0.30580  Biso   1.000  O
  O24      1.0000 0.80270  0.55790  0.19420  Biso   1.000  O
  H1       1.0000 0.07300  0.79300  0.96900  Biso   1.000  H
  H2       1.0000 0.92700  0.29300  0.53100  Biso   1.000  H
  H3       1.0000 0.92700  0.20700  0.03100  Biso   1.000  H
  H4       1.0000 0.07300  0.70700  0.46900  Biso   1.000  H
  H5       1.0000 0.79300  0.36300  0.92800  Biso   1.000  H
  H6       1.0000 0.20700  0.86300  0.57200  Biso   1.000  H
  H7       1.0000 0.20700  0.63700  0.07200  Biso   1.000  H
  H8       1.0000 0.79300  0.13700  0.42800  Biso   1.000  H
  H9       1.0000 0.87900  0.41200  0.96300  Biso   1.000  H
  H10      1.0000 0.12100  0.91200  0.53700  Biso   1.000  H
  H11      1.0000 0.12100  0.58800  0.03700  Biso   1.000  H
  H12      1.0000 0.87900  0.08800  0.46300  Biso   1.000  H
  H13      1.0000 0.85700  0.12600  0.75200  Biso   1.000  H
  H14      1.0000 0.14300  0.62600  0.74800  Biso   1.000  H
  H15      1.0000 0.14300  0.87400  0.24800  Biso   1.000  H
  H16      1.0000 0.85700  0.37400  0.25200  Biso   1.000  H
  H17      1.0000 0.78000  0.23300  0.83600  Biso   1.000  H
  H18      1.0000 0.22000  0.73300  0.66400  Biso   1.000  H
  H19      1.0000 0.22000  0.76700  0.16400  Biso   1.000  H
  H20      1.0000 0.78000  0.26700  0.33600  Biso   1.000  H
  H21      1.0000 0.02600  0.36500  0.88200  Biso   1.000  H
  H22      1.0000 0.97400  0.86500  0.61800  Biso   1.000  H
  H23      1.0000 0.97400  0.63500  0.11800  Biso   1.000  H
  H24      1.0000 0.02600  0.13500  0.38200  Biso   1.000  H
  H25      1.0000 0.10300  0.26500  0.79200  Biso   1.000  H
  H26      1.0000 0.89700  0.76500  0.70800  Biso   1.000  H
  H27      1.0000 0.89700  0.73500  0.20800  Biso   1.000  H
  H28      1.0000 0.10300  0.23500  0.29200  Biso   1.000  H
  H29      1.0000 0.54400  0.14800  0.97400  Biso   1.000  H
  H30      1.0000 0.45600  0.64800  0.52600  Biso   1.000  H
  H31      1.0000 0.45600  0.85200  0.02600  Biso   1.000  H
  H32      1.0000 0.54400  0.35200  0.47400  Biso   1.000  H
  H33      1.0000 0.76800  0.62400  0.88700  Biso   1.000  H
  H34      1.0000 0.23200  0.12400  0.61300  Biso   1.000  H
  H35      1.0000 0.23200  0.37600  0.11300  Biso   1.000  H
  H36      1.0000 0.76800  0.87600  0.38700  Biso   1.000  H
  H37      1.0000 0.69200  0.56400  0.90600  Biso   1.000  H
  H38      1.0000 0.30800  0.06400  0.59400  Biso   1.000  H
  H39      1.0000 0.30800  0.43600  0.09400  Biso   1.000  H
  H40      1.0000 0.69200  0.93600  0.40600  Biso   1.000  H
  H41      1.0000 0.64600  0.86100  0.72900  Biso   1.000  H
  H42      1.0000 0.35400  0.36100  0.77100  Biso   1.000  H
  H43      1.0000 0.35400  0.13900  0.27100  Biso   1.000  H
  H44      1.0000 0.64600  0.63900  0.22900  Biso   1.000  H
  H45      1.0000 0.74900  0.74000  0.79400  Biso   1.000  H
  H46      1.0000 0.25100  0.24000  0.70600  Biso   1.000  H
  H47      1.0000 0.25100  0.26000  0.20600  Biso   1.000  H
  H48      1.0000 0.74900  0.76000  0.29400  Biso   1.000  H
  H49      1.0000 0.52100  0.60000  0.85900  Biso   1.000  H
  H50      1.0000 0.47900  0.10000  0.64100  Biso   1.000  H
  H51      1.0000 0.47900  0.40000  0.14100  Biso   1.000  H
  H52      1.0000 0.52100  0.90000  0.35900  Biso   1.000  H
  H53      1.0000 0.41600  0.70700  0.78700  Biso   1.000  H
  H54      1.0000 0.58400  0.20700  0.71300  Biso   1.000  H
  H55      1.0000 0.58400  0.29300  0.21300  Biso   1.000  H
  H56      1.0000 0.41600  0.79300  0.28700  Biso   1.000  H
  H57      1.0000 0.27000  0.78700  0.96800  Biso   1.000  H
  H58      1.0000 0.73000  0.28700  0.53200  Biso   1.000  H
  H59      1.0000 0.73000  0.21300  0.03200  Biso   1.000  H
  H60      1.0000 0.27000  0.71300  0.46800  Biso   1.000  H
  H61      1.0000 0.24200  0.73900  0.88000  Biso   1.000  H
  H62      1.0000 0.75800  0.23900  0.62000  Biso   1.000  H
  H63      1.0000 0.75800  0.26100  0.12000  Biso   1.000  H
  H64      1.0000 0.24200  0.76100  0.38000  Biso   1.000  H
  H65      1.0000 0.31000  0.82300  0.87200  Biso   1.000  H
  H66      1.0000 0.69000  0.32300  0.62800  Biso   1.000  H
  H67      1.0000 0.69000  0.17700  0.12800  Biso   1.000  H
  H68      1.0000 0.31000  0.67700  0.37200  Biso   1.000  H
  H69      1.0000 0.88900  0.94000  0.96200  Biso   1.000  H
  H70      1.0000 0.11100  0.44000  0.53800  Biso   1.000  H
  H71      1.0000 0.11100  0.06000  0.03800  Biso   1.000  H
  H72      1.0000 0.88900  0.56000  0.46200  Biso   1.000  H
  H73      1.0000 0.91800  0.85900  0.99100  Biso   1.000  H
  H74      1.0000 0.08200  0.35900  0.50900  Biso   1.000  H
  H75      1.0000 0.08200  0.14100  0.00900  Biso   1.000  H
  H76      1.0000 0.91800  0.64100  0.49100  Biso   1.000  H
  H77      1.0000 0.86700  0.85100  0.91300  Biso   1.000  H
  H78      1.0000 0.13300  0.35100  0.58700  Biso   1.000  H
  H79      1.0000 0.13300  0.14900  0.08700  Biso   1.000  H
  H80      1.0000 0.86700  0.64900  0.41300  Biso   1.000  H
  H81      1.0000 0.38500  0.23000  0.97000  Biso   1.000  H
  H82      1.0000 0.61500  0.73000  0.53000  Biso   1.000  H
  H83      1.0000 0.61500  0.77000  0.03000  Biso   1.000  H
  H84      1.0000 0.38500  0.27000  0.47000  Biso   1.000  H
  H85      1.0000 0.35700  0.16300  0.03700  Biso   1.000  H
  H86      1.0000 0.64300  0.66300  0.46300  Biso   1.000  H
  H87      1.0000 0.64300  0.83700  0.96300  Biso   1.000  H
  H88      1.0000 0.35700  0.33700  0.53700  Biso   1.000  H
  H89      1.0000 0.30200  0.17600  0.93300  Biso   1.000  H
  H90      1.0000 0.69800  0.67600  0.56700  Biso   1.000  H
  H91      1.0000 0.69800  0.82400  0.06700  Biso   1.000  H
  H92      1.0000 0.30200  0.32400  0.43300  Biso   1.000  H
  H93      1.0000 0.70200  0.02500  0.97000  Biso   1.000  H
  H94      1.0000 0.29800  0.52500  0.53000  Biso   1.000  H
  H95      1.0000 0.29800  0.97500  0.03000  Biso   1.000  H
  H96      1.0000 0.70200  0.47500  0.47000  Biso   1.000  H
  H97      1.0000 0.70400  0.09500  0.89600  Biso   1.000  H
  H98      1.0000 0.29600  0.59500  0.60400  Biso   1.000  H
  H99      1.0000 0.29600  0.90500  0.10400  Biso   1.000  H
  H100     1.0000 0.70400  0.40500  0.39600  Biso   1.000  H
  H101     1.0000 0.70600  0.99400  0.86900  Biso   1.000  H
  H102     1.0000 0.29400  0.49400  0.63100  Biso   1.000  H
  H103     1.0000 0.29400  0.00600  0.13100  Biso   1.000  H
  H104     1.0000 0.70600  0.50600  0.36900  Biso   1.000  H
