data_image0
_cell_length_a       13.39
_cell_length_b       9.643
_cell_length_c       15.34
_cell_angle_alpha    90
_cell_angle_beta     99.263
_cell_angle_gamma    90

_symmetry_space_group_name_H-M    "P 1"
_symmetry_int_tables_number       1

loop_
  _symmetry_equiv_pos_as_xyz
  'x, y, z'

loop_
  _atom_site_label
  _atom_site_occupancy
  _atom_site_fract_x
  _atom_site_fract_y
  _atom_site_fract_z
  _atom_site_thermal_displace_type
  _atom_site_B_iso_or_equiv
  _atom_site_type_symbol
  Cu1      1.0000 0.54910  0.93616  0.07273  Biso   1.000  Cu
  Cu2      1.0000 0.45090  0.43616  0.42727  Biso   1.000  Cu
  Cu3      1.0000 0.45090  0.06384  0.92727  Biso   1.000  Cu
  Cu4      1.0000 0.54910  0.56384  0.57273  Biso   1.000  Cu
  O1       1.0000 0.49430  0.08880  0.13740  Biso   1.000  O
  O2       1.0000 0.50570  0.58880  0.36260  Biso   1.000  O
  O3       1.0000 0.50570  0.91120  0.86260  Biso   1.000  O
  O4       1.0000 0.49430  0.41120  0.63740  Biso   1.000  O
  O5       1.0000 0.34180  0.94010  0.95020  Biso   1.000  O
  O6       1.0000 0.65820  0.44010  0.54980  Biso   1.000  O
  O7       1.0000 0.65820  0.05990  0.04980  Biso   1.000  O
  O8       1.0000 0.34180  0.55990  0.45020  Biso   1.000  O
  O9       1.0000 0.41300  0.19490  0.01450  Biso   1.000  O
  O10      1.0000 0.58700  0.69490  0.48550  Biso   1.000  O
  O11      1.0000 0.58700  0.80510  0.98550  Biso   1.000  O
  O12      1.0000 0.41300  0.30510  0.51450  Biso   1.000  O
  O13      1.0000 0.42030  0.83890  0.07420  Biso   1.000  O
  O14      1.0000 0.57970  0.33890  0.42580  Biso   1.000  O
  O15      1.0000 0.57970  0.16110  0.92580  Biso   1.000  O
  O16      1.0000 0.42030  0.66110  0.57420  Biso   1.000  O
  O17      1.0000 0.15730  0.49000  0.14250  Biso   1.000  O
  O18      1.0000 0.84270  0.99000  0.35750  Biso   1.000  O
  O19      1.0000 0.84270  0.51000  0.85750  Biso   1.000  O
  O20      1.0000 0.15730  0.01000  0.64250  Biso   1.000  O
  O21      1.0000 0.10100  0.98680  0.86010  Biso   1.000  O
  O22      1.0000 0.89900  0.48680  0.63990  Biso   1.000  O
  O23      1.0000 0.89900  0.01320  0.13990  Biso   1.000  O
  O24      1.0000 0.10100  0.51320  0.36010  Biso   1.000  O
  O25      1.0000 0.17010  0.09130  0.98550  Biso   1.000  O
  O26      1.0000 0.82990  0.59130  0.51450  Biso   1.000  O
  O27      1.0000 0.82990  0.90870  0.01450  Biso   1.000  O
  O28      1.0000 0.17010  0.40870  0.48550  Biso   1.000  O
  H1       1.0000 0.18600  0.15250  0.95330  Biso   1.000  H
  H2       1.0000 0.81400  0.65250  0.54670  Biso   1.000  H
  H3       1.0000 0.81400  0.84750  0.04670  Biso   1.000  H
  H4       1.0000 0.18600  0.34750  0.45330  Biso   1.000  H
  N1       1.0000 0.37350  0.36630  0.29710  Biso   1.000  N
  N2       1.0000 0.62650  0.86630  0.20290  Biso   1.000  N
  N3       1.0000 0.62650  0.63370  0.70290  Biso   1.000  N
  N4       1.0000 0.37350  0.13370  0.79710  Biso   1.000  N
  C1       1.0000 0.43410  0.17820  0.09590  Biso   1.000  C
  C2       1.0000 0.56590  0.67820  0.40410  Biso   1.000  C
  C3       1.0000 0.56590  0.82180  0.90410  Biso   1.000  C
  C4       1.0000 0.43410  0.32180  0.59590  Biso   1.000  C
  C5       1.0000 0.06700  0.65660  0.04780  Biso   1.000  C
  C6       1.0000 0.93300  0.15660  0.45220  Biso   1.000  C
  C7       1.0000 0.93300  0.34340  0.95220  Biso   1.000  C
  C8       1.0000 0.06700  0.84340  0.54780  Biso   1.000  C
  H5       1.0000 0.00760  0.60920  0.05240  Biso   1.000  H
  H6       1.0000 0.99240  0.10920  0.44760  Biso   1.000  H
  H7       1.0000 0.99240  0.39080  0.94760  Biso   1.000  H
  H8       1.0000 0.00760  0.89080  0.55240  Biso   1.000  H
  C9       1.0000 0.38470  0.27290  0.15440  Biso   1.000  C
  C10      1.0000 0.61530  0.77290  0.34560  Biso   1.000  C
  C11      1.0000 0.61530  0.72710  0.84560  Biso   1.000  C
  C12      1.0000 0.38470  0.22710  0.65440  Biso   1.000  C
  C13      1.0000 0.41980  0.28590  0.24440  Biso   1.000  C
  C14      1.0000 0.58020  0.78590  0.25560  Biso   1.000  C
  C15      1.0000 0.58020  0.71410  0.75560  Biso   1.000  C
  C16      1.0000 0.41980  0.21410  0.74440  Biso   1.000  C
  H9       1.0000 0.47740  0.23710  0.26900  Biso   1.000  H
  H10      1.0000 0.52260  0.73710  0.23100  Biso   1.000  H
  H11      1.0000 0.52260  0.76290  0.73100  Biso   1.000  H
  H12      1.0000 0.47740  0.26290  0.76900  Biso   1.000  H
  C17      1.0000 0.28790  0.43400  0.26180  Biso   1.000  C
  C18      1.0000 0.71210  0.93400  0.23820  Biso   1.000  C
  C19      1.0000 0.71210  0.56600  0.73820  Biso   1.000  C
  C20      1.0000 0.28790  0.06600  0.76180  Biso   1.000  C
  H13      1.0000 0.25480  0.48900  0.29790  Biso   1.000  H
  H14      1.0000 0.74520  0.98900  0.20210  Biso   1.000  H
  H15      1.0000 0.74520  0.51100  0.70210  Biso   1.000  H
  H16      1.0000 0.25480  0.01100  0.79790  Biso   1.000  H
  C21      1.0000 0.24910  0.42280  0.17350  Biso   1.000  C
  C22      1.0000 0.75090  0.92280  0.32650  Biso   1.000  C
  C23      1.0000 0.75090  0.57720  0.82650  Biso   1.000  C
  C24      1.0000 0.24910  0.07720  0.67350  Biso   1.000  C
  C25      1.0000 0.29680  0.34470  0.11810  Biso   1.000  C
  C26      1.0000 0.70320  0.84470  0.38190  Biso   1.000  C
  C27      1.0000 0.70320  0.65530  0.88190  Biso   1.000  C
  C28      1.0000 0.29680  0.15530  0.61810  Biso   1.000  C
  H17      1.0000 0.27170  0.33950  0.05810  Biso   1.000  H
  H18      1.0000 0.72830  0.83950  0.44190  Biso   1.000  H
  H19      1.0000 0.72830  0.66050  0.94190  Biso   1.000  H
  H20      1.0000 0.27170  0.16050  0.55810  Biso   1.000  H
  C29      1.0000 0.15930  0.60830  0.08950  Biso   1.000  C
  C30      1.0000 0.84070  0.10830  0.41050  Biso   1.000  C
  C31      1.0000 0.84070  0.39170  0.91050  Biso   1.000  C
  C32      1.0000 0.15930  0.89170  0.58950  Biso   1.000  C
  C33      1.0000 0.24830  0.67500  0.08010  Biso   1.000  C
  C34      1.0000 0.75170  0.17500  0.41990  Biso   1.000  C
  C35      1.0000 0.75170  0.32500  0.91990  Biso   1.000  C
  C36      1.0000 0.24830  0.82500  0.58010  Biso   1.000  C
  H21      1.0000 0.31020  0.63980  0.10740  Biso   1.000  H
  H22      1.0000 0.68980  0.13980  0.39260  Biso   1.000  H
  H23      1.0000 0.68980  0.36020  0.89260  Biso   1.000  H
  H24      1.0000 0.31020  0.86020  0.60740  Biso   1.000  H
  C37      1.0000 0.24470  0.79530  0.02950  Biso   1.000  C
  C38      1.0000 0.75530  0.29530  0.47050  Biso   1.000  C
  C39      1.0000 0.75530  0.20470  0.97050  Biso   1.000  C
  C40      1.0000 0.24470  0.70470  0.52950  Biso   1.000  C
  C41      1.0000 0.15120  0.84690  0.98870  Biso   1.000  C
  C42      1.0000 0.84880  0.34690  0.51130  Biso   1.000  C
  C43      1.0000 0.84880  0.15310  0.01130  Biso   1.000  C
  C44      1.0000 0.15120  0.65310  0.48870  Biso   1.000  C
  C45      1.0000 0.06490  0.77690  0.99900  Biso   1.000  C
  C46      1.0000 0.93510  0.27690  0.50100  Biso   1.000  C
  C47      1.0000 0.93510  0.22310  0.00100  Biso   1.000  C
  C48      1.0000 0.06490  0.72310  0.49900  Biso   1.000  C
  H25      1.0000 0.00280  0.81170  0.97210  Biso   1.000  H
  H26      1.0000 0.99720  0.31170  0.52790  Biso   1.000  H
  H27      1.0000 0.99720  0.18830  0.02790  Biso   1.000  H
  H28      1.0000 0.00280  0.68830  0.47210  Biso   1.000  H
  C49      1.0000 0.34230  0.86280  0.01710  Biso   1.000  C
  C50      1.0000 0.65770  0.36280  0.48290  Biso   1.000  C
  C51      1.0000 0.65770  0.13720  0.98290  Biso   1.000  C
  C52      1.0000 0.34230  0.63720  0.51710  Biso   1.000  C
  C53      1.0000 0.13980  0.98010  0.93740  Biso   1.000  C
  C54      1.0000 0.86020  0.48010  0.56260  Biso   1.000  C
  C55      1.0000 0.86020  0.01990  0.06260  Biso   1.000  C
  C56      1.0000 0.13980  0.51990  0.43740  Biso   1.000  C
  O29      1.0000 0.81010  0.65810  0.08710  Biso   1.000  O
  O30      1.0000 0.18990  0.15810  0.41290  Biso   1.000  O
  O31      1.0000 0.18990  0.34190  0.91290  Biso   1.000  O
  O32      1.0000 0.81010  0.84190  0.58710  Biso   1.000  O
  C57      1.0000 0.80620  0.58330  0.14970  Biso   1.000  C
  C58      1.0000 0.19380  0.08330  0.35030  Biso   1.000  C
  C59      1.0000 0.19380  0.41670  0.85030  Biso   1.000  C
  C60      1.0000 0.80620  0.91670  0.64970  Biso   1.000  C
  C61      1.0000 0.88080  0.56550  0.22590  Biso   1.000  C
  C62      1.0000 0.11920  0.06550  0.27410  Biso   1.000  C
  C63      1.0000 0.11920  0.43450  0.77410  Biso   1.000  C
  C64      1.0000 0.88080  0.93450  0.72590  Biso   1.000  C
  H29      1.0000 0.94400  0.53480  0.20890  Biso   1.000  H
  H30      1.0000 0.05600  0.03480  0.29110  Biso   1.000  H
  H31      1.0000 0.05600  0.46520  0.79110  Biso   1.000  H
  H32      1.0000 0.94400  0.96520  0.70890  Biso   1.000  H
  H33      1.0000 0.89290  0.65270  0.25730  Biso   1.000  H
  H34      1.0000 0.10710  0.15270  0.24270  Biso   1.000  H
  H35      1.0000 0.10710  0.34730  0.74270  Biso   1.000  H
  H36      1.0000 0.89290  0.84730  0.75730  Biso   1.000  H
  C65      1.0000 0.84480  0.46470  0.28070  Biso   1.000  C
  C66      1.0000 0.15520  0.96470  0.21930  Biso   1.000  C
  C67      1.0000 0.15520  0.53530  0.71930  Biso   1.000  C
  C68      1.0000 0.84480  0.03530  0.78070  Biso   1.000  C
  H37      1.0000 0.84000  0.50460  0.33790  Biso   1.000  H
  H38      1.0000 0.16000  0.00460  0.16210  Biso   1.000  H
  H39      1.0000 0.16000  0.49540  0.66210  Biso   1.000  H
  H40      1.0000 0.84000  0.99540  0.83790  Biso   1.000  H
  H41      1.0000 0.89100  0.38660  0.28950  Biso   1.000  H
  H42      1.0000 0.10900  0.88660  0.21050  Biso   1.000  H
  H43      1.0000 0.10900  0.61340  0.71050  Biso   1.000  H
  H44      1.0000 0.89100  0.11340  0.78950  Biso   1.000  H
  C69      1.0000 0.74800  0.42010  0.23850  Biso   1.000  C
  C70      1.0000 0.25200  0.92010  0.26150  Biso   1.000  C
  C71      1.0000 0.25200  0.57990  0.76150  Biso   1.000  C
  C72      1.0000 0.74800  0.07990  0.73850  Biso   1.000  C
  H45      1.0000 0.69760  0.43900  0.27580  Biso   1.000  H
  H46      1.0000 0.30240  0.93900  0.22420  Biso   1.000  H
  H47      1.0000 0.30240  0.56100  0.72420  Biso   1.000  H
  H48      1.0000 0.69760  0.06100  0.77580  Biso   1.000  H
  H49      1.0000 0.74870  0.32110  0.22740  Biso   1.000  H
  H50      1.0000 0.25130  0.82110  0.27260  Biso   1.000  H
  H51      1.0000 0.25130  0.67890  0.77260  Biso   1.000  H
  H52      1.0000 0.74870  0.17890  0.72740  Biso   1.000  H
  N5       1.0000 0.72410  0.49340  0.15750  Biso   1.000  N
  N6       1.0000 0.27590  0.99340  0.34250  Biso   1.000  N
  N7       1.0000 0.27590  0.50660  0.84250  Biso   1.000  N
  N8       1.0000 0.72410  0.00660  0.65750  Biso   1.000  N
  C73      1.0000 0.63360  0.49830  0.10580  Biso   1.000  C
  C74      1.0000 0.36640  0.99830  0.39420  Biso   1.000  C
  C75      1.0000 0.36640  0.50170  0.89420  Biso   1.000  C
  C76      1.0000 0.63360  0.00170  0.60580  Biso   1.000  C
  H53      1.0000 0.62620  0.58550  0.07520  Biso   1.000  H
  H54      1.0000 0.37380  0.08550  0.42480  Biso   1.000  H
  H55      1.0000 0.37380  0.41450  0.92480  Biso   1.000  H
  H56      1.0000 0.62620  0.91450  0.57520  Biso   1.000  H
  H57      1.0000 0.58130  0.48900  0.14150  Biso   1.000  H
  H58      1.0000 0.41870  0.98900  0.35850  Biso   1.000  H
  H59      1.0000 0.41870  0.51100  0.85850  Biso   1.000  H
  H60      1.0000 0.58130  0.01100  0.64150  Biso   1.000  H
  H61      1.0000 0.62840  0.42410  0.06360  Biso   1.000  H
  H62      1.0000 0.37160  0.92410  0.43640  Biso   1.000  H
  H63      1.0000 0.37160  0.57590  0.93640  Biso   1.000  H
  H64      1.0000 0.62840  0.07590  0.56360  Biso   1.000  H
