data_image0
_cell_length_a       12.679
_cell_length_b       14.69
_cell_length_c       14.833
_cell_angle_alpha    69.37
_cell_angle_beta     82.05
_cell_angle_gamma    65.13

_symmetry_space_group_name_H-M    "P 1"
_symmetry_int_tables_number       1

loop_
  _symmetry_equiv_pos_as_xyz
  'x, y, z'

loop_
  _atom_site_label
  _atom_site_occupancy
  _atom_site_fract_x
  _atom_site_fract_y
  _atom_site_fract_z
  _atom_site_thermal_displace_type
  _atom_site_B_iso_or_equiv
  _atom_site_type_symbol
  Cu1      1.0000 0.40502  0.45832  0.46309  Biso   1.000  Cu
  Cu2      1.0000 0.59498  0.54168  0.53691  Biso   1.000  Cu
  Cu3      1.0000 0.08859  0.04876  0.02766  Biso   1.000  Cu
  Cu4      1.0000 0.91141  0.95124  0.97234  Biso   1.000  Cu
  O1       1.0000 0.51400  0.42390  0.36390  Biso   1.000  O
  O2       1.0000 0.48600  0.57610  0.63610  Biso   1.000  O
  O3       1.0000 0.49990  0.27240  0.38780  Biso   1.000  O
  O4       1.0000 0.50010  0.72760  0.61220  Biso   1.000  O
  O5       1.0000 0.96400  0.11450  0.10320  Biso   1.000  O
  O6       1.0000 0.03600  0.88550  0.89680  Biso   1.000  O
  O7       1.0000 0.98010  0.26850  0.04340  Biso   1.000  O
  O8       1.0000 0.01990  0.73150  0.95660  Biso   1.000  O
  O9       1.0000 0.53210  0.40010  0.55622  Biso   1.000  O
  O10      1.0000 0.46790  0.59990  0.44378  Biso   1.000  O
  O11      1.0000 0.51280  0.25200  0.61610  Biso   1.000  O
  O12      1.0000 0.48720  0.74800  0.38390  Biso   1.000  O
  O13      1.0000 0.97550  0.08950  0.92765  Biso   1.000  O
  O14      1.0000 0.02450  0.91050  0.07235  Biso   1.000  O
  O15      1.0000 0.04570  0.19500  0.81710  Biso   1.000  O
  O16      1.0000 0.95430  0.80500  0.18290  Biso   1.000  O
  O17      1.0000 0.43200  0.15170  0.31650  Biso   1.000  O
  O18      1.0000 0.56800  0.84830  0.68350  Biso   1.000  O
  O19      1.0000 0.42260  0.94520  0.47330  Biso   1.000  O
  O20      1.0000 0.57740  0.05480  0.52670  Biso   1.000  O
  O21      1.0000 0.22730  0.29710  0.17690  Biso   1.000  O
  O22      1.0000 0.77270  0.70290  0.82310  Biso   1.000  O
  O23      1.0000 0.02340  0.42010  0.09500  Biso   1.000  O
  O24      1.0000 0.97660  0.57990  0.90500  Biso   1.000  O
  N1       1.0000 0.27560  0.51190  0.55080  Biso   1.000  N
  N2       1.0000 0.72440  0.48810  0.44920  Biso   1.000  N
  N3       1.0000 0.85840  0.69690  0.55210  Biso   1.000  N
  N4       1.0000 0.14160  0.30310  0.44790  Biso   1.000  N
  N5       1.0000 0.84820  0.67440  0.37310  Biso   1.000  N
  N6       1.0000 0.15180  0.32560  0.62690  Biso   1.000  N
  N7       1.0000 0.26640  0.50180  0.37910  Biso   1.000  N
  N8       1.0000 0.73360  0.49820  0.62090  Biso   1.000  N
  N9       1.0000 0.23350  0.97290  0.96340  Biso   1.000  N
  N10      1.0000 0.76650  0.02710  0.03660  Biso   1.000  N
  N11      1.0000 0.65040  0.79740  0.00810  Biso   1.000  N
  N12      1.0000 0.34960  0.20260  0.99190  Biso   1.000  N
  N13      1.0000 0.62360  0.85170  0.17760  Biso   1.000  N
  N14      1.0000 0.37640  0.14830  0.82240  Biso   1.000  N
  N15      1.0000 0.20920  0.02000  0.12180  Biso   1.000  N
  N16      1.0000 0.79080  0.98000  0.87820  Biso   1.000  N
  C1       1.0000 0.54360  0.33540  0.34880  Biso   1.000  C
  C2       1.0000 0.45640  0.66460  0.65120  Biso   1.000  C
  C3       1.0000 0.63960  0.31280  0.27700  Biso   1.000  C
  C4       1.0000 0.36040  0.68720  0.72300  Biso   1.000  C
  C5       1.0000 0.64280  0.38670  0.18600  Biso   1.000  C
  C6       1.0000 0.35720  0.61330  0.81400  Biso   1.000  C
  C7       1.0000 0.55450  0.49050  0.15210  Biso   1.000  C
  C8       1.0000 0.44550  0.50950  0.84790  Biso   1.000  C
  H1       1.0000 0.49290  0.51220  0.19240  Biso   1.000  H
  H2       1.0000 0.50710  0.48780  0.80760  Biso   1.000  H
  C9       1.0000 0.55660  0.55860  0.06390  Biso   1.000  C
  C10      1.0000 0.44340  0.44140  0.93610  Biso   1.000  C
  H3       1.0000 0.49630  0.62560  0.04390  Biso   1.000  H
  H4       1.0000 0.50370  0.37440  0.95610  Biso   1.000  H
  C11      1.0000 0.64940  0.52910  0.00190  Biso   1.000  C
  C12      1.0000 0.35060  0.47090  0.99810  Biso   1.000  C
  H5       1.0000 0.65090  0.57670  0.94110  Biso   1.000  H
  H6       1.0000 0.34910  0.42330  0.05890  Biso   1.000  H
  C13      1.0000 0.73750  0.43030  0.03090  Biso   1.000  C
  C14      1.0000 0.26250  0.56970  0.96910  Biso   1.000  C
  H7       1.0000 0.79800  0.41150  0.98890  Biso   1.000  H
  H8       1.0000 0.20200  0.58850  0.01110  Biso   1.000  H
  C15      1.0000 0.73920  0.35550  0.12360  Biso   1.000  C
  C16      1.0000 0.26080  0.64450  0.87640  Biso   1.000  C
  C17      1.0000 0.82840  0.25140  0.15510  Biso   1.000  C
  C18      1.0000 0.17160  0.74860  0.84490  Biso   1.000  C
  C19      1.0000 0.82160  0.18380  0.24380  Biso   1.000  C
  C20      1.0000 0.17840  0.81620  0.75620  Biso   1.000  C
  H9       1.0000 0.88050  0.11610  0.26460  Biso   1.000  H
  H10      1.0000 0.11950  0.88390  0.73540  Biso   1.000  H
  C21      1.0000 0.72830  0.21330  0.30460  Biso   1.000  C
  C22      1.0000 0.27170  0.78670  0.69540  Biso   1.000  C
  H11      1.0000 0.72610  0.16480  0.36470  Biso   1.000  H
  H12      1.0000 0.27390  0.83520  0.63530  Biso   1.000  H
  C23      1.0000 0.93240  0.21090  0.09490  Biso   1.000  C
  C24      1.0000 0.06760  0.78910  0.90510  Biso   1.000  C
  C25      1.0000 0.56420  0.30750  0.61050  Biso   1.000  C
  C26      1.0000 0.43580  0.69250  0.38950  Biso   1.000  C
  C27      1.0000 0.67190  0.26600  0.67090  Biso   1.000  C
  C28      1.0000 0.32810  0.73400  0.32910  Biso   1.000  C
  C29      1.0000 0.78290  0.21410  0.63640  Biso   1.000  C
  C30      1.0000 0.21710  0.78590  0.36360  Biso   1.000  C
  C31      1.0000 0.79860  0.19580  0.54690  Biso   1.000  C
  C32      1.0000 0.20140  0.80420  0.45310  Biso   1.000  C
  H13      1.0000 0.73370  0.21810  0.50940  Biso   1.000  H
  H14      1.0000 0.26630  0.78190  0.49060  Biso   1.000  H
  C33      1.0000 0.90530  0.14670  0.51490  Biso   1.000  C
  C34      1.0000 0.09470  0.85330  0.48510  Biso   1.000  C
  H15      1.0000 0.91330  0.13560  0.45590  Biso   1.000  H
  H16      1.0000 0.08670  0.86440  0.54410  Biso   1.000  H
  C35      1.0000 0.00430  0.11240  0.57050  Biso   1.000  C
  C36      1.0000 0.99570  0.88760  0.42950  Biso   1.000  C
  H17      1.0000 0.07770  0.07790  0.54850  Biso   1.000  H
  H18      1.0000 0.92230  0.92210  0.45150  Biso   1.000  H
  C37      1.0000 0.99370  0.12910  0.65540  Biso   1.000  C
  C38      1.0000 0.00630  0.87090  0.34460  Biso   1.000  C
  H19      1.0000 0.06040  0.10670  0.69070  Biso   1.000  H
  H20      1.0000 0.93960  0.89330  0.30930  Biso   1.000  H
  C39      1.0000 0.88350  0.17990  0.69270  Biso   1.000  C
  C40      1.0000 0.11650  0.82010  0.30730  Biso   1.000  C
  C41      1.0000 0.86790  0.19580  0.78350  Biso   1.000  C
  C42      1.0000 0.13210  0.80420  0.21650  Biso   1.000  C
  C43      1.0000 0.75980  0.24260  0.81500  Biso   1.000  C
  C44      1.0000 0.24020  0.75740  0.18500  Biso   1.000  C
  H21      1.0000 0.75070  0.25000  0.87560  Biso   1.000  H
  H22      1.0000 0.24930  0.75000  0.12440  Biso   1.000  H
  C45      1.0000 0.66080  0.28010  0.75830  Biso   1.000  C
  C46      1.0000 0.33920  0.71990  0.24170  Biso   1.000  C
  H23      1.0000 0.58750  0.31460  0.78040  Biso   1.000  H
  H24      1.0000 0.41250  0.68540  0.21960  Biso   1.000  H
  C47      1.0000 0.97190  0.15840  0.84660  Biso   1.000  C
  C48      1.0000 0.02810  0.84160  0.15340  Biso   1.000  C
  C49      1.0000 0.28430  0.51140  0.63990  Biso   1.000  C
  C50      1.0000 0.71570  0.48860  0.36010  Biso   1.000  C
  H25      1.0000 0.35740  0.48080  0.66860  Biso   1.000  H
  H26      1.0000 0.64260  0.51920  0.33140  Biso   1.000  H
  C51      1.0000 0.18660  0.55570  0.69050  Biso   1.000  C
  C52      1.0000 0.81340  0.44430  0.30950  Biso   1.000  C
  H27      1.0000 0.19530  0.55340  0.75260  Biso   1.000  H
  H28      1.0000 0.80470  0.44660  0.24740  Biso   1.000  H
  C53      1.0000 0.07860  0.60220  0.65080  Biso   1.000  C
  C54      1.0000 0.92140  0.39780  0.34920  Biso   1.000  C
  H29      1.0000 0.01350  0.63270  0.68460  Biso   1.000  H
  H30      1.0000 0.98650  0.36730  0.31540  Biso   1.000  H
  C55      1.0000 0.06740  0.60340  0.55690  Biso   1.000  C
  C56      1.0000 0.93260  0.39660  0.44310  Biso   1.000  C
  C57      1.0000 0.16780  0.55700  0.51060  Biso   1.000  C
  C58      1.0000 0.83220  0.44300  0.48940  Biso   1.000  C
  C59      1.0000 0.95540  0.64840  0.50750  Biso   1.000  C
  C60      1.0000 0.04460  0.35160  0.49250  Biso   1.000  C
  C61      1.0000 0.75930  0.73370  0.50270  Biso   1.000  C
  C62      1.0000 0.24070  0.26630  0.49730  Biso   1.000  C
  H31      1.0000 0.68970  0.76970  0.52880  Biso   1.000  H
  H32      1.0000 0.31030  0.23030  0.47120  Biso   1.000  H
  C63      1.0000 0.75500  0.72130  0.41690  Biso   1.000  C
  C64      1.0000 0.24500  0.27870  0.58310  Biso   1.000  C
  H33      1.0000 0.68290  0.74710  0.38810  Biso   1.000  H
  H34      1.0000 0.31710  0.25290  0.61190  Biso   1.000  H
  C65      1.0000 0.95110  0.63820  0.41840  Biso   1.000  C
  C66      1.0000 0.04890  0.36180  0.58160  Biso   1.000  C
  C67      1.0000 0.05680  0.58680  0.37190  Biso   1.000  C
  C68      1.0000 0.94320  0.41320  0.62810  Biso   1.000  C
  C69      1.0000 0.16300  0.54950  0.41700  Biso   1.000  C
  C70      1.0000 0.83700  0.45050  0.58300  Biso   1.000  C
  C71      1.0000 0.05810  0.57220  0.28390  Biso   1.000  C
  C72      1.0000 0.94190  0.42780  0.71610  Biso   1.000  C
  H35      1.0000 0.98900  0.59660  0.25100  Biso   1.000  H
  H36      1.0000 0.01100  0.40340  0.74900  Biso   1.000  H
  C73      1.0000 0.16240  0.52150  0.24620  Biso   1.000  C
  C74      1.0000 0.83760  0.47850  0.75380  Biso   1.000  C
  H37      1.0000 0.16470  0.50980  0.18820  Biso   1.000  H
  H38      1.0000 0.83530  0.49020  0.81180  Biso   1.000  H
  C75      1.0000 0.26490  0.48770  0.29540  Biso   1.000  C
  C76      1.0000 0.73510  0.51230  0.70460  Biso   1.000  C
  H39      1.0000 0.33520  0.45390  0.26880  Biso   1.000  H
  H40      1.0000 0.66480  0.54610  0.73120  Biso   1.000  H
  C77      1.0000 0.24280  0.94830  0.88400  Biso   1.000  C
  C78      1.0000 0.75720  0.05170  0.11600  Biso   1.000  C
  H41      1.0000 0.17520  0.96800  0.85100  Biso   1.000  H
  H42      1.0000 0.82480  0.03200  0.14900  Biso   1.000  H
  C79      1.0000 0.34960  0.89410  0.84790  Biso   1.000  C
  C80      1.0000 0.65040  0.10590  0.15210  Biso   1.000  C
  H43      1.0000 0.35220  0.88130  0.79030  Biso   1.000  H
  H44      1.0000 0.64780  0.11870  0.20970  Biso   1.000  H
  C81      1.0000 0.44940  0.86010  0.89620  Biso   1.000  C
  C82      1.0000 0.55060  0.13990  0.10380  Biso   1.000  C
  H45      1.0000 0.52060  0.82260  0.87320  Biso   1.000  H
  H46      1.0000 0.47940  0.17740  0.12680  Biso   1.000  H
  C83      1.0000 0.44330  0.88240  0.98170  Biso   1.000  C
  C84      1.0000 0.55670  0.11760  0.01830  Biso   1.000  C
  C85      1.0000 0.33350  0.93950  0.01280  Biso   1.000  C
  C86      1.0000 0.66650  0.06050  0.98720  Biso   1.000  C
  C87      1.0000 0.54490  0.85090  0.03850  Biso   1.000  C
  C88      1.0000 0.45510  0.14910  0.96150  Biso   1.000  C
  C89      1.0000 0.73910  0.77120  0.06390  Biso   1.000  C
  C90      1.0000 0.26090  0.22880  0.93610  Biso   1.000  C
  H47      1.0000 0.81380  0.73370  0.04610  Biso   1.000  H
  H48      1.0000 0.18620  0.26630  0.95390  Biso   1.000  H
  C91      1.0000 0.72610  0.79600  0.14410  Biso   1.000  C
  C92      1.0000 0.27390  0.20400  0.85590  Biso   1.000  C
  H49      1.0000 0.79280  0.77320  0.17970  Biso   1.000  H
  H50      1.0000 0.20720  0.22680  0.82030  Biso   1.000  H
  C93      1.0000 0.53080  0.87870  0.12200  Biso   1.000  C
  C94      1.0000 0.46920  0.12130  0.87800  Biso   1.000  C
  C95      1.0000 0.41680  0.93870  0.15270  Biso   1.000  C
  C96      1.0000 0.58320  0.06130  0.84730  Biso   1.000  C
  C97      1.0000 0.32010  0.96710  0.09820  Biso   1.000  C
  C98      1.0000 0.67990  0.03290  0.90180  Biso   1.000  C
  C99      1.0000 0.39780  0.96760  0.23400  Biso   1.000  C
  C100     1.0000 0.60220  0.03240  0.76600  Biso   1.000  C
  H51      1.0000 0.46030  0.95140  0.27150  Biso   1.000  H
  H52      1.0000 0.53970  0.04860  0.72850  Biso   1.000  H
  C101     1.0000 0.28620  0.02030  0.25970  Biso   1.000  C
  C102     1.0000 0.71380  0.97970  0.74030  Biso   1.000  C
  H53      1.0000 0.27240  0.03920  0.31520  Biso   1.000  H
  H54      1.0000 0.72760  0.96080  0.68480  Biso   1.000  H
  C103     1.0000 0.19350  0.04540  0.20160  Biso   1.000  C
  C104     1.0000 0.80650  0.95460  0.79840  Biso   1.000  C
  H55      1.0000 0.11810  0.08110  0.21950  Biso   1.000  H
  H56      1.0000 0.88190  0.91890  0.78050  Biso   1.000  H
