data_image0
_cell_length_a       13.834
_cell_length_b       11.661
_cell_length_c       9.988
_cell_angle_alpha    90
_cell_angle_beta     99.86
_cell_angle_gamma    90

_symmetry_space_group_name_H-M    "P 1"
_symmetry_int_tables_number       1

loop_
  _symmetry_equiv_pos_as_xyz
  'x, y, z'

loop_
  _atom_site_label
  _atom_site_occupancy
  _atom_site_fract_x
  _atom_site_fract_y
  _atom_site_fract_z
  _atom_site_thermal_displace_type
  _atom_site_B_iso_or_equiv
  _atom_site_type_symbol
  Cu1      1.0000 0.82621  0.77042  0.15549  Biso   1.000  Cu
  Cu2      1.0000 0.17379  0.27042  0.34451  Biso   1.000  Cu
  Cu3      1.0000 0.17379  0.22958  0.84451  Biso   1.000  Cu
  Cu4      1.0000 0.82621  0.72958  0.65549  Biso   1.000  Cu
  O1       1.0000 0.49130  0.31310  0.25550  Biso   1.000  O
  O2       1.0000 0.50870  0.81310  0.24450  Biso   1.000  O
  O3       1.0000 0.50870  0.68690  0.74450  Biso   1.000  O
  O4       1.0000 0.49130  0.18690  0.75550  Biso   1.000  O
  O5       1.0000 0.60560  0.19050  0.30390  Biso   1.000  O
  O6       1.0000 0.39440  0.69050  0.19610  Biso   1.000  O
  O7       1.0000 0.39440  0.80950  0.69610  Biso   1.000  O
  O8       1.0000 0.60560  0.30950  0.80390  Biso   1.000  O
  O9       1.0000 0.84500  0.60520  0.14890  Biso   1.000  O
  O10      1.0000 0.15500  0.10520  0.35110  Biso   1.000  O
  O11      1.0000 0.15500  0.39480  0.85110  Biso   1.000  O
  O12      1.0000 0.84500  0.89480  0.64890  Biso   1.000  O
  O13      1.0000 0.94730  0.77530  0.29080  Biso   1.000  O
  O14      1.0000 0.05270  0.27530  0.20920  Biso   1.000  O
  O15      1.0000 0.05270  0.22470  0.70920  Biso   1.000  O
  O16      1.0000 0.94730  0.72470  0.79080  Biso   1.000  O
  O17      1.0000 0.86940  0.70330  0.44890  Biso   1.000  O
  O18      1.0000 0.13060  0.20330  0.05110  Biso   1.000  O
  O19      1.0000 0.13060  0.29670  0.55110  Biso   1.000  O
  O20      1.0000 0.86940  0.79670  0.94890  Biso   1.000  O
  N1       1.0000 0.68580  0.75160  0.07100  Biso   1.000  N
  N2       1.0000 0.31420  0.25160  0.42900  Biso   1.000  N
  N3       1.0000 0.31420  0.24840  0.92900  Biso   1.000  N
  N4       1.0000 0.68580  0.74840  0.57100  Biso   1.000  N
  N5       1.0000 0.81170  0.94670  0.18460  Biso   1.000  N
  N6       1.0000 0.18830  0.44670  0.31540  Biso   1.000  N
  N7       1.0000 0.18830  0.05330  0.81540  Biso   1.000  N
  N8       1.0000 0.81170  0.55330  0.68460  Biso   1.000  N
  N9       1.0000 0.57670  0.28500  0.26570  Biso   1.000  N
  N10      1.0000 0.42330  0.78500  0.23430  Biso   1.000  N
  N11      1.0000 0.42330  0.71500  0.73430  Biso   1.000  N
  N12      1.0000 0.57670  0.21500  0.76570  Biso   1.000  N
  C1       1.0000 0.67730  0.55400  0.14790  Biso   1.000  C
  C2       1.0000 0.32270  0.05400  0.35210  Biso   1.000  C
  C3       1.0000 0.32270  0.44600  0.85210  Biso   1.000  C
  C4       1.0000 0.67730  0.94600  0.64790  Biso   1.000  C
  C5       1.0000 0.78050  0.53260  0.17070  Biso   1.000  C
  C6       1.0000 0.21950  0.03260  0.32930  Biso   1.000  C
  C7       1.0000 0.21950  0.46740  0.82930  Biso   1.000  C
  C8       1.0000 0.78050  0.96740  0.67070  Biso   1.000  C
  C9       1.0000 0.81050  0.42000  0.21730  Biso   1.000  C
  C10      1.0000 0.18950  0.92000  0.28270  Biso   1.000  C
  C11      1.0000 0.18950  0.58000  0.78270  Biso   1.000  C
  C12      1.0000 0.81050  0.08000  0.71730  Biso   1.000  C
  H1       1.0000 0.87660  0.40060  0.22820  Biso   1.000  H
  H2       1.0000 0.12340  0.90060  0.27180  Biso   1.000  H
  H3       1.0000 0.12340  0.59940  0.77180  Biso   1.000  H
  H4       1.0000 0.87660  0.09940  0.72820  Biso   1.000  H
  C13      1.0000 0.74560  0.34070  0.24610  Biso   1.000  C
  C14      1.0000 0.25440  0.84070  0.25390  Biso   1.000  C
  C15      1.0000 0.25440  0.65930  0.75390  Biso   1.000  C
  C16      1.0000 0.74560  0.15930  0.74610  Biso   1.000  C
  H5       1.0000 0.76770  0.26880  0.27810  Biso   1.000  H
  H6       1.0000 0.23230  0.76880  0.22190  Biso   1.000  H
  H7       1.0000 0.23230  0.73120  0.72190  Biso   1.000  H
  H8       1.0000 0.76770  0.23120  0.77810  Biso   1.000  H
  C17      1.0000 0.64510  0.36670  0.22780  Biso   1.000  C
  C18      1.0000 0.35490  0.86670  0.27220  Biso   1.000  C
  C19      1.0000 0.35490  0.63330  0.77220  Biso   1.000  C
  C20      1.0000 0.64510  0.13330  0.72780  Biso   1.000  C
  C21      1.0000 0.61220  0.47190  0.17880  Biso   1.000  C
  C22      1.0000 0.38780  0.97190  0.32120  Biso   1.000  C
  C23      1.0000 0.38780  0.52810  0.82120  Biso   1.000  C
  C24      1.0000 0.61220  0.02810  0.67880  Biso   1.000  C
  H9       1.0000 0.54550  0.48840  0.16610  Biso   1.000  H
  H10      1.0000 0.45450  0.98840  0.33390  Biso   1.000  H
  H11      1.0000 0.45450  0.51160  0.83390  Biso   1.000  H
  H12      1.0000 0.54550  0.01160  0.66610  Biso   1.000  H
  C25      1.0000 0.63810  0.66000  0.08650  Biso   1.000  C
  C26      1.0000 0.36190  0.16000  0.41350  Biso   1.000  C
  C27      1.0000 0.36190  0.34000  0.91350  Biso   1.000  C
  C28      1.0000 0.63810  0.84000  0.58650  Biso   1.000  C
  H13      1.0000 0.57080  0.66190  0.05470  Biso   1.000  H
  H14      1.0000 0.42920  0.16190  0.44530  Biso   1.000  H
  H15      1.0000 0.42920  0.33810  0.94530  Biso   1.000  H
  H16      1.0000 0.57080  0.83810  0.55470  Biso   1.000  H
  C29      1.0000 0.63310  0.84170  0.98560  Biso   1.000  C
  C30      1.0000 0.36690  0.34170  0.51440  Biso   1.000  C
  C31      1.0000 0.36690  0.15830  0.01440  Biso   1.000  C
  C32      1.0000 0.63310  0.65830  0.48560  Biso   1.000  C
  H17      1.0000 0.56440  0.82070  0.96380  Biso   1.000  H
  H18      1.0000 0.43560  0.32070  0.53620  Biso   1.000  H
  H19      1.0000 0.43560  0.17930  0.03620  Biso   1.000  H
  H20      1.0000 0.56440  0.67930  0.46380  Biso   1.000  H
  H21      1.0000 0.65850  0.84530  0.90090  Biso   1.000  H
  H22      1.0000 0.34150  0.34530  0.59910  Biso   1.000  H
  H23      1.0000 0.34150  0.15470  0.09910  Biso   1.000  H
  H24      1.0000 0.65850  0.65470  0.40090  Biso   1.000  H
  C33      1.0000 0.64080  0.95770  0.04890  Biso   1.000  C
  C34      1.0000 0.35920  0.45770  0.45110  Biso   1.000  C
  C35      1.0000 0.35920  0.04230  0.95110  Biso   1.000  C
  C36      1.0000 0.64080  0.54230  0.54890  Biso   1.000  C
  H25      1.0000 0.61700  0.95390  0.13470  Biso   1.000  H
  H26      1.0000 0.38300  0.45390  0.36530  Biso   1.000  H
  H27      1.0000 0.38300  0.04610  0.86530  Biso   1.000  H
  H28      1.0000 0.61700  0.54610  0.63470  Biso   1.000  H
  H29      1.0000 0.59860  0.01020  0.99010  Biso   1.000  H
  H30      1.0000 0.40140  0.51020  0.50990  Biso   1.000  H
  H31      1.0000 0.40140  0.98980  0.00990  Biso   1.000  H
  H32      1.0000 0.59860  0.48980  0.49010  Biso   1.000  H
  C37      1.0000 0.74380  0.00500  0.07420  Biso   1.000  C
  C38      1.0000 0.25620  0.50500  0.42580  Biso   1.000  C
  C39      1.0000 0.25620  0.99500  0.92580  Biso   1.000  C
  C40      1.0000 0.74380  0.49500  0.57420  Biso   1.000  C
  H33      1.0000 0.77060  0.99910  0.99080  Biso   1.000  H
  H34      1.0000 0.22940  0.49910  0.50920  Biso   1.000  H
  H35      1.0000 0.22940  0.00090  0.00920  Biso   1.000  H
  H36      1.0000 0.77060  0.50090  0.49080  Biso   1.000  H
  H37      1.0000 0.74100  0.08580  0.09640  Biso   1.000  H
  H38      1.0000 0.25900  0.58580  0.40360  Biso   1.000  H
  H39      1.0000 0.25900  0.91420  0.90360  Biso   1.000  H
  H40      1.0000 0.74100  0.41420  0.59640  Biso   1.000  H
  C41      1.0000 0.77850  0.96360  0.31600  Biso   1.000  C
  C42      1.0000 0.22150  0.46360  0.18400  Biso   1.000  C
  C43      1.0000 0.22150  0.03640  0.68400  Biso   1.000  C
  C44      1.0000 0.77850  0.53640  0.81600  Biso   1.000  C
  H41      1.0000 0.77020  0.04400  0.33110  Biso   1.000  H
  H42      1.0000 0.22980  0.54400  0.16890  Biso   1.000  H
  H43      1.0000 0.22980  0.95600  0.66890  Biso   1.000  H
  H44      1.0000 0.77020  0.45600  0.83110  Biso   1.000  H
  H45      1.0000 0.82660  0.93290  0.38780  Biso   1.000  H
  H46      1.0000 0.17340  0.43290  0.11220  Biso   1.000  H
  H47      1.0000 0.17340  0.06710  0.61220  Biso   1.000  H
  H48      1.0000 0.82660  0.56710  0.88780  Biso   1.000  H
  H49      1.0000 0.71720  0.92480  0.31470  Biso   1.000  H
  H50      1.0000 0.28280  0.42480  0.18530  Biso   1.000  H
  H51      1.0000 0.28280  0.07520  0.68530  Biso   1.000  H
  H52      1.0000 0.71720  0.57520  0.81470  Biso   1.000  H
  C45      1.0000 0.90850  0.00480  0.19150  Biso   1.000  C
  C46      1.0000 0.09150  0.50480  0.30850  Biso   1.000  C
  C47      1.0000 0.09150  0.99520  0.80850  Biso   1.000  C
  C48      1.0000 0.90850  0.49520  0.69150  Biso   1.000  C
  H53      1.0000 0.90200  0.08460  0.21190  Biso   1.000  H
  H54      1.0000 0.09800  0.58460  0.28810  Biso   1.000  H
  H55      1.0000 0.09800  0.91540  0.78810  Biso   1.000  H
  H56      1.0000 0.90200  0.41540  0.71190  Biso   1.000  H
  H57      1.0000 0.93030  0.99720  0.10570  Biso   1.000  H
  H58      1.0000 0.06970  0.49720  0.39430  Biso   1.000  H
  H59      1.0000 0.06970  0.00280  0.89430  Biso   1.000  H
  H60      1.0000 0.93030  0.50280  0.60570  Biso   1.000  H
  H61      1.0000 0.95560  0.97000  0.26150  Biso   1.000  H
  H62      1.0000 0.04440  0.47000  0.23850  Biso   1.000  H
  H63      1.0000 0.04440  0.03000  0.73850  Biso   1.000  H
  H64      1.0000 0.95560  0.53000  0.76150  Biso   1.000  H
  C49      1.0000 0.03670  0.75950  0.50950  Biso   1.000  C
  C50      1.0000 0.96330  0.25950  0.99050  Biso   1.000  C
  C51      1.0000 0.96330  0.24050  0.49050  Biso   1.000  C
  C52      1.0000 0.03670  0.74050  0.00950  Biso   1.000  C
  H65      1.0000 0.03490  0.83210  0.55450  Biso   1.000  H
  H66      1.0000 0.96510  0.33210  0.94550  Biso   1.000  H
  H67      1.0000 0.96510  0.16790  0.44550  Biso   1.000  H
  H68      1.0000 0.03490  0.66790  0.05450  Biso   1.000  H
  H69      1.0000 0.09140  0.75810  0.46190  Biso   1.000  H
  H70      1.0000 0.90860  0.25810  0.03810  Biso   1.000  H
  H71      1.0000 0.90860  0.24190  0.53810  Biso   1.000  H
  H72      1.0000 0.09140  0.74190  0.96190  Biso   1.000  H
  H73      1.0000 0.04370  0.69900  0.57570  Biso   1.000  H
  H74      1.0000 0.95630  0.19900  0.92430  Biso   1.000  H
  H75      1.0000 0.95630  0.30100  0.42430  Biso   1.000  H
  H76      1.0000 0.04370  0.80100  0.07570  Biso   1.000  H
  C53      1.0000 0.94320  0.74290  0.41030  Biso   1.000  C
  C54      1.0000 0.05680  0.24290  0.08970  Biso   1.000  C
  C55      1.0000 0.05680  0.25710  0.58970  Biso   1.000  C
  C56      1.0000 0.94320  0.75710  0.91030  Biso   1.000  C
