data_image0
_cell_length_a       13.669
_cell_length_b       11.311
_cell_length_c       12.763
_cell_angle_alpha    90
_cell_angle_beta     93.115
_cell_angle_gamma    90

_symmetry_space_group_name_H-M    "P 1"
_symmetry_int_tables_number       1

loop_
  _symmetry_equiv_pos_as_xyz
  'x, y, z'

loop_
  _atom_site_label
  _atom_site_occupancy
  _atom_site_fract_x
  _atom_site_fract_y
  _atom_site_fract_z
  _atom_site_thermal_displace_type
  _atom_site_B_iso_or_equiv
  _atom_site_type_symbol
  Cu1      1.0000 0.95840  0.78258  0.73009  Biso   1.000  Cu
  Cu2      1.0000 0.04160  0.28258  0.76991  Biso   1.000  Cu
  Cu3      1.0000 0.04160  0.21742  0.26991  Biso   1.000  Cu
  Cu4      1.0000 0.95840  0.71742  0.23009  Biso   1.000  Cu
  C1       1.0000 0.16810  0.69840  0.78350  Biso   1.000  C
  C2       1.0000 0.83190  0.19840  0.71650  Biso   1.000  C
  C3       1.0000 0.83190  0.30160  0.21650  Biso   1.000  C
  C4       1.0000 0.16810  0.80160  0.28350  Biso   1.000  C
  H1       1.0000 0.16256  0.64215  0.73036  Biso   1.000  H
  H2       1.0000 0.83744  0.14215  0.76964  Biso   1.000  H
  H3       1.0000 0.83744  0.35785  0.26964  Biso   1.000  H
  H4       1.0000 0.16256  0.85785  0.23036  Biso   1.000  H
  C5       1.0000 0.13080  0.83580  0.88640  Biso   1.000  C
  C6       1.0000 0.86920  0.33580  0.61360  Biso   1.000  C
  C7       1.0000 0.86920  0.16420  0.11360  Biso   1.000  C
  C8       1.0000 0.13080  0.66420  0.38640  Biso   1.000  C
  H5       1.0000 0.09757  0.89410  0.92155  Biso   1.000  H
  H6       1.0000 0.90243  0.39410  0.57845  Biso   1.000  H
  H7       1.0000 0.90243  0.10590  0.07845  Biso   1.000  H
  H8       1.0000 0.09757  0.60590  0.42155  Biso   1.000  H
  C9       1.0000 0.80580  0.86730  0.56170  Biso   1.000  C
  C10      1.0000 0.19420  0.36730  0.93830  Biso   1.000  C
  C11      1.0000 0.19420  0.13270  0.43830  Biso   1.000  C
  C12      1.0000 0.80580  0.63270  0.06170  Biso   1.000  C
  H9       1.0000 0.85140  0.89539  0.51624  Biso   1.000  H
  H10      1.0000 0.14860  0.39539  0.98376  Biso   1.000  H
  H11      1.0000 0.14860  0.10461  0.48376  Biso   1.000  H
  H12      1.0000 0.85140  0.60461  0.01624  Biso   1.000  H
  C13      1.0000 0.73810  0.79430  0.69190  Biso   1.000  C
  C14      1.0000 0.26190  0.29430  0.80810  Biso   1.000  C
  C15      1.0000 0.26190  0.20570  0.30810  Biso   1.000  C
  C16      1.0000 0.73810  0.70570  0.19190  Biso   1.000  C
  H13      1.0000 0.73055  0.76119  0.75763  Biso   1.000  H
  H14      1.0000 0.26945  0.26119  0.74237  Biso   1.000  H
  H15      1.0000 0.26945  0.23881  0.24237  Biso   1.000  H
  H16      1.0000 0.73055  0.73881  0.25763  Biso   1.000  H
  C17      1.0000 0.29300  0.85760  0.98270  Biso   1.000  C
  C18      1.0000 0.70700  0.35760  0.51730  Biso   1.000  C
  C19      1.0000 0.70700  0.14240  0.01730  Biso   1.000  C
  C20      1.0000 0.29300  0.64240  0.48270  Biso   1.000  C
  C21      1.0000 0.29830  0.97960  0.98550  Biso   1.000  C
  C22      1.0000 0.70170  0.47960  0.51450  Biso   1.000  C
  C23      1.0000 0.70170  0.02040  0.01450  Biso   1.000  C
  C24      1.0000 0.29830  0.52040  0.48550  Biso   1.000  C
  H17      1.0000 0.25848  0.02493  0.93984  Biso   1.000  H
  H18      1.0000 0.74152  0.52493  0.56016  Biso   1.000  H
  H19      1.0000 0.74152  0.97507  0.06016  Biso   1.000  H
  H20      1.0000 0.25848  0.47507  0.43984  Biso   1.000  H
  C25      1.0000 0.36370  0.03360  0.05730  Biso   1.000  C
  C26      1.0000 0.63630  0.53360  0.44270  Biso   1.000  C
  C27      1.0000 0.63630  0.96640  0.94270  Biso   1.000  C
  C28      1.0000 0.36370  0.46640  0.55730  Biso   1.000  C
  H21      1.0000 0.36682  0.11568  0.06064  Biso   1.000  H
  H22      1.0000 0.63318  0.61568  0.43936  Biso   1.000  H
  H23      1.0000 0.63318  0.88432  0.93936  Biso   1.000  H
  H24      1.0000 0.36682  0.38432  0.56064  Biso   1.000  H
  C29      1.0000 0.42450  0.96620  0.12410  Biso   1.000  C
  C30      1.0000 0.57550  0.46620  0.37590  Biso   1.000  C
  C31      1.0000 0.57550  0.03380  0.87590  Biso   1.000  C
  C32      1.0000 0.42450  0.53380  0.62410  Biso   1.000  C
  C33      1.0000 0.42070  0.84450  0.11930  Biso   1.000  C
  C34      1.0000 0.57930  0.34450  0.38070  Biso   1.000  C
  C35      1.0000 0.57930  0.15550  0.88070  Biso   1.000  C
  C36      1.0000 0.42070  0.65550  0.61930  Biso   1.000  C
  H25      1.0000 0.46278  0.79911  0.16258  Biso   1.000  H
  H26      1.0000 0.53722  0.29911  0.33742  Biso   1.000  H
  H27      1.0000 0.53722  0.20089  0.83742  Biso   1.000  H
  H28      1.0000 0.46278  0.70089  0.66258  Biso   1.000  H
  C37      1.0000 0.35340  0.79040  0.04910  Biso   1.000  C
  C38      1.0000 0.64660  0.29040  0.45090  Biso   1.000  C
  C39      1.0000 0.64660  0.20960  0.95090  Biso   1.000  C
  C40      1.0000 0.35340  0.70960  0.54910  Biso   1.000  C
  H29      1.0000 0.34905  0.70835  0.04692  Biso   1.000  H
  H30      1.0000 0.65095  0.20835  0.45308  Biso   1.000  H
  H31      1.0000 0.65095  0.29165  0.95308  Biso   1.000  H
  H32      1.0000 0.34905  0.79165  0.54692  Biso   1.000  H
  C41      1.0000 0.54110  0.98050  0.27480  Biso   1.000  C
  C42      1.0000 0.45890  0.48050  0.22520  Biso   1.000  C
  C43      1.0000 0.45890  0.01950  0.72520  Biso   1.000  C
  C44      1.0000 0.54110  0.51950  0.77480  Biso   1.000  C
  C45      1.0000 0.63880  0.00970  0.28660  Biso   1.000  C
  C46      1.0000 0.36120  0.50970  0.21340  Biso   1.000  C
  C47      1.0000 0.36120  0.99030  0.71340  Biso   1.000  C
  C48      1.0000 0.63880  0.49030  0.78660  Biso   1.000  C
  H33      1.0000 0.66767  0.05462  0.23565  Biso   1.000  H
  H34      1.0000 0.33233  0.55462  0.26435  Biso   1.000  H
  H35      1.0000 0.33233  0.94538  0.76435  Biso   1.000  H
  H36      1.0000 0.66767  0.44538  0.73565  Biso   1.000  H
  C49      1.0000 0.69460  0.97180  0.37550  Biso   1.000  C
  C50      1.0000 0.30540  0.47180  0.12450  Biso   1.000  C
  C51      1.0000 0.30540  0.02820  0.62450  Biso   1.000  C
  C52      1.0000 0.69460  0.52820  0.87550  Biso   1.000  C
  H37      1.0000 0.76025  0.99282  0.38468  Biso   1.000  H
  H38      1.0000 0.23975  0.49282  0.11532  Biso   1.000  H
  H39      1.0000 0.23975  0.00718  0.61532  Biso   1.000  H
  H40      1.0000 0.76025  0.50718  0.88468  Biso   1.000  H
  C53      1.0000 0.65180  0.90330  0.44900  Biso   1.000  C
  C54      1.0000 0.34820  0.40330  0.05100  Biso   1.000  C
  C55      1.0000 0.34820  0.09670  0.55100  Biso   1.000  C
  C56      1.0000 0.65180  0.59670  0.94900  Biso   1.000  C
  C57      1.0000 0.55410  0.87330  0.43700  Biso   1.000  C
  C58      1.0000 0.44590  0.37330  0.06300  Biso   1.000  C
  C59      1.0000 0.44590  0.12670  0.56300  Biso   1.000  C
  C60      1.0000 0.55410  0.62670  0.93700  Biso   1.000  C
  H41      1.0000 0.52529  0.82747  0.48736  Biso   1.000  H
  H42      1.0000 0.47471  0.32747  0.01264  Biso   1.000  H
  H43      1.0000 0.47471  0.17253  0.51264  Biso   1.000  H
  H44      1.0000 0.52529  0.67253  0.98736  Biso   1.000  H
  C61      1.0000 0.49830  0.91260  0.34800  Biso   1.000  C
  C62      1.0000 0.50170  0.41260  0.15200  Biso   1.000  C
  C63      1.0000 0.50170  0.08740  0.65200  Biso   1.000  C
  C64      1.0000 0.49830  0.58740  0.84800  Biso   1.000  C
  H45      1.0000 0.43240  0.89247  0.33903  Biso   1.000  H
  H46      1.0000 0.56760  0.39247  0.16097  Biso   1.000  H
  H47      1.0000 0.56760  0.10753  0.66097  Biso   1.000  H
  H48      1.0000 0.43240  0.60753  0.83903  Biso   1.000  H
  C65      1.0000 0.05940  0.87640  0.56080  Biso   1.000  C
  C66      1.0000 0.94060  0.37640  0.93920  Biso   1.000  C
  C67      1.0000 0.94060  0.12360  0.43920  Biso   1.000  C
  C68      1.0000 0.05940  0.62360  0.06080  Biso   1.000  C
  H49      1.0000 0.08478  0.87174  0.49475  Biso   1.000  H
  H50      1.0000 0.91522  0.37174  0.00525  Biso   1.000  H
  H51      1.0000 0.91522  0.12826  0.50525  Biso   1.000  H
  H52      1.0000 0.08478  0.62826  0.99475  Biso   1.000  H
  C69      1.0000 0.89180  0.87180  0.91930  Biso   1.000  C
  C70      1.0000 0.10820  0.37180  0.58070  Biso   1.000  C
  C71      1.0000 0.10820  0.12820  0.08070  Biso   1.000  C
  C72      1.0000 0.89180  0.62820  0.41930  Biso   1.000  C
  H53      1.0000 0.86762  0.86337  0.98556  Biso   1.000  H
  H54      1.0000 0.13238  0.36337  0.51444  Biso   1.000  H
  H55      1.0000 0.13238  0.13663  0.01444  Biso   1.000  H
  H56      1.0000 0.86762  0.63663  0.48556  Biso   1.000  H
  N1       1.0000 0.09290  0.77190  0.80550  Biso   1.000  N
  N2       1.0000 0.90710  0.27190  0.69450  Biso   1.000  N
  N3       1.0000 0.90710  0.22810  0.19450  Biso   1.000  N
  N4       1.0000 0.09290  0.72810  0.30550  Biso   1.000  N
  N5       1.0000 0.22310  0.80300  0.90880  Biso   1.000  N
  N6       1.0000 0.77690  0.30300  0.59120  Biso   1.000  N
  N7       1.0000 0.77690  0.19700  0.09120  Biso   1.000  N
  N8       1.0000 0.22310  0.69700  0.40880  Biso   1.000  N
  N9       1.0000 0.24920  0.71250  0.84300  Biso   1.000  N
  N10      1.0000 0.75080  0.21250  0.65700  Biso   1.000  N
  N11      1.0000 0.75080  0.28750  0.15700  Biso   1.000  N
  N12      1.0000 0.24920  0.78750  0.34300  Biso   1.000  N
  N13      1.0000 0.70820  0.86470  0.54130  Biso   1.000  N
  N14      1.0000 0.29180  0.36470  0.95870  Biso   1.000  N
  N15      1.0000 0.29180  0.13530  0.45870  Biso   1.000  N
  N16      1.0000 0.70820  0.63530  0.04130  Biso   1.000  N
  N17      1.0000 0.66340  0.81640  0.62570  Biso   1.000  N
  N18      1.0000 0.33660  0.31640  0.87430  Biso   1.000  N
  N19      1.0000 0.33660  0.18360  0.37430  Biso   1.000  N
  N20      1.0000 0.66340  0.68360  0.12570  Biso   1.000  N
  N21      1.0000 0.82710  0.82350  0.65720  Biso   1.000  N
  N22      1.0000 0.17290  0.32350  0.84280  Biso   1.000  N
  N23      1.0000 0.17290  0.17650  0.34280  Biso   1.000  N
  N24      1.0000 0.82710  0.67650  0.15720  Biso   1.000  N
  O1       1.0000 0.01940  0.78340  0.59391  Biso   1.000  O
  O2       1.0000 0.98060  0.28340  0.90609  Biso   1.000  O
  O3       1.0000 0.98060  0.21660  0.40609  Biso   1.000  O
  O4       1.0000 0.01940  0.71660  0.09391  Biso   1.000  O
  O5       1.0000 0.06830  0.97140  0.60570  Biso   1.000  O
  O6       1.0000 0.93170  0.47140  0.89430  Biso   1.000  O
  O7       1.0000 0.93170  0.02860  0.39430  Biso   1.000  O
  O8       1.0000 0.06830  0.52860  0.10570  Biso   1.000  O
  O9       1.0000 0.89520  0.77790  0.86461  Biso   1.000  O
  O10      1.0000 0.10480  0.27790  0.63539  Biso   1.000  O
  O11      1.0000 0.10480  0.22210  0.13539  Biso   1.000  O
  O12      1.0000 0.89520  0.72210  0.36461  Biso   1.000  O
  O13      1.0000 0.91650  0.97170  0.89520  Biso   1.000  O
  O14      1.0000 0.08350  0.47170  0.60480  Biso   1.000  O
  O15      1.0000 0.08350  0.02830  0.10480  Biso   1.000  O
  O16      1.0000 0.91650  0.52830  0.39520  Biso   1.000  O
  O17      1.0000 0.49000  0.03070  0.18770  Biso   1.000  O
  O18      1.0000 0.51000  0.53070  0.31230  Biso   1.000  O
  O19      1.0000 0.51000  0.96930  0.81230  Biso   1.000  O
  O20      1.0000 0.49000  0.46930  0.68770  Biso   1.000  O
  O21      1.0000 0.93490  0.58840  0.70690  Biso   1.000  O
  O22      1.0000 0.06510  0.08840  0.79310  Biso   1.000  O
  O23      1.0000 0.06510  0.41160  0.29310  Biso   1.000  O
  O24      1.0000 0.93490  0.91160  0.20690  Biso   1.000  O
  H57      1.0000 0.96932  0.56442  0.65760  Biso   1.000  H
  H58      1.0000 0.03068  0.06442  0.84240  Biso   1.000  H
  H59      1.0000 0.03068  0.43558  0.34240  Biso   1.000  H
  H60      1.0000 0.96932  0.93558  0.15760  Biso   1.000  H
  H61      1.0000 0.95087  0.55304  0.76125  Biso   1.000  H
  H62      1.0000 0.04913  0.05304  0.73875  Biso   1.000  H
  H63      1.0000 0.04913  0.44696  0.23875  Biso   1.000  H
  H64      1.0000 0.95087  0.94696  0.26125  Biso   1.000  H
