data_image0
_cell_length_a       13.177
_cell_length_b       13.767
_cell_length_c       22.834
_cell_angle_alpha    87.494
_cell_angle_beta     78.53
_cell_angle_gamma    83.528

_symmetry_space_group_name_H-M    "P 1"
_symmetry_int_tables_number       1

loop_
  _symmetry_equiv_pos_as_xyz
  'x, y, z'

loop_
  _atom_site_label
  _atom_site_occupancy
  _atom_site_fract_x
  _atom_site_fract_y
  _atom_site_fract_z
  _atom_site_thermal_displace_type
  _atom_site_B_iso_or_equiv
  _atom_site_type_symbol
  Cu1      1.0000 0.10474  0.26058  0.23049  Biso   1.000  Cu
  Cu2      1.0000 0.89526  0.73942  0.76951  Biso   1.000  Cu
  Cu3      1.0000 0.59370  0.33877  0.22862  Biso   1.000  Cu
  Cu4      1.0000 0.40630  0.66123  0.77138  Biso   1.000  Cu
  Na1      1.0000 0.26250  0.14714  0.31478  Biso   1.000  Na
  Na2      1.0000 0.73750  0.85286  0.68522  Biso   1.000  Na
  Na3      1.0000 0.38946  0.34117  0.32819  Biso   1.000  Na
  Na4      1.0000 0.61054  0.65883  0.67181  Biso   1.000  Na
  Na5      1.0000 0.36522  0.28180  0.19609  Biso   1.000  Na
  Na6      1.0000 0.63478  0.71820  0.80391  Biso   1.000  Na
  Na7      1.0000 0.80120  0.21150  0.23295  Biso   1.000  Na
  Na8      1.0000 0.19880  0.78850  0.76705  Biso   1.000  Na
  Na9      1.0000 0.89920  0.39880  0.26709  Biso   1.000  Na
  Na10     1.0000 0.10080  0.60120  0.73291  Biso   1.000  Na
  O1       1.0000 0.55800  0.37890  0.31280  Biso   1.000  O
  O2       1.0000 0.44200  0.62110  0.68720  Biso   1.000  O
  C1       1.0000 0.64430  0.38880  0.32820  Biso   1.000  C
  C2       1.0000 0.35570  0.61120  0.67180  Biso   1.000  C
  O3       1.0000 0.72900  0.36920  0.29420  Biso   1.000  O
  O4       1.0000 0.27100  0.63080  0.70580  Biso   1.000  O
  C3       1.0000 0.63780  0.42400  0.39130  Biso   1.000  C
  C4       1.0000 0.36220  0.57600  0.60870  Biso   1.000  C
  C5       1.0000 0.59690  0.34600  0.43480  Biso   1.000  C
  C6       1.0000 0.40310  0.65400  0.56520  Biso   1.000  C
  H1       1.0000 0.52740  0.33450  0.42930  Biso   1.000  H
  H2       1.0000 0.47260  0.66550  0.57070  Biso   1.000  H
  H3       1.0000 0.59280  0.36730  0.47570  Biso   1.000  H
  H4       1.0000 0.40720  0.63270  0.52430  Biso   1.000  H
  H5       1.0000 0.64390  0.28540  0.42790  Biso   1.000  H
  H6       1.0000 0.35610  0.71460  0.57210  Biso   1.000  H
  C7       1.0000 0.74310  0.44280  0.40200  Biso   1.000  C
  C8       1.0000 0.25690  0.55720  0.59800  Biso   1.000  C
  H7       1.0000 0.79070  0.38240  0.39600  Biso   1.000  H
  H8       1.0000 0.20930  0.61760  0.60400  Biso   1.000  H
  H9       1.0000 0.73620  0.46440  0.44310  Biso   1.000  H
  H10      1.0000 0.26380  0.53560  0.55690  Biso   1.000  H
  H11      1.0000 0.77090  0.49370  0.37400  Biso   1.000  H
  H12      1.0000 0.22910  0.50630  0.62600  Biso   1.000  H
  C9       1.0000 0.56010  0.51700  0.40260  Biso   1.000  C
  C10      1.0000 0.43990  0.48300  0.59740  Biso   1.000  C
  H13      1.0000 0.49190  0.50320  0.39620  Biso   1.000  H
  H14      1.0000 0.50810  0.49680  0.60380  Biso   1.000  H
  H15      1.0000 0.58530  0.56950  0.37510  Biso   1.000  H
  H16      1.0000 0.41470  0.43050  0.62490  Biso   1.000  H
  H17      1.0000 0.55380  0.53740  0.44390  Biso   1.000  H
  H18      1.0000 0.44620  0.46260  0.55610  Biso   1.000  H
  O5       1.0000 0.28060  0.13560  0.20770  Biso   1.000  O
  O6       1.0000 0.71940  0.86440  0.79230  Biso   1.000  O
  C11      1.0000 0.21900  0.10640  0.17920  Biso   1.000  C
  C12      1.0000 0.78100  0.89360  0.82080  Biso   1.000  C
  O7       1.0000 0.12720  0.14480  0.18170  Biso   1.000  O
  O8       1.0000 0.87280  0.85520  0.81830  Biso   1.000  O
  C13      1.0000 0.25540  0.01960  0.13850  Biso   1.000  C
  C14      1.0000 0.74460  0.98040  0.86150  Biso   1.000  C
  C15      1.0000 0.18580  0.01700  0.09290  Biso   1.000  C
  C16      1.0000 0.81420  0.98300  0.90710  Biso   1.000  C
  H19      1.0000 0.21030  0.96040  0.06730  Biso   1.000  H
  H20      1.0000 0.78970  0.03960  0.93270  Biso   1.000  H
  H21      1.0000 0.18840  0.07710  0.06830  Biso   1.000  H
  H22      1.0000 0.81160  0.92290  0.93170  Biso   1.000  H
  H23      1.0000 0.11410  0.01170  0.11370  Biso   1.000  H
  H24      1.0000 0.88590  0.98830  0.88630  Biso   1.000  H
  C17      1.0000 0.36170  0.02250  0.10880  Biso   1.000  C
  C18      1.0000 0.63830  0.97750  0.89120  Biso   1.000  C
  H25      1.0000 0.40540  0.02530  0.13870  Biso   1.000  H
  H26      1.0000 0.59460  0.97470  0.86130  Biso   1.000  H
  H27      1.0000 0.36740  0.08060  0.08250  Biso   1.000  H
  H28      1.0000 0.63260  0.91940  0.91750  Biso   1.000  H
  H29      1.0000 0.38500  0.96360  0.08510  Biso   1.000  H
  H30      1.0000 0.61500  0.03640  0.91490  Biso   1.000  H
  C19      1.0000 0.24900  0.93050  0.17320  Biso   1.000  C
  C20      1.0000 0.75100  0.06950  0.82680  Biso   1.000  C
  H31      1.0000 0.28990  0.93130  0.20460  Biso   1.000  H
  H32      1.0000 0.71010  0.06870  0.79540  Biso   1.000  H
  H33      1.0000 0.27660  0.87490  0.14720  Biso   1.000  H
  H34      1.0000 0.72340  0.12510  0.85280  Biso   1.000  H
  H35      1.0000 0.17610  0.92420  0.19150  Biso   1.000  H
  H36      1.0000 0.82390  0.07580  0.80850  Biso   1.000  H
  O9       1.0000 0.68460  0.30300  0.14780  Biso   1.000  O
  O10      1.0000 0.31540  0.69700  0.85220  Biso   1.000  O
  C21      1.0000 0.62300  0.27400  0.11910  Biso   1.000  C
  C22      1.0000 0.37700  0.72600  0.88090  Biso   1.000  C
  O11      1.0000 0.52970  0.27130  0.14050  Biso   1.000  O
  O12      1.0000 0.47030  0.72870  0.85950  Biso   1.000  O
  C23      1.0000 0.66320  0.23910  0.05630  Biso   1.000  C
  C24      1.0000 0.33680  0.76090  0.94370  Biso   1.000  C
  C25      1.0000 0.73380  0.29300  0.02170  Biso   1.000  C
  C26      1.0000 0.26620  0.70700  0.97830  Biso   1.000  C
  H37      1.0000 0.75480  0.26450  0.98190  Biso   1.000  H
  H38      1.0000 0.24520  0.73550  0.01810  Biso   1.000  H
  H39      1.0000 0.79500  0.29220  0.04010  Biso   1.000  H
  H40      1.0000 0.20500  0.70780  0.95990  Biso   1.000  H
  H41      1.0000 0.70240  0.36020  0.01810  Biso   1.000  H
  H42      1.0000 0.29760  0.63980  0.98190  Biso   1.000  H
  C27      1.0000 0.58100  0.23300  0.02380  Biso   1.000  C
  C28      1.0000 0.41900  0.76700  0.97620  Biso   1.000  C
  H43      1.0000 0.61110  0.21090  0.98330  Biso   1.000  H
  H44      1.0000 0.38890  0.78910  0.01670  Biso   1.000  H
  H45      1.0000 0.54210  0.29780  0.02180  Biso   1.000  H
  H46      1.0000 0.45790  0.70220  0.97820  Biso   1.000  H
  H47      1.0000 0.53390  0.18680  0.04440  Biso   1.000  H
  H48      1.0000 0.46610  0.81320  0.95560  Biso   1.000  H
  C29      1.0000 0.70400  0.13770  0.06200  Biso   1.000  C
  C30      1.0000 0.29600  0.86230  0.93800  Biso   1.000  C
  H49      1.0000 0.73190  0.11130  0.02220  Biso   1.000  H
  H50      1.0000 0.26810  0.88870  0.97780  Biso   1.000  H
  H51      1.0000 0.64840  0.10000  0.08270  Biso   1.000  H
  H52      1.0000 0.35160  0.90000  0.91730  Biso   1.000  H
  H53      1.0000 0.76000  0.13340  0.08500  Biso   1.000  H
  H54      1.0000 0.24000  0.86660  0.91500  Biso   1.000  H
  O13      1.0000 0.25130  0.33650  0.13790  Biso   1.000  O
  O14      1.0000 0.74870  0.66350  0.86210  Biso   1.000  O
  C31      1.0000 0.16390  0.36100  0.12510  Biso   1.000  C
  C32      1.0000 0.83610  0.63900  0.87490  Biso   1.000  C
  O15      1.0000 0.07990  0.34440  0.15780  Biso   1.000  O
  O16      1.0000 0.92010  0.65560  0.84220  Biso   1.000  O
  C33      1.0000 0.15740  0.41210  0.06620  Biso   1.000  C
  C34      1.0000 0.84260  0.58790  0.93380  Biso   1.000  C
  C35      1.0000 0.09520  0.35160  0.03320  Biso   1.000  C
  C36      1.0000 0.90480  0.64840  0.96680  Biso   1.000  C
  H55      1.0000 0.02480  0.34900  0.05680  Biso   1.000  H
  H56      1.0000 0.97520  0.65100  0.94320  Biso   1.000  H
  H57      1.0000 0.13040  0.28510  0.02770  Biso   1.000  H
  H58      1.0000 0.86960  0.71490  0.97230  Biso   1.000  H
  H59      1.0000 0.09110  0.38230  0.99410  Biso   1.000  H
  H60      1.0000 0.90890  0.61770  0.00590  Biso   1.000  H
  C37      1.0000 0.26530  0.41430  0.02420  Biso   1.000  C
  C38      1.0000 0.73470  0.58570  0.97580  Biso   1.000  C
  H61      1.0000 0.29780  0.34720  0.01680  Biso   1.000  H
  H62      1.0000 0.70220  0.65280  0.98320  Biso   1.000  H
  H63      1.0000 0.30980  0.45030  0.04300  Biso   1.000  H
  H64      1.0000 0.69020  0.54970  0.95700  Biso   1.000  H
  H65      1.0000 0.25630  0.44670  0.98620  Biso   1.000  H
  H66      1.0000 0.74370  0.55330  0.01380  Biso   1.000  H
  C39      1.0000 0.10640  0.51440  0.07610  Biso   1.000  C
  C40      1.0000 0.89360  0.48560  0.92390  Biso   1.000  C
  H67      1.0000 0.03680  0.51290  0.10090  Biso   1.000  H
  H68      1.0000 0.96320  0.48710  0.89910  Biso   1.000  H
  H69      1.0000 0.10050  0.54620  0.03750  Biso   1.000  H
  H70      1.0000 0.89950  0.45380  0.96250  Biso   1.000  H
  H71      1.0000 0.14840  0.55110  0.09630  Biso   1.000  H
  H72      1.0000 0.85160  0.44890  0.90370  Biso   1.000  H
  O17      1.0000 0.25940  0.97680  0.33710  Biso   1.000  O
  O18      1.0000 0.74060  0.02320  0.66290  Biso   1.000  O
  C41      1.0000 0.25910  0.93110  0.38320  Biso   1.000  C
  C42      1.0000 0.74090  0.06890  0.61680  Biso   1.000  C
  O19      1.0000 0.25920  0.96950  0.43430  Biso   1.000  O
  O20      1.0000 0.74080  0.03050  0.56570  Biso   1.000  O
  C43      1.0000 0.25690  0.81880  0.38690  Biso   1.000  C
  C44      1.0000 0.74310  0.18120  0.61310  Biso   1.000  C
  C45      1.0000 0.22810  0.78720  0.33080  Biso   1.000  C
  C46      1.0000 0.77190  0.21280  0.66920  Biso   1.000  C
  H73      1.0000 0.22640  0.71620  0.33230  Biso   1.000  H
  H74      1.0000 0.77360  0.28380  0.66770  Biso   1.000  H
  H75      1.0000 0.27980  0.80540  0.29610  Biso   1.000  H
  H76      1.0000 0.72020  0.19460  0.70390  Biso   1.000  H
  H77      1.0000 0.15930  0.81950  0.32730  Biso   1.000  H
  H78      1.0000 0.84070  0.18050  0.67270  Biso   1.000  H
  C47      1.0000 0.17280  0.79230  0.43850  Biso   1.000  C
  C48      1.0000 0.82720  0.20770  0.56150  Biso   1.000  C
  H79      1.0000 0.17160  0.72110  0.44090  Biso   1.000  H
  H80      1.0000 0.82840  0.27890  0.55910  Biso   1.000  H
  H81      1.0000 0.10500  0.82360  0.43230  Biso   1.000  H
  H82      1.0000 0.89500  0.17640  0.56770  Biso   1.000  H
  H83      1.0000 0.18710  0.81490  0.47580  Biso   1.000  H
  H84      1.0000 0.81290  0.18510  0.52420  Biso   1.000  H
  C49      1.0000 0.35910  0.77380  0.39470  Biso   1.000  C
  C50      1.0000 0.64090  0.22620  0.60530  Biso   1.000  C
  H85      1.0000 0.35920  0.70260  0.39730  Biso   1.000  H
  H86      1.0000 0.64080  0.29740  0.60270  Biso   1.000  H
  H87      1.0000 0.37470  0.79700  0.43160  Biso   1.000  H
  H88      1.0000 0.62530  0.20300  0.56840  Biso   1.000  H
  H89      1.0000 0.41210  0.79160  0.36060  Biso   1.000  H
  H90      1.0000 0.58790  0.20840  0.63940  Biso   1.000  H
  O21      1.0000 0.40290  0.42910  0.23200  Biso   1.000  O
  O22      1.0000 0.59710  0.57090  0.76800  Biso   1.000  O
  C51      1.0000 0.46450  0.48750  0.20580  Biso   1.000  C
  C52      1.0000 0.53550  0.51250  0.79420  Biso   1.000  C
  O23      1.0000 0.56190  0.47080  0.19950  Biso   1.000  O
  O24      1.0000 0.43810  0.52920  0.80050  Biso   1.000  O
  C53      1.0000 0.42250  0.58340  0.17850  Biso   1.000  C
  C54      1.0000 0.57750  0.41660  0.82150  Biso   1.000  C
  C55      1.0000 0.46370  0.57970  0.11480  Biso   1.000  C
  C56      1.0000 0.53630  0.42030  0.88520  Biso   1.000  C
  H91      1.0000 0.54000  0.57110  0.10770  Biso   1.000  H
  H92      1.0000 0.46000  0.42890  0.89230  Biso   1.000  H
  H93      1.0000 0.44040  0.64080  0.09550  Biso   1.000  H
  H94      1.0000 0.55960  0.35920  0.90450  Biso   1.000  H
  H95      1.0000 0.43860  0.52470  0.09810  Biso   1.000  H
  H96      1.0000 0.56140  0.47530  0.90190  Biso   1.000  H
  C57      1.0000 0.46140  0.66770  0.20630  Biso   1.000  C
  C58      1.0000 0.53860  0.33230  0.79370  Biso   1.000  C
  H97      1.0000 0.53770  0.66050  0.19790  Biso   1.000  H
  H98      1.0000 0.46230  0.33950  0.80210  Biso   1.000  H
  H99      1.0000 0.43580  0.66650  0.24970  Biso   1.000  H
  H100     1.0000 0.56420  0.33350  0.75030  Biso   1.000  H
  H101     1.0000 0.43570  0.73000  0.18930  Biso   1.000  H
  H102     1.0000 0.56430  0.27000  0.81070  Biso   1.000  H
  C59      1.0000 0.30400  0.59770  0.19240  Biso   1.000  C
  C60      1.0000 0.69600  0.40230  0.80760  Biso   1.000  C
  H103     1.0000 0.27680  0.54490  0.17480  Biso   1.000  H
  H104     1.0000 0.72320  0.45510  0.82520  Biso   1.000  H
  H105     1.0000 0.27970  0.66080  0.17570  Biso   1.000  H
  H106     1.0000 0.72030  0.33920  0.82430  Biso   1.000  H
  H107     1.0000 0.27920  0.59660  0.23580  Biso   1.000  H
  H108     1.0000 0.72080  0.40340  0.76420  Biso   1.000  H
  O25      1.0000 0.62130  0.20200  0.25360  Biso   1.000  O
  O26      1.0000 0.37870  0.79800  0.74640  Biso   1.000  O
  C61      1.0000 0.54280  0.15600  0.27040  Biso   1.000  C
  C62      1.0000 0.45720  0.84400  0.72960  Biso   1.000  C
  O27      1.0000 0.45090  0.19400  0.27520  Biso   1.000  O
  O28      1.0000 0.54910  0.80600  0.72480  Biso   1.000  O
  C63      1.0000 0.56450  0.04660  0.28410  Biso   1.000  C
  C64      1.0000 0.43550  0.95340  0.71590  Biso   1.000  C
  C65      1.0000 0.50730  0.98930  0.24640  Biso   1.000  C
  C66      1.0000 0.49270  0.01070  0.75360  Biso   1.000  C
  H109     1.0000 0.43230  0.00980  0.25650  Biso   1.000  H
  H110     1.0000 0.56770  0.99020  0.74350  Biso   1.000  H
  H111     1.0000 0.52020  0.91910  0.25490  Biso   1.000  H
  H112     1.0000 0.47980  0.08090  0.74510  Biso   1.000  H
  H113     1.0000 0.53300  0.00280  0.20380  Biso   1.000  H
  H114     1.0000 0.46700  0.99720  0.79620  Biso   1.000  H
  C67      1.0000 0.68170  0.01170  0.26970  Biso   1.000  C
  C68      1.0000 0.31830  0.98830  0.73030  Biso   1.000  C
  H115     1.0000 0.71840  0.04840  0.29320  Biso   1.000  H
  H116     1.0000 0.28160  0.95160  0.70680  Biso   1.000  H
  H117     1.0000 0.70880  0.02260  0.22700  Biso   1.000  H
  H118     1.0000 0.29120  0.97740  0.77300  Biso   1.000  H
  H119     1.0000 0.69260  0.94180  0.27960  Biso   1.000  H
  H120     1.0000 0.30740  0.05820  0.72040  Biso   1.000  H
  C69      1.0000 0.52570  0.03110  0.35120  Biso   1.000  C
  C70      1.0000 0.47430  0.96890  0.64880  Biso   1.000  C
  H121     1.0000 0.56380  0.06870  0.37340  Biso   1.000  H
  H122     1.0000 0.43620  0.93130  0.62660  Biso   1.000  H
  H123     1.0000 0.53730  0.96150  0.36160  Biso   1.000  H
  H124     1.0000 0.46270  0.03850  0.63840  Biso   1.000  H
  H125     1.0000 0.45120  0.05320  0.36150  Biso   1.000  H
  H126     1.0000 0.54880  0.94680  0.63850  Biso   1.000  H
  C71      1.0000 0.14470  0.38270  0.31130  Biso   1.000  C
  C72      1.0000 0.85530  0.61730  0.68870  Biso   1.000  C
  O29      1.0000 0.22870  0.32960  0.30290  Biso   1.000  O
  O30      1.0000 0.77130  0.67040  0.69710  Biso   1.000  O
  C73      1.0000 0.11530  0.45790  0.36160  Biso   1.000  C
  C74      1.0000 0.88470  0.54210  0.63840  Biso   1.000  C
  C75      1.0000 0.21320  0.48800  0.38050  Biso   1.000  C
  C76      1.0000 0.78680  0.51200  0.61950  Biso   1.000  C
  H127     1.0000 0.20030  0.49340  0.42400  Biso   1.000  H
  H128     1.0000 0.79970  0.50660  0.57600  Biso   1.000  H
  H129     1.0000 0.22940  0.55120  0.36170  Biso   1.000  H
  H130     1.0000 0.77060  0.44880  0.63830  Biso   1.000  H
  H131     1.0000 0.27210  0.43850  0.36770  Biso   1.000  H
  H132     1.0000 0.72790  0.56150  0.63230  Biso   1.000  H
  C77      1.0000 0.05120  0.40570  0.41470  Biso   1.000  C
  C78      1.0000 0.94880  0.59430  0.58530  Biso   1.000  C
  H133     1.0000 0.03000  0.45030  0.44830  Biso   1.000  H
  H134     1.0000 0.97000  0.54970  0.55170  Biso   1.000  H
  H135     1.0000 0.09350  0.34790  0.42670  Biso   1.000  H
  H136     1.0000 0.90650  0.65210  0.57330  Biso   1.000  H
  H137     1.0000 0.98910  0.38560  0.40310  Biso   1.000  H
  H138     1.0000 0.01090  0.61440  0.59690  Biso   1.000  H
  C79      1.0000 0.05170  0.54700  0.34250  Biso   1.000  C
  C80      1.0000 0.94830  0.45300  0.65750  Biso   1.000  C
  H139     1.0000 0.03400  0.59380  0.37510  Biso   1.000  H
  H140     1.0000 0.96600  0.40620  0.62490  Biso   1.000  H
  H141     1.0000 0.98750  0.52790  0.33290  Biso   1.000  H
  H142     1.0000 0.01250  0.47210  0.66710  Biso   1.000  H
  H143     1.0000 0.09200  0.57750  0.30720  Biso   1.000  H
  H144     1.0000 0.90800  0.42250  0.69280  Biso   1.000  H
  O31      1.0000 0.07490  0.37620  0.28010  Biso   1.000  O
  O32      1.0000 0.92510  0.62380  0.71990  Biso   1.000  O
  O33      1.0000 0.08290  0.17750  0.30370  Biso   1.000  O
  O34      1.0000 0.91710  0.82250  0.69630  Biso   1.000  O
  C81      1.0000 0.98660  0.17330  0.31810  Biso   1.000  C
  C82      1.0000 0.01340  0.82670  0.68190  Biso   1.000  C
  O35      1.0000 0.92470  0.22400  0.28950  Biso   1.000  O
  O36      1.0000 0.07530  0.77600  0.71050  Biso   1.000  O
  C83      1.0000 0.94550  0.10280  0.36790  Biso   1.000  C
  C84      1.0000 0.05450  0.89720  0.63210  Biso   1.000  C
  C85      1.0000 0.83150  0.12580  0.39030  Biso   1.000  C
  C86      1.0000 0.16850  0.87420  0.60970  Biso   1.000  C
  H145     1.0000 0.81810  0.19020  0.40870  Biso   1.000  H
  H146     1.0000 0.18190  0.80980  0.59130  Biso   1.000  H
  H147     1.0000 0.80650  0.07610  0.42000  Biso   1.000  H
  H148     1.0000 0.19350  0.92390  0.58000  Biso   1.000  H
  H149     1.0000 0.79500  0.12630  0.35680  Biso   1.000  H
  H150     1.0000 0.20500  0.87370  0.64320  Biso   1.000  H
  C87      1.0000 0.96440  0.00120  0.33840  Biso   1.000  C
  C88      1.0000 0.03560  0.99880  0.66160  Biso   1.000  C
  H151     1.0000 0.92570  0.00250  0.30580  Biso   1.000  H
  H152     1.0000 0.07430  0.99750  0.69420  Biso   1.000  H
  H153     1.0000 0.94040  0.95130  0.36830  Biso   1.000  H
  H154     1.0000 0.05960  0.04870  0.63170  Biso   1.000  H
  H155     1.0000 0.03890  0.98570  0.32240  Biso   1.000  H
  H156     1.0000 0.96110  0.01430  0.67760  Biso   1.000  H
  C89      1.0000 0.00320  0.10250  0.41750  Biso   1.000  C
  C90      1.0000 0.99680  0.89750  0.58250  Biso   1.000  C
  H157     1.0000 0.99030  0.16690  0.43580  Biso   1.000  H
  H158     1.0000 0.00970  0.83310  0.56420  Biso   1.000  H
  H159     1.0000 0.07790  0.08760  0.40190  Biso   1.000  H
  H160     1.0000 0.92210  0.91240  0.59810  Biso   1.000  H
  H161     1.0000 0.97940  0.05280  0.44760  Biso   1.000  H
  H162     1.0000 0.02060  0.94720  0.55240  Biso   1.000  H
  O37      1.0000 0.34920  0.28250  0.42210  Biso   1.000  O
  O38      1.0000 0.65080  0.71750  0.57790  Biso   1.000  O
  C91      1.0000 0.30580  0.21150  0.44510  Biso   1.000  C
  C92      1.0000 0.69420  0.78850  0.55490  Biso   1.000  C
  O39      1.0000 0.27420  0.14880  0.41540  Biso   1.000  O
  O40      1.0000 0.72580  0.85120  0.58460  Biso   1.000  O
  C93      1.0000 0.29000  0.19580  0.51230  Biso   1.000  C
  C94      1.0000 0.71000  0.80420  0.48770  Biso   1.000  C
  C95      1.0000 0.31250  0.27940  0.54130  Biso   1.000  C
  C96      1.0000 0.68750  0.72060  0.45870  Biso   1.000  C
  H163     1.0000 0.38450  0.29250  0.52560  Biso   1.000  H
  H164     1.0000 0.61550  0.70750  0.47440  Biso   1.000  H
  H165     1.0000 0.30310  0.26620  0.58450  Biso   1.000  H
  H166     1.0000 0.69690  0.73380  0.41550  Biso   1.000  H
  H167     1.0000 0.26500  0.33650  0.53360  Biso   1.000  H
  H168     1.0000 0.73500  0.66350  0.46640  Biso   1.000  H
  C97      1.0000 0.35600  0.11130  0.52750  Biso   1.000  C
  C98      1.0000 0.64400  0.88870  0.47250  Biso   1.000  C
  H169     1.0000 0.42930  0.12250  0.51400  Biso   1.000  H
  H170     1.0000 0.57070  0.87750  0.48600  Biso   1.000  H
  H171     1.0000 0.34200  0.05370  0.50790  Biso   1.000  H
  H172     1.0000 0.65800  0.94630  0.49210  Biso   1.000  H
  H173     1.0000 0.34180  0.10020  0.57090  Biso   1.000  H
  H174     1.0000 0.65820  0.89980  0.42910  Biso   1.000  H
  C99      1.0000 0.18110  0.16570  0.53680  Biso   1.000  C
  C100     1.0000 0.81890  0.83430  0.46320  Biso   1.000  C
  H175     1.0000 0.17160  0.15570  0.58020  Biso   1.000  H
  H176     1.0000 0.82840  0.84430  0.41980  Biso   1.000  H
  H177     1.0000 0.17300  0.10490  0.51830  Biso   1.000  H
  H178     1.0000 0.82700  0.89510  0.48170  Biso   1.000  H
  H179     1.0000 0.12880  0.21740  0.52750  Biso   1.000  H
  H180     1.0000 0.87120  0.78260  0.47250  Biso   1.000  H
  C101     1.0000 0.01200  0.14500  0.94550  Biso   1.000  C
  C102     1.0000 0.98800  0.85500  0.05450  Biso   1.000  C
  H181     1.0000 0.96650  0.10720  0.92860  Biso   1.000  H
  H182     1.0000 0.03350  0.89280  0.07140  Biso   1.000  H
  H183     1.0000 0.00160  0.21390  0.93270  Biso   1.000  H
  H184     1.0000 0.99840  0.78610  0.06730  Biso   1.000  H
  H185     1.0000 0.99470  0.14030  0.98930  Biso   1.000  H
  H186     1.0000 0.00530  0.85970  0.01070  Biso   1.000  H
  O41      1.0000 0.12250  0.06400  0.87910  Biso   1.000  O
  O42      1.0000 0.87750  0.93600  0.12090  Biso   1.000  O
  C103     1.0000 0.09700  0.11500  0.92920  Biso   1.000  C
  C104     1.0000 0.90300  0.88500  0.07080  Biso   1.000  C
  O43      1.0000 0.19190  0.15500  0.92780  Biso   1.000  O
  O44      1.0000 0.80810  0.84500  0.07220  Biso   1.000  O
  C105     1.0000 0.29680  0.12990  0.89080  Biso   1.000  C
  C106     1.0000 0.70320  0.87010  0.10920  Biso   1.000  C
  H187     1.0000 0.30950  0.05840  0.88510  Biso   1.000  H
  H188     1.0000 0.69050  0.94160  0.11490  Biso   1.000  H
  H189     1.0000 0.30090  0.16240  0.85100  Biso   1.000  H
  H190     1.0000 0.69910  0.83760  0.14900  Biso   1.000  H
  C107     1.0000 0.37370  0.16080  0.91930  Biso   1.000  C
  C108     1.0000 0.62630  0.83920  0.08070  Biso   1.000  C
  H191     1.0000 0.44290  0.14400  0.89470  Biso   1.000  H
  H192     1.0000 0.55710  0.85600  0.10530  Biso   1.000  H
  H193     1.0000 0.37000  0.12790  0.95850  Biso   1.000  H
  H194     1.0000 0.63000  0.87210  0.04150  Biso   1.000  H
  H195     1.0000 0.36150  0.23170  0.92450  Biso   1.000  H
  H196     1.0000 0.63850  0.76830  0.07550  Biso   1.000  H
  O45      1.0000 0.92050  0.09950  0.17810  Biso   1.000  O
  O46      1.0000 0.07950  0.90050  0.82190  Biso   1.000  O
  O47      1.0000 0.87660  0.34670  0.17230  Biso   1.000  O
  O48      1.0000 0.12340  0.65330  0.82770  Biso   1.000  O
  O49      1.0000 0.87230  0.56200  0.24680  Biso   1.000  O
  O50      1.0000 0.12770  0.43800  0.75320  Biso   1.000  O
  C109     1.0000 0.77600  0.57510  0.15730  Biso   1.000  C
  C110     1.0000 0.22400  0.42490  0.84270  Biso   1.000  C
  H197     1.0000 0.82250  0.52710  0.13140  Biso   1.000  H
  H198     1.0000 0.17750  0.47290  0.86860  Biso   1.000  H
  H199     1.0000 0.75620  0.63200  0.13310  Biso   1.000  H
  H200     1.0000 0.24380  0.36800  0.86690  Biso   1.000  H
  H201     1.0000 0.71330  0.54560  0.17700  Biso   1.000  H
  H202     1.0000 0.28670  0.45440  0.82300  Biso   1.000  H
  C111     1.0000 0.83760  0.61050  0.20930  Biso   1.000  C
  C112     1.0000 0.16240  0.38950  0.79070  Biso   1.000  C
  O51      1.0000 0.84640  0.70910  0.20660  Biso   1.000  O
  O52      1.0000 0.15360  0.29090  0.79340  Biso   1.000  O
  C113     1.0000 0.85700  0.74100  0.26790  Biso   1.000  C
  C114     1.0000 0.14300  0.25900  0.73210  Biso   1.000  C
  H203     1.0000 0.81790  0.80500  0.28090  Biso   1.000  H
  H204     1.0000 0.18210  0.19500  0.71910  Biso   1.000  H
  H205     1.0000 0.84880  0.69050  0.30000  Biso   1.000  H
  H206     1.0000 0.15120  0.30950  0.70000  Biso   1.000  H
  C115     1.0000 0.98100  0.74700  0.22880  Biso   1.000  C
  C116     1.0000 0.01900  0.25300  0.77120  Biso   1.000  C
  H207     1.0000 0.99560  0.70000  0.19640  Biso   1.000  H
  H208     1.0000 0.00440  0.30000  0.80360  Biso   1.000  H
  H209     1.0000 0.03010  0.73110  0.25570  Biso   1.000  H
  H210     1.0000 0.96990  0.26890  0.74430  Biso   1.000  H
  H211     1.0000 0.98800  0.81310  0.21200  Biso   1.000  H
  H212     1.0000 0.01200  0.18690  0.78800  Biso   1.000  H
