data_image0
_cell_length_a       14.9392
_cell_length_b       11.2721
_cell_length_c       28.03
_cell_angle_alpha    90
_cell_angle_beta     103.259
_cell_angle_gamma    90

_symmetry_space_group_name_H-M    "P 1"
_symmetry_int_tables_number       1

loop_
  _symmetry_equiv_pos_as_xyz
  'x, y, z'

loop_
  _atom_site_label
  _atom_site_occupancy
  _atom_site_fract_x
  _atom_site_fract_y
  _atom_site_fract_z
  _atom_site_thermal_displace_type
  _atom_site_B_iso_or_equiv
  _atom_site_type_symbol
  Cu1      1.0000 0.24102  0.89206  0.00788  Biso   1.000  Cu
  Cu2      1.0000 0.25898  0.39206  0.49212  Biso   1.000  Cu
  Cu3      1.0000 0.75898  0.10794  0.99212  Biso   1.000  Cu
  Cu4      1.0000 0.74102  0.60794  0.50788  Biso   1.000  Cu
  Cu5      1.0000 0.21995  0.85438  0.87230  Biso   1.000  Cu
  Cu6      1.0000 0.28005  0.35438  0.62770  Biso   1.000  Cu
  Cu7      1.0000 0.78005  0.14562  0.12770  Biso   1.000  Cu
  Cu8      1.0000 0.71995  0.64562  0.37230  Biso   1.000  Cu
  Cu9      1.0000 0.26870  0.96721  0.14268  Biso   1.000  Cu
  Cu10     1.0000 0.23130  0.46721  0.35732  Biso   1.000  Cu
  Cu11     1.0000 0.73130  0.03279  0.85732  Biso   1.000  Cu
  Cu12     1.0000 0.76870  0.53279  0.64268  Biso   1.000  Cu
  Na1      1.0000 0.09271  0.38506  0.20928  Biso   1.000  Na
  Na2      1.0000 0.40729  0.88506  0.29072  Biso   1.000  Na
  Na3      1.0000 0.90729  0.61494  0.79072  Biso   1.000  Na
  Na4      1.0000 0.59271  0.11494  0.70928  Biso   1.000  Na
  Na5      1.0000 0.38592  0.20926  0.75809  Biso   1.000  Na
  Na6      1.0000 0.11408  0.70926  0.74191  Biso   1.000  Na
  Na7      1.0000 0.61408  0.79074  0.24191  Biso   1.000  Na
  Na8      1.0000 0.88592  0.29074  0.25809  Biso   1.000  Na
  N1       1.0000 0.29420  0.99260  0.96398  Biso   1.000  N
  N2       1.0000 0.20580  0.49260  0.53602  Biso   1.000  N
  N3       1.0000 0.70580  0.00740  0.03602  Biso   1.000  N
  N4       1.0000 0.79420  0.50740  0.46398  Biso   1.000  N
  N5       1.0000 0.28240  0.97230  0.91583  Biso   1.000  N
  N6       1.0000 0.21760  0.47230  0.58417  Biso   1.000  N
  N7       1.0000 0.71760  0.02770  0.08417  Biso   1.000  N
  N8       1.0000 0.78240  0.52770  0.41583  Biso   1.000  N
  N9       1.0000 0.18210  0.02110  0.03588  Biso   1.000  N
  N10      1.0000 0.31790  0.52110  0.46412  Biso   1.000  N
  N11      1.0000 0.81790  0.97890  0.96412  Biso   1.000  N
  N12      1.0000 0.68210  0.47890  0.53588  Biso   1.000  N
  N13      1.0000 0.19530  0.03750  0.08496  Biso   1.000  N
  N14      1.0000 0.30470  0.53750  0.41504  Biso   1.000  N
  N15      1.0000 0.80470  0.96250  0.91504  Biso   1.000  N
  N16      1.0000 0.69530  0.46250  0.58496  Biso   1.000  N
  N17      1.0000 0.31760  0.80970  0.06531  Biso   1.000  N
  N18      1.0000 0.18240  0.30970  0.43469  Biso   1.000  N
  N19      1.0000 0.68240  0.19030  0.93469  Biso   1.000  N
  N20      1.0000 0.81760  0.69030  0.56531  Biso   1.000  N
  N21      1.0000 0.32240  0.84530  0.11176  Biso   1.000  N
  N22      1.0000 0.17760  0.34530  0.38824  Biso   1.000  N
  N23      1.0000 0.67760  0.15470  0.88824  Biso   1.000  N
  N24      1.0000 0.82240  0.65470  0.61176  Biso   1.000  N
  N25      1.0000 0.18100  0.75880  0.96677  Biso   1.000  N
  N26      1.0000 0.31900  0.25880  0.53323  Biso   1.000  N
  N27      1.0000 0.81900  0.24120  0.03323  Biso   1.000  N
  N28      1.0000 0.68100  0.74120  0.46677  Biso   1.000  N
  N29      1.0000 0.17430  0.75800  0.91789  Biso   1.000  N
  N30      1.0000 0.32570  0.25800  0.58211  Biso   1.000  N
  N31      1.0000 0.82570  0.24200  0.08211  Biso   1.000  N
  N32      1.0000 0.67430  0.74200  0.41789  Biso   1.000  N
  O1       1.0000 0.43840  0.22690  0.17398  Biso   1.000  O
  O2       1.0000 0.06160  0.72690  0.32602  Biso   1.000  O
  O3       1.0000 0.56160  0.77310  0.82602  Biso   1.000  O
  O4       1.0000 0.93840  0.27310  0.67398  Biso   1.000  O
  O5       1.0000 0.27020  0.94440  0.82498  Biso   1.000  O
  O6       1.0000 0.22980  0.44440  0.67502  Biso   1.000  O
  O7       1.0000 0.72980  0.05560  0.17502  Biso   1.000  O
  O8       1.0000 0.77020  0.55560  0.32498  Biso   1.000  O
  O9       1.0000 0.35970  0.10000  0.81901  Biso   1.000  O
  O10      1.0000 0.14030  0.60000  0.68099  Biso   1.000  O
  O11      1.0000 0.64030  0.90000  0.18099  Biso   1.000  O
  O12      1.0000 0.85970  0.40000  0.31901  Biso   1.000  O
  O13      1.0000 0.03530  0.13250  0.80707  Biso   1.000  O
  O14      1.0000 0.46470  0.63250  0.69293  Biso   1.000  O
  O15      1.0000 0.96470  0.86750  0.19293  Biso   1.000  O
  O16      1.0000 0.53530  0.36750  0.30707  Biso   1.000  O
  O17      1.0000 0.21370  0.08890  0.17528  Biso   1.000  O
  O18      1.0000 0.28630  0.58890  0.32472  Biso   1.000  O
  O19      1.0000 0.78630  0.91110  0.82472  Biso   1.000  O
  O20      1.0000 0.71370  0.41110  0.67528  Biso   1.000  O
  O21      1.0000 0.12140  0.24660  0.15958  Biso   1.000  O
  O22      1.0000 0.37860  0.74660  0.34042  Biso   1.000  O
  O23      1.0000 0.87860  0.75340  0.84042  Biso   1.000  O
  O24      1.0000 0.62140  0.25340  0.65958  Biso   1.000  O
  O25      1.0000 0.39200  0.50100  0.88851  Biso   1.000  O
  O26      1.0000 0.10800  0.00100  0.61149  Biso   1.000  O
  O27      1.0000 0.60800  0.49900  0.11149  Biso   1.000  O
  O28      1.0000 0.89200  0.99900  0.38851  Biso   1.000  O
  O29      1.0000 0.45780  0.76570  0.22695  Biso   1.000  O
  O30      1.0000 0.04220  0.26570  0.27305  Biso   1.000  O
  O31      1.0000 0.54220  0.23430  0.77305  Biso   1.000  O
  O32      1.0000 0.95780  0.73430  0.72695  Biso   1.000  O
  O33      1.0000 0.34750  0.89900  0.20259  Biso   1.000  O
  O34      1.0000 0.15250  0.39900  0.29741  Biso   1.000  O
  O35      1.0000 0.65250  0.10100  0.79741  Biso   1.000  O
  O36      1.0000 0.84750  0.60100  0.70259  Biso   1.000  O
  O37      1.0000 0.14880  0.55790  0.17536  Biso   1.000  O
  O38      1.0000 0.35120  0.05790  0.32464  Biso   1.000  O
  O39      1.0000 0.85120  0.44210  0.82464  Biso   1.000  O
  O40      1.0000 0.64880  0.94210  0.67536  Biso   1.000  O
  O41      1.0000 0.06620  0.57870  0.81917  Biso   1.000  O
  O42      1.0000 0.43380  0.07870  0.68083  Biso   1.000  O
  O43      1.0000 0.93380  0.42130  0.18083  Biso   1.000  O
  O44      1.0000 0.56620  0.92130  0.31917  Biso   1.000  O
  O45      1.0000 0.15640  0.73830  0.82564  Biso   1.000  O
  O46      1.0000 0.34360  0.23830  0.67436  Biso   1.000  O
  O47      1.0000 0.84360  0.26170  0.17436  Biso   1.000  O
  O48      1.0000 0.65640  0.76170  0.32564  Biso   1.000  O
  O49      1.0000 0.28710  0.35520  0.76683  Biso   1.000  O
  O50      1.0000 0.21290  0.85520  0.73317  Biso   1.000  O
  O51      1.0000 0.71290  0.64480  0.23317  Biso   1.000  O
  O52      1.0000 0.78710  0.14480  0.26683  Biso   1.000  O
  H1       1.0000 0.28570  0.42250  0.74750  Biso   1.000  H
  H2       1.0000 0.21430  0.92250  0.75250  Biso   1.000  H
  H3       1.0000 0.71430  0.57750  0.25250  Biso   1.000  H
  H4       1.0000 0.78570  0.07750  0.24750  Biso   1.000  H
  C1       1.0000 0.50320  0.15620  0.20906  Biso   1.000  C
  C2       1.0000 0.99680  0.65620  0.29094  Biso   1.000  C
  C3       1.0000 0.49680  0.84380  0.79094  Biso   1.000  C
  C4       1.0000 0.00320  0.34380  0.70906  Biso   1.000  C
  H5       1.0000 0.51060  0.18990  0.24120  Biso   1.000  H
  H6       1.0000 0.98940  0.68990  0.25880  Biso   1.000  H
  H7       1.0000 0.48940  0.81010  0.75880  Biso   1.000  H
  H8       1.0000 0.01060  0.31010  0.74120  Biso   1.000  H
  H9       1.0000 0.56140  0.15510  0.20010  Biso   1.000  H
  H10      1.0000 0.93860  0.65510  0.29990  Biso   1.000  H
  H11      1.0000 0.43860  0.84490  0.79990  Biso   1.000  H
  H12      1.0000 0.06140  0.34490  0.70010  Biso   1.000  H
  H13      1.0000 0.48030  0.07660  0.20910  Biso   1.000  H
  H14      1.0000 0.01970  0.57660  0.29090  Biso   1.000  H
  H15      1.0000 0.51970  0.92340  0.79090  Biso   1.000  H
  H16      1.0000 0.98030  0.42340  0.70910  Biso   1.000  H
  C5       1.0000 0.42090  0.18970  0.12623  Biso   1.000  C
  C6       1.0000 0.07910  0.68970  0.37377  Biso   1.000  C
  C7       1.0000 0.57910  0.81030  0.87377  Biso   1.000  C
  C8       1.0000 0.92090  0.31030  0.62623  Biso   1.000  C
  C9       1.0000 0.36440  0.26220  0.09281  Biso   1.000  C
  C10      1.0000 0.13560  0.76220  0.40719  Biso   1.000  C
  C11      1.0000 0.63560  0.73780  0.90719  Biso   1.000  C
  C12      1.0000 0.86440  0.23780  0.59281  Biso   1.000  C
  H17      1.0000 0.34120  0.33140  0.10340  Biso   1.000  H
  H18      1.0000 0.15880  0.83140  0.39660  Biso   1.000  H
  H19      1.0000 0.65880  0.66860  0.89660  Biso   1.000  H
  H20      1.0000 0.84120  0.16860  0.60340  Biso   1.000  H
  C13      1.0000 0.34180  0.23300  0.04356  Biso   1.000  C
  C14      1.0000 0.15820  0.73300  0.45644  Biso   1.000  C
  C15      1.0000 0.65820  0.76700  0.95644  Biso   1.000  C
  C16      1.0000 0.84180  0.26700  0.54356  Biso   1.000  C
  H21      1.0000 0.30340  0.28290  0.02150  Biso   1.000  H
  H22      1.0000 0.19660  0.78290  0.47850  Biso   1.000  H
  H23      1.0000 0.69660  0.71710  0.97850  Biso   1.000  H
  H24      1.0000 0.80340  0.21710  0.52150  Biso   1.000  H
  C17      1.0000 0.37530  0.13100  0.02669  Biso   1.000  C
  C18      1.0000 0.12470  0.63100  0.47331  Biso   1.000  C
  C19      1.0000 0.62470  0.86900  0.97331  Biso   1.000  C
  C20      1.0000 0.87530  0.36900  0.52669  Biso   1.000  C
  C21      1.0000 0.43230  0.05900  0.06076  Biso   1.000  C
  C22      1.0000 0.06770  0.55900  0.43924  Biso   1.000  C
  C23      1.0000 0.56770  0.94100  0.93924  Biso   1.000  C
  C24      1.0000 0.93230  0.44100  0.56076  Biso   1.000  C
  H25      1.0000 0.45560  0.98990  0.05010  Biso   1.000  H
  H26      1.0000 0.04440  0.48990  0.44990  Biso   1.000  H
  H27      1.0000 0.54440  0.01010  0.94990  Biso   1.000  H
  H28      1.0000 0.95560  0.51010  0.55010  Biso   1.000  H
  C25      1.0000 0.45550  0.08720  0.11036  Biso   1.000  C
  C26      1.0000 0.04450  0.58720  0.38964  Biso   1.000  C
  C27      1.0000 0.54450  0.91280  0.88964  Biso   1.000  C
  C28      1.0000 0.95550  0.41280  0.61036  Biso   1.000  C
  H29      1.0000 0.49390  0.03760  0.13260  Biso   1.000  H
  H30      1.0000 0.00610  0.53760  0.36740  Biso   1.000  H
  H31      1.0000 0.50610  0.96240  0.86740  Biso   1.000  H
  H32      1.0000 0.99390  0.46240  0.63260  Biso   1.000  H
  C29      1.0000 0.34740  0.09140  0.97487  Biso   1.000  C
  C30      1.0000 0.15260  0.59140  0.52513  Biso   1.000  C
  C31      1.0000 0.65260  0.90860  0.02513  Biso   1.000  C
  C32      1.0000 0.84740  0.40860  0.47487  Biso   1.000  C
  C33      1.0000 0.36860  0.13430  0.93229  Biso   1.000  C
  C34      1.0000 0.13140  0.63430  0.56771  Biso   1.000  C
  C35      1.0000 0.63140  0.86570  0.06771  Biso   1.000  C
  C36      1.0000 0.86860  0.36570  0.43229  Biso   1.000  C
  H33      1.0000 0.40360  0.20070  0.92890  Biso   1.000  H
  H34      1.0000 0.09640  0.70070  0.57110  Biso   1.000  H
  H35      1.0000 0.59640  0.79930  0.07110  Biso   1.000  H
  H36      1.0000 0.90360  0.29930  0.42890  Biso   1.000  H
  C37      1.0000 0.32570  0.05570  0.89588  Biso   1.000  C
  C38      1.0000 0.17430  0.55570  0.60412  Biso   1.000  C
  C39      1.0000 0.67430  0.94430  0.10412  Biso   1.000  C
  C40      1.0000 0.82570  0.44430  0.39588  Biso   1.000  C
  C41      1.0000 0.31930  0.03590  0.84256  Biso   1.000  C
  C42      1.0000 0.18070  0.53590  0.65744  Biso   1.000  C
  C43      1.0000 0.68070  0.96410  0.15744  Biso   1.000  C
  C44      1.0000 0.81930  0.46410  0.34256  Biso   1.000  C
  C45      1.0000 0.99900  0.03240  0.77866  Biso   1.000  C
  C46      1.0000 0.50100  0.53240  0.72134  Biso   1.000  C
  C47      1.0000 0.00100  0.96760  0.22134  Biso   1.000  C
  C48      1.0000 0.49900  0.46760  0.27866  Biso   1.000  C
  H37      1.0000 0.98760  0.05220  0.74450  Biso   1.000  H
  H38      1.0000 0.51240  0.55220  0.75550  Biso   1.000  H
  H39      1.0000 0.01240  0.94780  0.25550  Biso   1.000  H
  H40      1.0000 0.48760  0.44780  0.24450  Biso   1.000  H
  H41      1.0000 0.94250  0.00870  0.78670  Biso   1.000  H
  H42      1.0000 0.55750  0.50870  0.71330  Biso   1.000  H
  H43      1.0000 0.05750  0.99130  0.21330  Biso   1.000  H
  H44      1.0000 0.44250  0.49130  0.28670  Biso   1.000  H
  H45      1.0000 0.04240  0.96830  0.78550  Biso   1.000  H
  H46      1.0000 0.45760  0.46830  0.71450  Biso   1.000  H
  H47      1.0000 0.95760  0.03170  0.21450  Biso   1.000  H
  H48      1.0000 0.54240  0.53170  0.28550  Biso   1.000  H
  C49      1.0000 0.05620  0.12170  0.85715  Biso   1.000  C
  C50      1.0000 0.44380  0.62170  0.64285  Biso   1.000  C
  C51      1.0000 0.94380  0.87830  0.14285  Biso   1.000  C
  C52      1.0000 0.55620  0.37830  0.35715  Biso   1.000  C
  C53      1.0000 0.09480  0.22060  0.88345  Biso   1.000  C
  C54      1.0000 0.40520  0.72060  0.61655  Biso   1.000  C
  C55      1.0000 0.90520  0.77940  0.11655  Biso   1.000  C
  C56      1.0000 0.59480  0.27940  0.38345  Biso   1.000  C
  H49      1.0000 0.10560  0.28880  0.86700  Biso   1.000  H
  H50      1.0000 0.39440  0.78880  0.63300  Biso   1.000  H
  H51      1.0000 0.89440  0.71120  0.13300  Biso   1.000  H
  H52      1.0000 0.60560  0.21120  0.36700  Biso   1.000  H
  C57      1.0000 0.11710  0.21780  0.93376  Biso   1.000  C
  C58      1.0000 0.38290  0.71780  0.56624  Biso   1.000  C
  C59      1.0000 0.88290  0.78220  0.06624  Biso   1.000  C
  C60      1.0000 0.61710  0.28220  0.43376  Biso   1.000  C
  H53      1.0000 0.14310  0.28470  0.95100  Biso   1.000  H
  H54      1.0000 0.35690  0.78470  0.54900  Biso   1.000  H
  H55      1.0000 0.85690  0.71530  0.04900  Biso   1.000  H
  H56      1.0000 0.64310  0.21530  0.45100  Biso   1.000  H
  C61      1.0000 0.10160  0.11710  0.95967  Biso   1.000  C
  C62      1.0000 0.39840  0.61710  0.54033  Biso   1.000  C
  C63      1.0000 0.89840  0.88290  0.04033  Biso   1.000  C
  C64      1.0000 0.60160  0.38290  0.45967  Biso   1.000  C
  C65      1.0000 0.06200  0.02100  0.93227  Biso   1.000  C
  C66      1.0000 0.43800  0.52100  0.56773  Biso   1.000  C
  C67      1.0000 0.93800  0.97900  0.06773  Biso   1.000  C
  C68      1.0000 0.56200  0.47900  0.43227  Biso   1.000  C
  H57      1.0000 0.05020  0.95300  0.94860  Biso   1.000  H
  H58      1.0000 0.44980  0.45300  0.55140  Biso   1.000  H
  H59      1.0000 0.94980  0.04700  0.05140  Biso   1.000  H
  H60      1.0000 0.55020  0.54700  0.44860  Biso   1.000  H
  C69      1.0000 0.03880  0.02150  0.88144  Biso   1.000  C
  C70      1.0000 0.46120  0.52150  0.61856  Biso   1.000  C
  C71      1.0000 0.96120  0.97850  0.11856  Biso   1.000  C
  C72      1.0000 0.53880  0.47850  0.38144  Biso   1.000  C
  H61      1.0000 0.01200  0.95520  0.86410  Biso   1.000  H
  H62      1.0000 0.48800  0.45520  0.63590  Biso   1.000  H
  H63      1.0000 0.98800  0.04480  0.13590  Biso   1.000  H
  H64      1.0000 0.51200  0.54480  0.36410  Biso   1.000  H
  C73      1.0000 0.12880  0.11110  0.01371  Biso   1.000  C
  C74      1.0000 0.37120  0.61110  0.48629  Biso   1.000  C
  C75      1.0000 0.87120  0.88890  0.98629  Biso   1.000  C
  C76      1.0000 0.62880  0.38890  0.51371  Biso   1.000  C
  C77      1.0000 0.10690  0.18610  0.04886  Biso   1.000  C
  C78      1.0000 0.39310  0.68610  0.45114  Biso   1.000  C
  C79      1.0000 0.89310  0.81390  0.95114  Biso   1.000  C
  C80      1.0000 0.60690  0.31390  0.54886  Biso   1.000  C
  H65      1.0000 0.07110  0.25440  0.04370  Biso   1.000  H
  H66      1.0000 0.42890  0.75440  0.45630  Biso   1.000  H
  H67      1.0000 0.92890  0.74560  0.95630  Biso   1.000  H
  H68      1.0000 0.57110  0.24560  0.54370  Biso   1.000  H
  C81      1.0000 0.15070  0.13590  0.09326  Biso   1.000  C
  C82      1.0000 0.34930  0.63590  0.40674  Biso   1.000  C
  C83      1.0000 0.84930  0.86410  0.90674  Biso   1.000  C
  C84      1.0000 0.65070  0.36410  0.59326  Biso   1.000  C
  C85      1.0000 0.16160  0.16230  0.14637  Biso   1.000  C
  C86      1.0000 0.33840  0.66230  0.35363  Biso   1.000  C
  C87      1.0000 0.83840  0.83770  0.85363  Biso   1.000  C
  C88      1.0000 0.66160  0.33770  0.64637  Biso   1.000  C
  C89      1.0000 0.40110  0.56930  0.84738  Biso   1.000  C
  C90      1.0000 0.09890  0.06930  0.65262  Biso   1.000  C
  C91      1.0000 0.59890  0.43070  0.15262  Biso   1.000  C
  C92      1.0000 0.90110  0.93070  0.34738  Biso   1.000  C
  H69      1.0000 0.39970  0.51770  0.82000  Biso   1.000  H
  H70      1.0000 0.10030  0.01770  0.68000  Biso   1.000  H
  H71      1.0000 0.60030  0.48230  0.18000  Biso   1.000  H
  H72      1.0000 0.89970  0.98230  0.32000  Biso   1.000  H
  H73      1.0000 0.45850  0.61140  0.85500  Biso   1.000  H
  H74      1.0000 0.04150  0.11140  0.64500  Biso   1.000  H
  H75      1.0000 0.54150  0.38860  0.14500  Biso   1.000  H
  H76      1.0000 0.95850  0.88860  0.35500  Biso   1.000  H
  H77      1.0000 0.35140  0.62500  0.83930  Biso   1.000  H
  H78      1.0000 0.14860  0.12500  0.66070  Biso   1.000  H
  H79      1.0000 0.64860  0.37500  0.16070  Biso   1.000  H
  H80      1.0000 0.85140  0.87500  0.33930  Biso   1.000  H
  C93      1.0000 0.39250  0.56000  0.93105  Biso   1.000  C
  C94      1.0000 0.10750  0.06000  0.56895  Biso   1.000  C
  C95      1.0000 0.60750  0.44000  0.06895  Biso   1.000  C
  C96      1.0000 0.89250  0.94000  0.43105  Biso   1.000  C
  C97      1.0000 0.41070  0.67870  0.93832  Biso   1.000  C
  C98      1.0000 0.08930  0.17870  0.56168  Biso   1.000  C
  C99      1.0000 0.58930  0.32130  0.06168  Biso   1.000  C
  C100     1.0000 0.91070  0.82130  0.43832  Biso   1.000  C
  H81      1.0000 0.42440  0.72500  0.91350  Biso   1.000  H
  H82      1.0000 0.07560  0.22500  0.58650  Biso   1.000  H
  H83      1.0000 0.57560  0.27500  0.08650  Biso   1.000  H
  H84      1.0000 0.92440  0.77500  0.41350  Biso   1.000  H
  C101     1.0000 0.40810  0.72900  0.98323  Biso   1.000  C
  C102     1.0000 0.09190  0.22900  0.51677  Biso   1.000  C
  C103     1.0000 0.59190  0.27100  0.01677  Biso   1.000  C
  C104     1.0000 0.90810  0.77100  0.48323  Biso   1.000  C
  H85      1.0000 0.42030  0.80960  0.98800  Biso   1.000  H
  H86      1.0000 0.07970  0.30960  0.51200  Biso   1.000  H
  H87      1.0000 0.57970  0.19040  0.01200  Biso   1.000  H
  H88      1.0000 0.92030  0.69040  0.48800  Biso   1.000  H
  C105     1.0000 0.38830  0.66320  0.02072  Biso   1.000  C
  C106     1.0000 0.11170  0.16320  0.47928  Biso   1.000  C
  C107     1.0000 0.61170  0.33680  0.97928  Biso   1.000  C
  C108     1.0000 0.88830  0.83680  0.52072  Biso   1.000  C
  C109     1.0000 0.37480  0.54200  0.01318  Biso   1.000  C
  C110     1.0000 0.12520  0.04200  0.48682  Biso   1.000  C
  C111     1.0000 0.62520  0.45800  0.98682  Biso   1.000  C
  C112     1.0000 0.87480  0.95800  0.51318  Biso   1.000  C
  H89      1.0000 0.36400  0.49470  0.03850  Biso   1.000  H
  H90      1.0000 0.13600  0.99470  0.46150  Biso   1.000  H
  H91      1.0000 0.63600  0.50530  0.96150  Biso   1.000  H
  H92      1.0000 0.86400  0.00530  0.53850  Biso   1.000  H
  C113     1.0000 0.37700  0.49110  0.96889  Biso   1.000  C
  C114     1.0000 0.12300  0.99110  0.53111  Biso   1.000  C
  C115     1.0000 0.62300  0.50890  0.03111  Biso   1.000  C
  C116     1.0000 0.87700  0.00890  0.46889  Biso   1.000  C
  H93      1.0000 0.36800  0.40980  0.96450  Biso   1.000  H
  H94      1.0000 0.13200  0.90980  0.53550  Biso   1.000  H
  H95      1.0000 0.63200  0.59020  0.03550  Biso   1.000  H
  H96      1.0000 0.86800  0.09020  0.46450  Biso   1.000  H
  C117     1.0000 0.37790  0.71900  0.06680  Biso   1.000  C
  C118     1.0000 0.12210  0.21900  0.43320  Biso   1.000  C
  C119     1.0000 0.62210  0.28100  0.93320  Biso   1.000  C
  C120     1.0000 0.87790  0.78100  0.56680  Biso   1.000  C
  C121     1.0000 0.42180  0.69840  0.11475  Biso   1.000  C
  C122     1.0000 0.07820  0.19840  0.38525  Biso   1.000  C
  C123     1.0000 0.57820  0.30160  0.88525  Biso   1.000  C
  C124     1.0000 0.92180  0.80160  0.61475  Biso   1.000  C
  H97      1.0000 0.46670  0.64170  0.12630  Biso   1.000  H
  H98      1.0000 0.03330  0.14170  0.37370  Biso   1.000  H
  H99      1.0000 0.53330  0.35830  0.87370  Biso   1.000  H
  H100     1.0000 0.96670  0.85830  0.62630  Biso   1.000  H
  C125     1.0000 0.38560  0.77890  0.14223  Biso   1.000  C
  C126     1.0000 0.11440  0.27890  0.35777  Biso   1.000  C
  C127     1.0000 0.61440  0.22110  0.85777  Biso   1.000  C
  C128     1.0000 0.88560  0.72110  0.64223  Biso   1.000  C
  C129     1.0000 0.39960  0.81430  0.19402  Biso   1.000  C
  C130     1.0000 0.10040  0.31430  0.30598  Biso   1.000  C
  C131     1.0000 0.60040  0.18570  0.80598  Biso   1.000  C
  C132     1.0000 0.89960  0.68570  0.69402  Biso   1.000  C
  C133     1.0000 0.14030  0.58760  0.12659  Biso   1.000  C
  C134     1.0000 0.35970  0.08760  0.37341  Biso   1.000  C
  C135     1.0000 0.85970  0.41240  0.87341  Biso   1.000  C
  C136     1.0000 0.64030  0.91240  0.62659  Biso   1.000  C
  C137     1.0000 0.12130  0.69960  0.10857  Biso   1.000  C
  C138     1.0000 0.37870  0.19960  0.39143  Biso   1.000  C
  C139     1.0000 0.87870  0.30040  0.89143  Biso   1.000  C
  C140     1.0000 0.62130  0.80040  0.60857  Biso   1.000  C
  H101     1.0000 0.11100  0.76020  0.12920  Biso   1.000  H
  H102     1.0000 0.38900  0.26020  0.37080  Biso   1.000  H
  H103     1.0000 0.88900  0.23980  0.87080  Biso   1.000  H
  H104     1.0000 0.61100  0.73980  0.62920  Biso   1.000  H
  C141     1.0000 0.11740  0.72320  0.05952  Biso   1.000  C
  C142     1.0000 0.38260  0.22320  0.44048  Biso   1.000  C
  C143     1.0000 0.88260  0.27680  0.94048  Biso   1.000  C
  C144     1.0000 0.61740  0.77680  0.55952  Biso   1.000  C
  H105     1.0000 0.10530  0.79990  0.04760  Biso   1.000  H
  H106     1.0000 0.39470  0.29990  0.45240  Biso   1.000  H
  H107     1.0000 0.89470  0.20010  0.95240  Biso   1.000  H
  H108     1.0000 0.60530  0.70010  0.54760  Biso   1.000  H
  C145     1.0000 0.13130  0.63440  0.02838  Biso   1.000  C
  C146     1.0000 0.36870  0.13440  0.47162  Biso   1.000  C
  C147     1.0000 0.86870  0.36560  0.97162  Biso   1.000  C
  C148     1.0000 0.63130  0.86560  0.52838  Biso   1.000  C
  C149     1.0000 0.14720  0.52000  0.04669  Biso   1.000  C
  C150     1.0000 0.35280  0.02000  0.45331  Biso   1.000  C
  C151     1.0000 0.85280  0.48000  0.95331  Biso   1.000  C
  C152     1.0000 0.64720  0.98000  0.54669  Biso   1.000  C
  H109     1.0000 0.15510  0.45840  0.02590  Biso   1.000  H
  H110     1.0000 0.34490  0.95840  0.47410  Biso   1.000  H
  H111     1.0000 0.84490  0.54160  0.97410  Biso   1.000  H
  H112     1.0000 0.65510  0.04160  0.52590  Biso   1.000  H
  C153     1.0000 0.15140  0.49690  0.09585  Biso   1.000  C
  C154     1.0000 0.34860  0.99690  0.40415  Biso   1.000  C
  C155     1.0000 0.84860  0.50310  0.90415  Biso   1.000  C
  C156     1.0000 0.65140  0.00310  0.59585  Biso   1.000  C
  H113     1.0000 0.16180  0.42000  0.10790  Biso   1.000  H
  H114     1.0000 0.33820  0.92000  0.39210  Biso   1.000  H
  H115     1.0000 0.83820  0.58000  0.89210  Biso   1.000  H
  H116     1.0000 0.66180  0.08000  0.60790  Biso   1.000  H
  C157     1.0000 0.13620  0.66070  0.97749  Biso   1.000  C
  C158     1.0000 0.36380  0.16070  0.52251  Biso   1.000  C
  C159     1.0000 0.86380  0.33930  0.02251  Biso   1.000  C
  C160     1.0000 0.63620  0.83930  0.47749  Biso   1.000  C
  C161     1.0000 0.10050  0.59830  0.93460  Biso   1.000  C
  C162     1.0000 0.39950  0.09830  0.56540  Biso   1.000  C
  C163     1.0000 0.89950  0.40170  0.06540  Biso   1.000  C
  C164     1.0000 0.60050  0.90170  0.43460  Biso   1.000  C
  H117     1.0000 0.06670  0.52830  0.93130  Biso   1.000  H
  H118     1.0000 0.43330  0.02830  0.56870  Biso   1.000  H
  H119     1.0000 0.93330  0.47170  0.06870  Biso   1.000  H
  H120     1.0000 0.56670  0.97170  0.43130  Biso   1.000  H
  C165     1.0000 0.12620  0.66310  0.89785  Biso   1.000  C
  C166     1.0000 0.37380  0.16310  0.60215  Biso   1.000  C
  C167     1.0000 0.87380  0.33690  0.10215  Biso   1.000  C
  C168     1.0000 0.62620  0.83690  0.39785  Biso   1.000  C
  C169     1.0000 0.11380  0.65550  0.84398  Biso   1.000  C
  C170     1.0000 0.38620  0.15550  0.65602  Biso   1.000  C
  C171     1.0000 0.88620  0.34450  0.15602  Biso   1.000  C
  C172     1.0000 0.61380  0.84450  0.34398  Biso   1.000  C
  C173     1.0000 0.22820  0.35290  0.79870  Biso   1.000  C
  C174     1.0000 0.27180  0.85290  0.70130  Biso   1.000  C
  C175     1.0000 0.77180  0.64710  0.20130  Biso   1.000  C
  C176     1.0000 0.72820  0.14710  0.29870  Biso   1.000  C
  H121     1.0000 0.19350  0.42530  0.79560  Biso   1.000  H
  H122     1.0000 0.30650  0.92530  0.70440  Biso   1.000  H
  H123     1.0000 0.80650  0.57470  0.20440  Biso   1.000  H
  H124     1.0000 0.69350  0.07470  0.29560  Biso   1.000  H
  H125     1.0000 0.26350  0.34480  0.83170  Biso   1.000  H
  H126     1.0000 0.23650  0.84480  0.66830  Biso   1.000  H
  H127     1.0000 0.73650  0.65520  0.16830  Biso   1.000  H
  H128     1.0000 0.76350  0.15520  0.33170  Biso   1.000  H
  H129     1.0000 0.18690  0.28680  0.79070  Biso   1.000  H
  H130     1.0000 0.31310  0.78680  0.70930  Biso   1.000  H
  H131     1.0000 0.81310  0.71320  0.20930  Biso   1.000  H
  H132     1.0000 0.68690  0.21320  0.29070  Biso   1.000  H
  C177     1.0000 0.16680  0.65230  0.21017  Biso   1.000  C
  C178     1.0000 0.33320  0.15230  0.28983  Biso   1.000  C
  C179     1.0000 0.83320  0.34770  0.78983  Biso   1.000  C
  C180     1.0000 0.66680  0.84770  0.71017  Biso   1.000  C
  H133     1.0000 0.17140  0.62100  0.24250  Biso   1.000  H
  H134     1.0000 0.32860  0.12100  0.25750  Biso   1.000  H
  H135     1.0000 0.82860  0.37900  0.75750  Biso   1.000  H
  H136     1.0000 0.67140  0.87900  0.74250  Biso   1.000  H
  H137     1.0000 0.11760  0.70890  0.20280  Biso   1.000  H
  H138     1.0000 0.38240  0.20890  0.29720  Biso   1.000  H
  H139     1.0000 0.88240  0.29110  0.79720  Biso   1.000  H
  H140     1.0000 0.61760  0.79110  0.70280  Biso   1.000  H
  H141     1.0000 0.22360  0.69040  0.20870  Biso   1.000  H
  H142     1.0000 0.27640  0.19040  0.29130  Biso   1.000  H
  H143     1.0000 0.77640  0.30960  0.79130  Biso   1.000  H
  H144     1.0000 0.72360  0.80960  0.70870  Biso   1.000  H
