data_image0
_cell_length_a       5.8808
_cell_length_b       8.7215
_cell_length_c       11.876
_cell_angle_alpha    90
_cell_angle_beta     93.605
_cell_angle_gamma    90

_symmetry_space_group_name_H-M    "P 1"
_symmetry_int_tables_number       1

loop_
  _symmetry_equiv_pos_as_xyz
  'x, y, z'

loop_
  _atom_site_label
  _atom_site_occupancy
  _atom_site_fract_x
  _atom_site_fract_y
  _atom_site_fract_z
  _atom_site_thermal_displace_type
  _atom_site_B_iso_or_equiv
  _atom_site_type_symbol
  Cu1      1.0000 0.60943  0.20341  0.41088  Biso   1.000  Cu
  Cu2      1.0000 0.39057  0.70341  0.58912  Biso   1.000  Cu
  N1       1.0000 0.68340  0.13210  0.25920  Biso   1.000  N
  N2       1.0000 0.31660  0.63210  0.74080  Biso   1.000  N
  H1       1.0000 0.81300  0.07800  0.25700  Biso   1.000  H
  H2       1.0000 0.18700  0.57800  0.74300  Biso   1.000  H
  O1       1.0000 0.53990  0.45820  0.32420  Biso   1.000  O
  O2       1.0000 0.46010  0.95820  0.67580  Biso   1.000  O
  H3       1.0000 0.47720  0.51770  0.36710  Biso   1.000  H
  H4       1.0000 0.52280  0.01770  0.63290  Biso   1.000  H
  O3       1.0000 0.29470  0.14140  0.35930  Biso   1.000  O
  O4       1.0000 0.70530  0.64140  0.64070  Biso   1.000  O
  O5       1.0000 0.11010  0.99420  0.23110  Biso   1.000  O
  O6       1.0000 0.88990  0.49420  0.76890  Biso   1.000  O
  O7       1.0000 0.68460  0.93990  0.45910  Biso   1.000  O
  O8       1.0000 0.31540  0.43990  0.54090  Biso   1.000  O
  O9       1.0000 0.46100  0.73520  0.43510  Biso   1.000  O
  O10      1.0000 0.53900  0.23520  0.56490  Biso   1.000  O
  C1       1.0000 0.41100  0.44580  0.22580  Biso   1.000  C
  C2       1.0000 0.58900  0.94580  0.77420  Biso   1.000  C
  C3       1.0000 0.21430  0.53520  0.20400  Biso   1.000  C
  C4       1.0000 0.78570  0.03520  0.79600  Biso   1.000  C
  H5       1.0000 0.16540  0.60500  0.25770  Biso   1.000  H
  H6       1.0000 0.83460  0.10500  0.74230  Biso   1.000  H
  C5       1.0000 0.09460  0.51650  0.10030  Biso   1.000  C
  C6       1.0000 0.90540  0.01650  0.89970  Biso   1.000  C
  H7       1.0000 0.96150  0.57420  0.08420  Biso   1.000  H
  H8       1.0000 0.03850  0.07420  0.91580  Biso   1.000  H
  C7       1.0000 0.16520  0.41650  0.02080  Biso   1.000  C
  C8       1.0000 0.83480  0.91650  0.97920  Biso   1.000  C
  H9       1.0000 0.08470  0.40760  0.95020  Biso   1.000  H
  H10      1.0000 0.91530  0.90760  0.04980  Biso   1.000  H
  C9       1.0000 0.35710  0.32900  0.04660  Biso   1.000  C
  C10      1.0000 0.64290  0.82900  0.95340  Biso   1.000  C
  H11      1.0000 0.40240  0.25690  0.99370  Biso   1.000  H
  H12      1.0000 0.59760  0.75690  0.00630  Biso   1.000  H
  C11      1.0000 0.48330  0.34400  0.14660  Biso   1.000  C
  C12      1.0000 0.51670  0.84400  0.85340  Biso   1.000  C
  C13      1.0000 0.70010  0.25410  0.17230  Biso   1.000  C
  C14      1.0000 0.29990  0.75410  0.82770  Biso   1.000  C
  H13      1.0000 0.74520  0.20650  0.10230  Biso   1.000  H
  H14      1.0000 0.25480  0.70650  0.89770  Biso   1.000  H
  H15      1.0000 0.82110  0.32560  0.19770  Biso   1.000  H
  H16      1.0000 0.17890  0.82560  0.80230  Biso   1.000  H
  C15      1.0000 0.51430  0.01380  0.22540  Biso   1.000  C
  C16      1.0000 0.48570  0.51380  0.77460  Biso   1.000  C
  H17      1.0000 0.49490  0.00970  0.14200  Biso   1.000  H
  H18      1.0000 0.50510  0.50970  0.85800  Biso   1.000  H
  C17      1.0000 0.28700  0.05320  0.27320  Biso   1.000  C
  C18      1.0000 0.71300  0.55320  0.72680  Biso   1.000  C
  C19      1.0000 0.58880  0.85580  0.27070  Biso   1.000  C
  C20      1.0000 0.41120  0.35580  0.72930  Biso   1.000  C
  H19      1.0000 0.48840  0.77730  0.23560  Biso   1.000  H
  H20      1.0000 0.51160  0.27730  0.76440  Biso   1.000  H
  H21      1.0000 0.74410  0.83490  0.24940  Biso   1.000  H
  H22      1.0000 0.25590  0.33490  0.75060  Biso   1.000  H
  C21      1.0000 0.58240  0.84440  0.39790  Biso   1.000  C
  C22      1.0000 0.41760  0.34440  0.60210  Biso   1.000  C
  O11      1.0000 0.92950  0.26270  0.44980  Biso   1.000  O
  O12      1.0000 0.07050  0.76270  0.55020  Biso   1.000  O
  H23      1.0000 0.96700  0.33800  0.49200  Biso   1.000  H
  H24      1.0000 0.03300  0.83800  0.50800  Biso   1.000  H
  H25      1.0000 0.04100  0.21400  0.42700  Biso   1.000  H
  H26      1.0000 0.95900  0.71400  0.57300  Biso   1.000  H
