data_image0
_cell_length_a       5.9107
_cell_length_b       8.826
_cell_length_c       11.903
_cell_angle_alpha    90
_cell_angle_beta     93.787
_cell_angle_gamma    90

_symmetry_space_group_name_H-M    "P 1"
_symmetry_int_tables_number       1

loop_
  _symmetry_equiv_pos_as_xyz
  'x, y, z'

loop_
  _atom_site_label
  _atom_site_occupancy
  _atom_site_fract_x
  _atom_site_fract_y
  _atom_site_fract_z
  _atom_site_thermal_displace_type
  _atom_site_B_iso_or_equiv
  _atom_site_type_symbol
  Cu1      1.0000 0.10776  0.12114  0.91119  Biso   1.000  Cu
  Cu2      1.0000 0.89224  0.62114  0.08881  Biso   1.000  Cu
  O1       1.0000 0.79380  0.06140  0.86040  Biso   1.000  O
  O2       1.0000 0.20620  0.56140  0.13960  Biso   1.000  O
  O3       1.0000 0.42930  0.18020  0.95140  Biso   1.000  O
  O4       1.0000 0.57070  0.68020  0.04860  Biso   1.000  O
  H1       1.0000 0.51390  0.13010  0.91410  Biso   1.000  H
  H2       1.0000 0.48610  0.63010  0.08590  Biso   1.000  H
  H3       1.0000 0.46890  0.26970  0.96840  Biso   1.000  H
  H4       1.0000 0.53110  0.76970  0.03160  Biso   1.000  H
  N1       1.0000 0.17900  0.05070  0.75800  Biso   1.000  N
  N2       1.0000 0.82100  0.55070  0.24200  Biso   1.000  N
  H5       1.0000 0.32410  0.00250  0.77020  Biso   1.000  H
  H6       1.0000 0.67590  0.50250  0.22980  Biso   1.000  H
  O5       1.0000 0.04080  0.37440  0.82570  Biso   1.000  O
  O6       1.0000 0.95920  0.87440  0.17430  Biso   1.000  O
  H7       1.0000 0.01570  0.45580  0.85570  Biso   1.000  H
  H8       1.0000 0.98430  0.95580  0.14430  Biso   1.000  H
  C1       1.0000 0.00870  0.93300  0.72610  Biso   1.000  C
  C2       1.0000 0.99130  0.43300  0.27390  Biso   1.000  C
  H9       1.0000 0.98790  0.92850  0.64380  Biso   1.000  H
  H10      1.0000 0.01210  0.42850  0.35620  Biso   1.000  H
  O7       1.0000 0.60800  0.91440  0.73160  Biso   1.000  O
  O8       1.0000 0.39200  0.41440  0.26840  Biso   1.000  O
  C3       1.0000 0.98290  0.26110  0.64640  Biso   1.000  C
  C4       1.0000 0.01710  0.76110  0.35360  Biso   1.000  C
  C5       1.0000 0.78160  0.97260  0.77370  Biso   1.000  C
  C6       1.0000 0.21840  0.47260  0.22630  Biso   1.000  C
  C7       1.0000 0.91210  0.36330  0.72640  Biso   1.000  C
  C8       1.0000 0.08790  0.86330  0.27360  Biso   1.000  C
  C9       1.0000 0.71540  0.45020  0.70320  Biso   1.000  C
  C10      1.0000 0.28460  0.95020  0.29680  Biso   1.000  C
  H11      1.0000 0.66630  0.51720  0.75680  Biso   1.000  H
  H12      1.0000 0.33370  0.01720  0.24320  Biso   1.000  H
  C11      1.0000 0.85460  0.24730  0.54510  Biso   1.000  C
  C12      1.0000 0.14540  0.74730  0.45490  Biso   1.000  C
  H13      1.0000 0.89860  0.17820  0.49180  Biso   1.000  H
  H14      1.0000 0.10140  0.67820  0.50820  Biso   1.000  H
  C13      1.0000 0.19770  0.17100  0.67260  Biso   1.000  C
  C14      1.0000 0.80230  0.67100  0.32740  Biso   1.000  C
  H15      1.0000 0.24260  0.12500  0.60350  Biso   1.000  H
  H16      1.0000 0.75740  0.62500  0.39650  Biso   1.000  H
  H17      1.0000 0.31730  0.24030  0.69870  Biso   1.000  H
  H18      1.0000 0.68270  0.74030  0.30130  Biso   1.000  H
  C15      1.0000 0.59500  0.43500  0.60000  Biso   1.000  C
  C16      1.0000 0.40500  0.93500  0.40000  Biso   1.000  C
  H19      1.0000 0.46660  0.49380  0.58350  Biso   1.000  H
  H20      1.0000 0.53340  0.99380  0.41650  Biso   1.000  H
  C17      1.0000 0.08540  0.77620  0.77070  Biso   1.000  C
  C18      1.0000 0.91460  0.27620  0.22930  Biso   1.000  C
  H21      1.0000 0.98690  0.69920  0.73580  Biso   1.000  H
  H22      1.0000 0.01310  0.19920  0.26420  Biso   1.000  H
  H23      1.0000 0.23820  0.75660  0.74930  Biso   1.000  H
  H24      1.0000 0.76180  0.25660  0.25070  Biso   1.000  H
  C19      1.0000 0.08080  0.76380  0.89790  Biso   1.000  C
  C20      1.0000 0.91920  0.26380  0.10210  Biso   1.000  C
  C21      1.0000 0.66460  0.33330  0.52200  Biso   1.000  C
  C22      1.0000 0.33540  0.83330  0.47800  Biso   1.000  C
  H25      1.0000 0.58230  0.32290  0.45310  Biso   1.000  H
  H26      1.0000 0.41770  0.82290  0.54690  Biso   1.000  H
  O9       1.0000 0.96260  0.65390  0.93430  Biso   1.000  O
  O10      1.0000 0.03740  0.15390  0.06570  Biso   1.000  O
  O11      1.0000 0.18420  0.85860  0.96020  Biso   1.000  O
  O12      1.0000 0.81580  0.35860  0.03980  Biso   1.000  O
