data_image0
_cell_length_a       21.678
_cell_length_b       9.071
_cell_length_c       13.786
_cell_angle_alpha    90
_cell_angle_beta     122.738
_cell_angle_gamma    90

_symmetry_space_group_name_H-M    "P 1"
_symmetry_int_tables_number       1

loop_
  _symmetry_equiv_pos_as_xyz
  'x, y, z'

loop_
  _atom_site_label
  _atom_site_occupancy
  _atom_site_fract_x
  _atom_site_fract_y
  _atom_site_fract_z
  _atom_site_thermal_displace_type
  _atom_site_B_iso_or_equiv
  _atom_site_type_symbol
  Cu1      1.0000 0.21571  0.62617  0.31273  Biso   1.000  Cu
  Cu2      1.0000 0.78429  0.62617  0.18727  Biso   1.000  Cu
  Cu3      1.0000 0.71571  0.12617  0.31273  Biso   1.000  Cu
  Cu4      1.0000 0.28429  0.12617  0.18727  Biso   1.000  Cu
  Cu5      1.0000 0.78429  0.37383  0.68727  Biso   1.000  Cu
  Cu6      1.0000 0.21571  0.37383  0.81273  Biso   1.000  Cu
  Cu7      1.0000 0.28429  0.87383  0.68727  Biso   1.000  Cu
  Cu8      1.0000 0.71571  0.87383  0.81273  Biso   1.000  Cu
  O1       1.0000 0.12690  0.74070  0.23670  Biso   1.000  O
  O2       1.0000 0.87310  0.74070  0.26330  Biso   1.000  O
  O3       1.0000 0.62690  0.24070  0.23670  Biso   1.000  O
  O4       1.0000 0.37310  0.24070  0.26330  Biso   1.000  O
  O5       1.0000 0.87310  0.25930  0.76330  Biso   1.000  O
  O6       1.0000 0.12690  0.25930  0.73670  Biso   1.000  O
  O7       1.0000 0.37310  0.75930  0.76330  Biso   1.000  O
  O8       1.0000 0.62690  0.75930  0.73670  Biso   1.000  O
  O9       1.0000 0.18920  0.94080  0.33150  Biso   1.000  O
  O10      1.0000 0.81080  0.94080  0.16850  Biso   1.000  O
  O11      1.0000 0.68920  0.44080  0.33150  Biso   1.000  O
  O12      1.0000 0.31080  0.44080  0.16850  Biso   1.000  O
  O13      1.0000 0.81080  0.05920  0.66850  Biso   1.000  O
  O14      1.0000 0.18920  0.05920  0.83150  Biso   1.000  O
  O15      1.0000 0.31080  0.55920  0.66850  Biso   1.000  O
  O16      1.0000 0.68920  0.55920  0.83150  Biso   1.000  O
  O17      1.0000 0.80610  0.98340  0.89770  Biso   1.000  O
  O18      1.0000 0.19390  0.98340  0.60230  Biso   1.000  O
  O19      1.0000 0.30610  0.48340  0.89770  Biso   1.000  O
  O20      1.0000 0.69390  0.48340  0.60230  Biso   1.000  O
  O21      1.0000 0.19390  0.01660  0.10230  Biso   1.000  O
  O22      1.0000 0.80610  0.01660  0.39770  Biso   1.000  O
  O23      1.0000 0.69390  0.51660  0.10230  Biso   1.000  O
  O24      1.0000 0.30610  0.51660  0.39770  Biso   1.000  O
  O25      1.0000 0.85750  0.76580  0.96960  Biso   1.000  O
  O26      1.0000 0.14250  0.76580  0.53040  Biso   1.000  O
  O27      1.0000 0.35750  0.26580  0.96960  Biso   1.000  O
  O28      1.0000 0.64250  0.26580  0.53040  Biso   1.000  O
  O29      1.0000 0.14250  0.23420  0.03040  Biso   1.000  O
  O30      1.0000 0.85750  0.23420  0.46960  Biso   1.000  O
  O31      1.0000 0.64250  0.73420  0.03040  Biso   1.000  O
  O32      1.0000 0.35750  0.73420  0.46960  Biso   1.000  O
  O33      1.0000 0.01200  0.35100  0.14320  Biso   1.000  O
  O34      1.0000 0.98800  0.35100  0.35680  Biso   1.000  O
  O35      1.0000 0.51200  0.85100  0.14320  Biso   1.000  O
  O36      1.0000 0.48800  0.85100  0.35680  Biso   1.000  O
  O37      1.0000 0.98800  0.64900  0.85680  Biso   1.000  O
  O38      1.0000 0.01200  0.64900  0.64320  Biso   1.000  O
  O39      1.0000 0.48800  0.14900  0.85680  Biso   1.000  O
  O40      1.0000 0.51200  0.14900  0.64320  Biso   1.000  O
  O41      1.0000 0.20210  0.59010  0.44160  Biso   1.000  O
  O42      1.0000 0.79790  0.59010  0.05840  Biso   1.000  O
  O43      1.0000 0.70210  0.09010  0.44160  Biso   1.000  O
  O44      1.0000 0.29790  0.09010  0.05840  Biso   1.000  O
  O45      1.0000 0.79790  0.40990  0.55840  Biso   1.000  O
  O46      1.0000 0.20210  0.40990  0.94160  Biso   1.000  O
  O47      1.0000 0.29790  0.90990  0.55840  Biso   1.000  O
  O48      1.0000 0.70210  0.90990  0.94160  Biso   1.000  O
  H1       1.0000 0.17110  0.64420  0.44440  Biso   1.000  H
  H2       1.0000 0.82890  0.64420  0.05560  Biso   1.000  H
  H3       1.0000 0.67110  0.14420  0.44440  Biso   1.000  H
  H4       1.0000 0.32890  0.14420  0.05560  Biso   1.000  H
  H5       1.0000 0.82890  0.35580  0.55560  Biso   1.000  H
  H6       1.0000 0.17110  0.35580  0.94440  Biso   1.000  H
  H7       1.0000 0.32890  0.85580  0.55560  Biso   1.000  H
  H8       1.0000 0.67110  0.85580  0.94440  Biso   1.000  H
  H9       1.0000 0.24370  0.57770  0.50360  Biso   1.000  H
  H10      1.0000 0.75630  0.57770  0.99640  Biso   1.000  H
  H11      1.0000 0.74370  0.07770  0.50360  Biso   1.000  H
  H12      1.0000 0.25630  0.07770  0.99640  Biso   1.000  H
  H13      1.0000 0.75630  0.42230  0.49640  Biso   1.000  H
  H14      1.0000 0.24370  0.42230  0.00360  Biso   1.000  H
  H15      1.0000 0.25630  0.92230  0.49640  Biso   1.000  H
  H16      1.0000 0.74370  0.92230  0.00360  Biso   1.000  H
  O49      1.0000 0.15790  0.41610  0.21240  Biso   1.000  O
  O50      1.0000 0.84210  0.41610  0.28760  Biso   1.000  O
  O51      1.0000 0.65790  0.91610  0.21240  Biso   1.000  O
  O52      1.0000 0.34210  0.91610  0.28760  Biso   1.000  O
  O53      1.0000 0.84210  0.58390  0.78760  Biso   1.000  O
  O54      1.0000 0.15790  0.58390  0.71240  Biso   1.000  O
  O55      1.0000 0.34210  0.08390  0.78760  Biso   1.000  O
  O56      1.0000 0.65790  0.08390  0.71240  Biso   1.000  O
  H17      1.0000 0.11770  0.40360  0.20810  Biso   1.000  H
  H18      1.0000 0.88230  0.40360  0.29190  Biso   1.000  H
  H19      1.0000 0.61770  0.90360  0.20810  Biso   1.000  H
  H20      1.0000 0.38230  0.90360  0.29190  Biso   1.000  H
  H21      1.0000 0.88230  0.59640  0.79190  Biso   1.000  H
  H22      1.0000 0.11770  0.59640  0.70810  Biso   1.000  H
  H23      1.0000 0.38230  0.09640  0.79190  Biso   1.000  H
  H24      1.0000 0.61770  0.09640  0.70810  Biso   1.000  H
  H25      1.0000 0.17410  0.39190  0.17050  Biso   1.000  H
  H26      1.0000 0.82590  0.39190  0.32950  Biso   1.000  H
  H27      1.0000 0.67410  0.89190  0.17050  Biso   1.000  H
  H28      1.0000 0.32590  0.89190  0.32950  Biso   1.000  H
  H29      1.0000 0.82590  0.60810  0.82950  Biso   1.000  H
  H30      1.0000 0.17410  0.60810  0.67050  Biso   1.000  H
  H31      1.0000 0.32590  0.10810  0.82950  Biso   1.000  H
  H32      1.0000 0.67410  0.10810  0.67050  Biso   1.000  H
  O57      1.0000 0.23270  0.67280  0.18640  Biso   1.000  O
  O58      1.0000 0.76730  0.67280  0.31360  Biso   1.000  O
  O59      1.0000 0.73270  0.17280  0.18640  Biso   1.000  O
  O60      1.0000 0.26730  0.17280  0.31360  Biso   1.000  O
  O61      1.0000 0.76730  0.32720  0.81360  Biso   1.000  O
  O62      1.0000 0.23270  0.32720  0.68640  Biso   1.000  O
  O63      1.0000 0.26730  0.82720  0.81360  Biso   1.000  O
  O64      1.0000 0.73270  0.82720  0.68640  Biso   1.000  O
  H33      1.0000 0.25250  0.75730  0.19820  Biso   1.000  H
  H34      1.0000 0.74750  0.75730  0.30180  Biso   1.000  H
  H35      1.0000 0.75250  0.25730  0.19820  Biso   1.000  H
  H36      1.0000 0.24750  0.25730  0.30180  Biso   1.000  H
  H37      1.0000 0.74750  0.24270  0.80180  Biso   1.000  H
  H38      1.0000 0.25250  0.24270  0.69820  Biso   1.000  H
  H39      1.0000 0.24750  0.74270  0.80180  Biso   1.000  H
  H40      1.0000 0.75250  0.74270  0.69820  Biso   1.000  H
  H41      1.0000 0.25860  0.60090  0.18850  Biso   1.000  H
  H42      1.0000 0.74140  0.60090  0.31150  Biso   1.000  H
  H43      1.0000 0.75860  0.10090  0.18850  Biso   1.000  H
  H44      1.0000 0.24140  0.10090  0.31150  Biso   1.000  H
  H45      1.0000 0.74140  0.39910  0.81150  Biso   1.000  H
  H46      1.0000 0.25860  0.39910  0.68850  Biso   1.000  H
  H47      1.0000 0.24140  0.89910  0.81150  Biso   1.000  H
  H48      1.0000 0.75860  0.89910  0.68850  Biso   1.000  H
  C1       1.0000 0.13070  0.87810  0.25850  Biso   1.000  C
  C2       1.0000 0.86930  0.87810  0.24150  Biso   1.000  C
  C3       1.0000 0.63070  0.37810  0.25850  Biso   1.000  C
  C4       1.0000 0.36930  0.37810  0.24150  Biso   1.000  C
  C5       1.0000 0.86930  0.12190  0.74150  Biso   1.000  C
  C6       1.0000 0.13070  0.12190  0.75850  Biso   1.000  C
  C7       1.0000 0.36930  0.62190  0.74150  Biso   1.000  C
  C8       1.0000 0.63070  0.62190  0.75850  Biso   1.000  C
  C9       1.0000 0.06170  0.96450  0.18900  Biso   1.000  C
  C10      1.0000 0.93830  0.96450  0.31100  Biso   1.000  C
  C11      1.0000 0.56170  0.46450  0.18900  Biso   1.000  C
  C12      1.0000 0.43830  0.46450  0.31100  Biso   1.000  C
  C13      1.0000 0.93830  0.03550  0.81100  Biso   1.000  C
  C14      1.0000 0.06170  0.03550  0.68900  Biso   1.000  C
  C15      1.0000 0.43830  0.53550  0.81100  Biso   1.000  C
  C16      1.0000 0.56170  0.53550  0.68900  Biso   1.000  C
  C17      1.0000 0.06410  0.11800  0.19880  Biso   1.000  C
  C18      1.0000 0.93590  0.11800  0.30120  Biso   1.000  C
  C19      1.0000 0.56410  0.61800  0.19880  Biso   1.000  C
  C20      1.0000 0.43590  0.61800  0.30120  Biso   1.000  C
  C21      1.0000 0.93590  0.88200  0.80120  Biso   1.000  C
  C22      1.0000 0.06410  0.88200  0.69880  Biso   1.000  C
  C23      1.0000 0.43590  0.38200  0.80120  Biso   1.000  C
  C24      1.0000 0.56410  0.38200  0.69880  Biso   1.000  C
  H49      1.0000 0.10780  0.16450  0.25230  Biso   1.000  H
  H50      1.0000 0.89220  0.16450  0.24770  Biso   1.000  H
  H51      1.0000 0.60780  0.66450  0.25230  Biso   1.000  H
  H52      1.0000 0.39220  0.66450  0.24770  Biso   1.000  H
  H53      1.0000 0.89220  0.83550  0.74770  Biso   1.000  H
  H54      1.0000 0.10780  0.83550  0.75230  Biso   1.000  H
  H55      1.0000 0.39220  0.33550  0.74770  Biso   1.000  H
  H56      1.0000 0.60780  0.33550  0.75230  Biso   1.000  H
  C25      1.0000 0.00230  0.20040  0.12990  Biso   1.000  C
  C26      1.0000 0.99770  0.20040  0.37010  Biso   1.000  C
  C27      1.0000 0.50230  0.70040  0.12990  Biso   1.000  C
  C28      1.0000 0.49770  0.70040  0.37010  Biso   1.000  C
  C29      1.0000 0.99770  0.79960  0.87010  Biso   1.000  C
  C30      1.0000 0.00230  0.79960  0.62990  Biso   1.000  C
  C31      1.0000 0.49770  0.29960  0.87010  Biso   1.000  C
  C32      1.0000 0.50230  0.29960  0.62990  Biso   1.000  C
  C33      1.0000 0.93590  0.13430  0.05370  Biso   1.000  C
  C34      1.0000 0.06410  0.13430  0.44630  Biso   1.000  C
  C35      1.0000 0.43590  0.63430  0.05370  Biso   1.000  C
  C36      1.0000 0.56410  0.63430  0.44630  Biso   1.000  C
  C37      1.0000 0.06410  0.86570  0.94630  Biso   1.000  C
  C38      1.0000 0.93590  0.86570  0.55370  Biso   1.000  C
  C39      1.0000 0.56410  0.36570  0.94630  Biso   1.000  C
  C40      1.0000 0.43590  0.36570  0.55370  Biso   1.000  C
  H57      1.0000 0.89410  0.19100  0.00790  Biso   1.000  H
  H58      1.0000 0.10590  0.19100  0.49210  Biso   1.000  H
  H59      1.0000 0.39410  0.69100  0.00790  Biso   1.000  H
  H60      1.0000 0.60590  0.69100  0.49210  Biso   1.000  H
  H61      1.0000 0.10590  0.80900  0.99210  Biso   1.000  H
  H62      1.0000 0.89410  0.80900  0.50790  Biso   1.000  H
  H63      1.0000 0.60590  0.30900  0.99210  Biso   1.000  H
  H64      1.0000 0.39410  0.30900  0.50790  Biso   1.000  H
  C41      1.0000 0.93240  0.97950  0.04680  Biso   1.000  C
  C42      1.0000 0.06760  0.97950  0.45320  Biso   1.000  C
  C43      1.0000 0.43240  0.47950  0.04680  Biso   1.000  C
  C44      1.0000 0.56760  0.47950  0.45320  Biso   1.000  C
  C45      1.0000 0.06760  0.02050  0.95320  Biso   1.000  C
  C46      1.0000 0.93240  0.02050  0.54680  Biso   1.000  C
  C47      1.0000 0.56760  0.52050  0.95320  Biso   1.000  C
  C48      1.0000 0.43240  0.52050  0.54680  Biso   1.000  C
  C49      1.0000 0.99530  0.89760  0.11380  Biso   1.000  C
  C50      1.0000 0.00470  0.89760  0.38620  Biso   1.000  C
  C51      1.0000 0.49530  0.39760  0.11380  Biso   1.000  C
  C52      1.0000 0.50470  0.39760  0.38620  Biso   1.000  C
  C53      1.0000 0.00470  0.10240  0.88620  Biso   1.000  C
  C54      1.0000 0.99530  0.10240  0.61380  Biso   1.000  C
  C55      1.0000 0.50470  0.60240  0.88620  Biso   1.000  C
  C56      1.0000 0.49530  0.60240  0.61380  Biso   1.000  C
  H65      1.0000 0.99290  0.79530  0.10810  Biso   1.000  H
  H66      1.0000 0.00710  0.79530  0.39190  Biso   1.000  H
  H67      1.0000 0.49290  0.29530  0.10810  Biso   1.000  H
  H68      1.0000 0.50710  0.29530  0.39190  Biso   1.000  H
  H69      1.0000 0.00710  0.20470  0.89190  Biso   1.000  H
  H70      1.0000 0.99290  0.20470  0.60810  Biso   1.000  H
  H71      1.0000 0.50710  0.70470  0.89190  Biso   1.000  H
  H72      1.0000 0.49290  0.70470  0.60810  Biso   1.000  H
  C57      1.0000 0.86070  0.90390  0.96570  Biso   1.000  C
  C58      1.0000 0.13930  0.90390  0.53430  Biso   1.000  C
  C59      1.0000 0.36070  0.40390  0.96570  Biso   1.000  C
  C60      1.0000 0.63930  0.40390  0.53430  Biso   1.000  C
  C61      1.0000 0.13930  0.09610  0.03430  Biso   1.000  C
  C62      1.0000 0.86070  0.09610  0.46570  Biso   1.000  C
  C63      1.0000 0.63930  0.59610  0.03430  Biso   1.000  C
  C64      1.0000 0.36070  0.59610  0.46570  Biso   1.000  C
  C65      1.0000 0.94890  0.44060  0.08280  Biso   1.000  C
  C66      1.0000 0.05110  0.44060  0.41720  Biso   1.000  C
  C67      1.0000 0.44890  0.94060  0.08280  Biso   1.000  C
  C68      1.0000 0.55110  0.94060  0.41720  Biso   1.000  C
  C69      1.0000 0.05110  0.55940  0.91720  Biso   1.000  C
  C70      1.0000 0.94890  0.55940  0.58280  Biso   1.000  C
  C71      1.0000 0.55110  0.05940  0.91720  Biso   1.000  C
  C72      1.0000 0.44890  0.05940  0.58280  Biso   1.000  C
  H73      1.0000 0.92660  0.42770  0.00130  Biso   1.000  H
  H74      1.0000 0.07340  0.42770  0.49870  Biso   1.000  H
  H75      1.0000 0.42660  0.92770  0.00130  Biso   1.000  H
  H76      1.0000 0.57340  0.92770  0.49870  Biso   1.000  H
  H77      1.0000 0.07340  0.57230  0.99870  Biso   1.000  H
  H78      1.0000 0.92660  0.57230  0.50130  Biso   1.000  H
  H79      1.0000 0.57340  0.07230  0.99870  Biso   1.000  H
  H80      1.0000 0.42660  0.07230  0.50130  Biso   1.000  H
  H81      1.0000 0.96250  0.54210  0.10270  Biso   1.000  H
  H82      1.0000 0.03750  0.54210  0.39730  Biso   1.000  H
  H83      1.0000 0.46250  0.04210  0.10270  Biso   1.000  H
  H84      1.0000 0.53750  0.04210  0.39730  Biso   1.000  H
  H85      1.0000 0.03750  0.45790  0.89730  Biso   1.000  H
  H86      1.0000 0.96250  0.45790  0.60270  Biso   1.000  H
  H87      1.0000 0.53750  0.95790  0.89730  Biso   1.000  H
  H88      1.0000 0.46250  0.95790  0.60270  Biso   1.000  H
  H89      1.0000 0.91460  0.41300  0.10330  Biso   1.000  H
  H90      1.0000 0.08540  0.41300  0.39670  Biso   1.000  H
  H91      1.0000 0.41460  0.91300  0.10330  Biso   1.000  H
  H92      1.0000 0.58540  0.91300  0.39670  Biso   1.000  H
  H93      1.0000 0.08540  0.58700  0.89670  Biso   1.000  H
  H94      1.0000 0.91460  0.58700  0.60330  Biso   1.000  H
  H95      1.0000 0.58540  0.08700  0.89670  Biso   1.000  H
  H96      1.0000 0.41460  0.08700  0.60330  Biso   1.000  H
