data_image0
_cell_length_a       13.676
_cell_length_b       10.804
_cell_length_c       9.528
_cell_angle_alpha    90
_cell_angle_beta     90
_cell_angle_gamma    90

_symmetry_space_group_name_H-M    "P 1"
_symmetry_int_tables_number       1

loop_
  _symmetry_equiv_pos_as_xyz
  'x, y, z'

loop_
  _atom_site_label
  _atom_site_occupancy
  _atom_site_fract_x
  _atom_site_fract_y
  _atom_site_fract_z
  _atom_site_thermal_displace_type
  _atom_site_B_iso_or_equiv
  _atom_site_type_symbol
  Cu1      1.0000 0.50000  0.00000  0.50000  Biso   1.000  Cu
  Cu2      1.0000 0.00000  0.00000  0.00000  Biso   1.000  Cu
  Cu3      1.0000 0.00000  0.50000  0.00000  Biso   1.000  Cu
  Cu4      1.0000 0.50000  0.50000  0.50000  Biso   1.000  Cu
  N1       1.0000 0.36300  0.98580  0.57330  Biso   1.000  N
  N2       1.0000 0.13700  0.01420  0.07330  Biso   1.000  N
  N3       1.0000 0.86300  0.51420  0.92670  Biso   1.000  N
  N4       1.0000 0.63700  0.48580  0.42670  Biso   1.000  N
  N5       1.0000 0.63700  0.01420  0.42670  Biso   1.000  N
  N6       1.0000 0.86300  0.98580  0.92670  Biso   1.000  N
  N7       1.0000 0.13700  0.48580  0.07330  Biso   1.000  N
  N8       1.0000 0.36300  0.51420  0.57330  Biso   1.000  N
  N9       1.0000 0.45980  0.14050  0.37680  Biso   1.000  N
  N10      1.0000 0.04020  0.85950  0.87680  Biso   1.000  N
  N11      1.0000 0.95980  0.35950  0.12320  Biso   1.000  N
  N12      1.0000 0.54020  0.64050  0.62320  Biso   1.000  N
  N13      1.0000 0.54020  0.85950  0.62320  Biso   1.000  N
  N14      1.0000 0.95980  0.14050  0.12320  Biso   1.000  N
  N15      1.0000 0.04020  0.64050  0.87680  Biso   1.000  N
  N16      1.0000 0.45980  0.35950  0.37680  Biso   1.000  N
  C1       1.0000 0.47670  0.25000  0.44190  Biso   1.000  C
  C2       1.0000 0.02330  0.75000  0.94190  Biso   1.000  C
  C3       1.0000 0.97670  0.25000  0.05810  Biso   1.000  C
  C4       1.0000 0.52330  0.75000  0.55810  Biso   1.000  C
  O1       1.0000 0.50990  0.25000  0.56710  Biso   1.000  O
  O2       1.0000 0.99010  0.75000  0.06710  Biso   1.000  O
  O3       1.0000 0.00990  0.25000  0.93290  Biso   1.000  O
  O4       1.0000 0.49010  0.75000  0.43290  Biso   1.000  O
  C5       1.0000 0.39730  0.25000  0.18390  Biso   1.000  C
  C6       1.0000 0.10270  0.75000  0.68390  Biso   1.000  C
  C7       1.0000 0.89730  0.25000  0.31610  Biso   1.000  C
  C8       1.0000 0.60270  0.75000  0.81610  Biso   1.000  C
  C9       1.0000 0.41960  0.14090  0.24900  Biso   1.000  C
  C10      1.0000 0.08040  0.85910  0.74900  Biso   1.000  C
  C11      1.0000 0.91960  0.35910  0.25100  Biso   1.000  C
  C12      1.0000 0.58040  0.64090  0.75100  Biso   1.000  C
  C13      1.0000 0.58040  0.85910  0.75100  Biso   1.000  C
  C14      1.0000 0.91960  0.14090  0.25100  Biso   1.000  C
  C15      1.0000 0.08040  0.64090  0.74900  Biso   1.000  C
  C16      1.0000 0.41960  0.35910  0.24900  Biso   1.000  C
  C17      1.0000 0.40270  0.01710  0.18170  Biso   1.000  C
  C18      1.0000 0.09730  0.98290  0.68170  Biso   1.000  C
  C19      1.0000 0.90270  0.48290  0.31830  Biso   1.000  C
  C20      1.0000 0.59730  0.51710  0.81830  Biso   1.000  C
  C21      1.0000 0.59730  0.98290  0.81830  Biso   1.000  C
  C22      1.0000 0.90270  0.01710  0.31830  Biso   1.000  C
  C23      1.0000 0.09730  0.51710  0.68170  Biso   1.000  C
  C24      1.0000 0.40270  0.48290  0.18170  Biso   1.000  C
  Cl1      1.0000 0.32540  0.75000  0.94460  Biso   1.000  Cl
  Cl2      1.0000 0.17460  0.25000  0.44460  Biso   1.000  Cl
  Cl3      1.0000 0.82540  0.75000  0.55540  Biso   1.000  Cl
  Cl4      1.0000 0.67460  0.25000  0.05540  Biso   1.000  Cl
  O5       1.0000 0.24180  0.75000  0.03380  Biso   1.000  O
  O6       1.0000 0.25820  0.25000  0.53380  Biso   1.000  O
  O7       1.0000 0.74180  0.75000  0.46620  Biso   1.000  O
  O8       1.0000 0.75820  0.25000  0.96620  Biso   1.000  O
  O9       1.0000 0.41000  0.75000  0.02860  Biso   1.000  O
  O10      1.0000 0.09000  0.25000  0.52860  Biso   1.000  O
  O11      1.0000 0.91000  0.75000  0.47140  Biso   1.000  O
  O12      1.0000 0.59000  0.25000  0.97140  Biso   1.000  O
  O13      1.0000 0.32210  0.85850  0.86410  Biso   1.000  O
  O14      1.0000 0.17790  0.14150  0.36410  Biso   1.000  O
  O15      1.0000 0.82210  0.64150  0.63590  Biso   1.000  O
  O16      1.0000 0.67790  0.35850  0.13590  Biso   1.000  O
  O17      1.0000 0.67790  0.14150  0.13590  Biso   1.000  O
  O18      1.0000 0.82210  0.85850  0.63590  Biso   1.000  O
  O19      1.0000 0.17790  0.35850  0.36410  Biso   1.000  O
  O20      1.0000 0.32210  0.64150  0.86410  Biso   1.000  O
  O21      1.0000 0.41060  0.25000  0.81120  Biso   1.000  O
  O22      1.0000 0.08940  0.75000  0.31120  Biso   1.000  O
  O23      1.0000 0.91060  0.25000  0.68880  Biso   1.000  O
  O24      1.0000 0.58940  0.75000  0.18880  Biso   1.000  O
  O25      1.0000 0.22080  0.25000  0.90780  Biso   1.000  O
  O26      1.0000 0.27920  0.75000  0.40780  Biso   1.000  O
  O27      1.0000 0.72080  0.25000  0.59220  Biso   1.000  O
  O28      1.0000 0.77920  0.75000  0.09220  Biso   1.000  O
