data_image0
_cell_length_a       14.0009
_cell_length_b       7.9424
_cell_length_c       22.684
_cell_angle_alpha    90
_cell_angle_beta     90
_cell_angle_gamma    90

_symmetry_space_group_name_H-M    "P 1"
_symmetry_int_tables_number       1

loop_
  _symmetry_equiv_pos_as_xyz
  'x, y, z'

loop_
  _atom_site_label
  _atom_site_occupancy
  _atom_site_fract_x
  _atom_site_fract_y
  _atom_site_fract_z
  _atom_site_thermal_displace_type
  _atom_site_B_iso_or_equiv
  _atom_site_type_symbol
  Cu1      1.0000 0.36079  0.41198  0.37227  Biso   1.000  Cu
  Cu2      1.0000 0.13921  0.58802  0.87227  Biso   1.000  Cu
  Cu3      1.0000 0.63921  0.91198  0.12773  Biso   1.000  Cu
  Cu4      1.0000 0.86079  0.08802  0.62773  Biso   1.000  Cu
  Cu5      1.0000 0.63921  0.58802  0.62773  Biso   1.000  Cu
  Cu6      1.0000 0.86079  0.41198  0.12773  Biso   1.000  Cu
  Cu7      1.0000 0.36079  0.08802  0.87227  Biso   1.000  Cu
  Cu8      1.0000 0.13921  0.91198  0.37227  Biso   1.000  Cu
  N1       1.0000 0.38030  0.30110  0.45035  Biso   1.000  N
  N2       1.0000 0.11970  0.69890  0.95035  Biso   1.000  N
  N3       1.0000 0.61970  0.80110  0.04965  Biso   1.000  N
  N4       1.0000 0.88030  0.19890  0.54965  Biso   1.000  N
  N5       1.0000 0.61970  0.69890  0.54965  Biso   1.000  N
  N6       1.0000 0.88030  0.30110  0.04965  Biso   1.000  N
  N7       1.0000 0.38030  0.19890  0.95035  Biso   1.000  N
  N8       1.0000 0.11970  0.80110  0.45035  Biso   1.000  N
  C1       1.0000 0.31720  0.21880  0.48319  Biso   1.000  C
  C2       1.0000 0.18280  0.78120  0.98319  Biso   1.000  C
  C3       1.0000 0.68280  0.71880  0.01681  Biso   1.000  C
  C4       1.0000 0.81720  0.28120  0.51681  Biso   1.000  C
  C5       1.0000 0.68280  0.78120  0.51681  Biso   1.000  C
  C6       1.0000 0.81720  0.21880  0.01681  Biso   1.000  C
  C7       1.0000 0.31720  0.28120  0.98319  Biso   1.000  C
  C8       1.0000 0.18280  0.71880  0.48319  Biso   1.000  C
  H1       1.0000 0.25170  0.21820  0.47230  Biso   1.000  H
  H2       1.0000 0.24830  0.78180  0.97230  Biso   1.000  H
  H3       1.0000 0.74830  0.71820  0.02770  Biso   1.000  H
  H4       1.0000 0.75170  0.28180  0.52770  Biso   1.000  H
  H5       1.0000 0.74830  0.78180  0.52770  Biso   1.000  H
  H6       1.0000 0.75170  0.21820  0.02770  Biso   1.000  H
  H7       1.0000 0.25170  0.28180  0.97230  Biso   1.000  H
  H8       1.0000 0.24830  0.71820  0.47230  Biso   1.000  H
  C9       1.0000 0.34680  0.13350  0.53354  Biso   1.000  C
  C10      1.0000 0.15320  0.86650  0.03354  Biso   1.000  C
  C11      1.0000 0.65320  0.63350  0.96646  Biso   1.000  C
  C12      1.0000 0.84680  0.36650  0.46646  Biso   1.000  C
  C13      1.0000 0.65320  0.86650  0.46646  Biso   1.000  C
  C14      1.0000 0.84680  0.13350  0.96646  Biso   1.000  C
  C15      1.0000 0.34680  0.36650  0.03354  Biso   1.000  C
  C16      1.0000 0.15320  0.63350  0.53354  Biso   1.000  C
  H9       1.0000 0.30040  0.07590  0.55650  Biso   1.000  H
  H10      1.0000 0.19960  0.92410  0.05650  Biso   1.000  H
  H11      1.0000 0.69960  0.57590  0.94350  Biso   1.000  H
  H12      1.0000 0.80040  0.42410  0.44350  Biso   1.000  H
  H13      1.0000 0.69960  0.92410  0.44350  Biso   1.000  H
  H14      1.0000 0.80040  0.07590  0.94350  Biso   1.000  H
  H15      1.0000 0.30040  0.42410  0.05650  Biso   1.000  H
  H16      1.0000 0.19960  0.57590  0.55650  Biso   1.000  H
  N9       1.0000 0.43820  0.12930  0.55092  Biso   1.000  N
  N10      1.0000 0.06180  0.87070  0.05092  Biso   1.000  N
  N11      1.0000 0.56180  0.62930  0.94908  Biso   1.000  N
  N12      1.0000 0.93820  0.37070  0.44908  Biso   1.000  N
  N13      1.0000 0.56180  0.87070  0.44908  Biso   1.000  N
  N14      1.0000 0.93820  0.12930  0.94908  Biso   1.000  N
  N15      1.0000 0.43820  0.37070  0.05092  Biso   1.000  N
  N16      1.0000 0.06180  0.62930  0.55092  Biso   1.000  N
  C17      1.0000 0.50040  0.21450  0.51768  Biso   1.000  C
  C18      1.0000 0.99960  0.78550  0.01768  Biso   1.000  C
  C19      1.0000 0.49960  0.71450  0.98232  Biso   1.000  C
  C20      1.0000 0.00040  0.28550  0.48232  Biso   1.000  C
  C21      1.0000 0.49960  0.78550  0.48232  Biso   1.000  C
  C22      1.0000 0.00040  0.21450  0.98232  Biso   1.000  C
  C23      1.0000 0.50040  0.28550  0.01768  Biso   1.000  C
  C24      1.0000 0.99960  0.71450  0.51768  Biso   1.000  C
  H17      1.0000 0.56570  0.21680  0.52910  Biso   1.000  H
  H18      1.0000 0.93430  0.78320  0.02910  Biso   1.000  H
  H19      1.0000 0.43430  0.71680  0.97090  Biso   1.000  H
  H20      1.0000 0.06570  0.28320  0.47090  Biso   1.000  H
  H21      1.0000 0.43430  0.78320  0.47090  Biso   1.000  H
  H22      1.0000 0.06570  0.21680  0.97090  Biso   1.000  H
  H23      1.0000 0.56570  0.28320  0.02910  Biso   1.000  H
  H24      1.0000 0.93430  0.71680  0.52910  Biso   1.000  H
  C25      1.0000 0.47280  0.29940  0.46725  Biso   1.000  C
  C26      1.0000 0.02720  0.70060  0.96725  Biso   1.000  C
  C27      1.0000 0.52720  0.79940  0.03275  Biso   1.000  C
  C28      1.0000 0.97280  0.20060  0.53275  Biso   1.000  C
  C29      1.0000 0.52720  0.70060  0.53275  Biso   1.000  C
  C30      1.0000 0.97280  0.29940  0.03275  Biso   1.000  C
  C31      1.0000 0.47280  0.20060  0.96725  Biso   1.000  C
  C32      1.0000 0.02720  0.79940  0.46725  Biso   1.000  C
  C33      1.0000 0.54050  0.39560  0.42740  Biso   1.000  C
  C34      1.0000 0.95950  0.60440  0.92740  Biso   1.000  C
  C35      1.0000 0.45950  0.89560  0.07260  Biso   1.000  C
  C36      1.0000 0.04050  0.10440  0.57260  Biso   1.000  C
  C37      1.0000 0.45950  0.60440  0.57260  Biso   1.000  C
  C38      1.0000 0.04050  0.39560  0.07260  Biso   1.000  C
  C39      1.0000 0.54050  0.10440  0.92740  Biso   1.000  C
  C40      1.0000 0.95950  0.89560  0.42740  Biso   1.000  C
  O1       1.0000 0.62670  0.40280  0.44037  Biso   1.000  O
  O2       1.0000 0.87330  0.59720  0.94037  Biso   1.000  O
  O3       1.0000 0.37330  0.90280  0.05963  Biso   1.000  O
  O4       1.0000 0.12670  0.09720  0.55963  Biso   1.000  O
  O5       1.0000 0.37330  0.59720  0.55963  Biso   1.000  O
  O6       1.0000 0.12670  0.40280  0.05963  Biso   1.000  O
  O7       1.0000 0.62670  0.09720  0.94037  Biso   1.000  O
  O8       1.0000 0.87330  0.90280  0.44037  Biso   1.000  O
  N17      1.0000 0.49510  0.46570  0.38214  Biso   1.000  N
  N18      1.0000 0.00490  0.53430  0.88214  Biso   1.000  N
  N19      1.0000 0.50490  0.96570  0.11786  Biso   1.000  N
  N20      1.0000 0.99510  0.03430  0.61786  Biso   1.000  N
  N21      1.0000 0.50490  0.53430  0.61786  Biso   1.000  N
  N22      1.0000 0.99510  0.46570  0.11786  Biso   1.000  N
  N23      1.0000 0.49510  0.03430  0.88214  Biso   1.000  N
  N24      1.0000 0.00490  0.96570  0.38214  Biso   1.000  N
  C41      1.0000 0.54920  0.57670  0.34335  Biso   1.000  C
  C42      1.0000 0.95080  0.42330  0.84335  Biso   1.000  C
  C43      1.0000 0.45080  0.07670  0.15665  Biso   1.000  C
  C44      1.0000 0.04920  0.92330  0.65665  Biso   1.000  C
  C45      1.0000 0.45080  0.42330  0.65665  Biso   1.000  C
  C46      1.0000 0.04920  0.57670  0.15665  Biso   1.000  C
  C47      1.0000 0.54920  0.92330  0.84335  Biso   1.000  C
  C48      1.0000 0.95080  0.07670  0.34335  Biso   1.000  C
  H25      1.0000 0.58280  0.50910  0.31310  Biso   1.000  H
  H26      1.0000 0.91720  0.49090  0.81310  Biso   1.000  H
  H27      1.0000 0.41720  0.00910  0.18690  Biso   1.000  H
  H28      1.0000 0.08280  0.99090  0.68690  Biso   1.000  H
  H29      1.0000 0.41720  0.49090  0.68690  Biso   1.000  H
  H30      1.0000 0.08280  0.50910  0.18690  Biso   1.000  H
  H31      1.0000 0.58280  0.99090  0.81310  Biso   1.000  H
  H32      1.0000 0.91720  0.00910  0.31310  Biso   1.000  H
  H33      1.0000 0.59770  0.63880  0.36650  Biso   1.000  H
  H34      1.0000 0.90230  0.36120  0.86650  Biso   1.000  H
  H35      1.0000 0.40230  0.13880  0.13350  Biso   1.000  H
  H36      1.0000 0.09770  0.86120  0.63350  Biso   1.000  H
  H37      1.0000 0.40230  0.36120  0.63350  Biso   1.000  H
  H38      1.0000 0.09770  0.63880  0.13350  Biso   1.000  H
  H39      1.0000 0.59770  0.86120  0.86650  Biso   1.000  H
  H40      1.0000 0.90230  0.13880  0.36650  Biso   1.000  H
  C49      1.0000 0.48190  0.70100  0.31350  Biso   1.000  C
  C50      1.0000 0.01810  0.29900  0.81350  Biso   1.000  C
  C51      1.0000 0.51810  0.20100  0.18650  Biso   1.000  C
  C52      1.0000 0.98190  0.79900  0.68650  Biso   1.000  C
  C53      1.0000 0.51810  0.29900  0.68650  Biso   1.000  C
  C54      1.0000 0.98190  0.70100  0.18650  Biso   1.000  C
  C55      1.0000 0.48190  0.79900  0.81350  Biso   1.000  C
  C56      1.0000 0.01810  0.20100  0.31350  Biso   1.000  C
  H41      1.0000 0.44310  0.75830  0.34390  Biso   1.000  H
  H42      1.0000 0.05690  0.24170  0.84390  Biso   1.000  H
  H43      1.0000 0.55690  0.25830  0.15610  Biso   1.000  H
  H44      1.0000 0.94310  0.74170  0.65610  Biso   1.000  H
  H45      1.0000 0.55690  0.24170  0.65610  Biso   1.000  H
  H46      1.0000 0.94310  0.75830  0.15610  Biso   1.000  H
  H47      1.0000 0.44310  0.74170  0.84390  Biso   1.000  H
  H48      1.0000 0.05690  0.25830  0.34390  Biso   1.000  H
  H49      1.0000 0.52010  0.78770  0.29280  Biso   1.000  H
  H50      1.0000 0.97990  0.21230  0.79280  Biso   1.000  H
  H51      1.0000 0.47990  0.28770  0.20720  Biso   1.000  H
  H52      1.0000 0.02010  0.71230  0.70720  Biso   1.000  H
  H53      1.0000 0.47990  0.21230  0.70720  Biso   1.000  H
  H54      1.0000 0.02010  0.78770  0.20720  Biso   1.000  H
  H55      1.0000 0.52010  0.71230  0.79280  Biso   1.000  H
  H56      1.0000 0.97990  0.28770  0.29280  Biso   1.000  H
  C57      1.0000 0.41640  0.61740  0.27001  Biso   1.000  C
  C58      1.0000 0.08360  0.38260  0.77001  Biso   1.000  C
  C59      1.0000 0.58360  0.11740  0.22999  Biso   1.000  C
  C60      1.0000 0.91640  0.88260  0.72999  Biso   1.000  C
  C61      1.0000 0.58360  0.38260  0.72999  Biso   1.000  C
  C62      1.0000 0.91640  0.61740  0.22999  Biso   1.000  C
  C63      1.0000 0.41640  0.88260  0.77001  Biso   1.000  C
  C64      1.0000 0.08360  0.11740  0.27001  Biso   1.000  C
  C65      1.0000 0.41810  0.66110  0.21033  Biso   1.000  C
  C66      1.0000 0.08190  0.33890  0.71033  Biso   1.000  C
  C67      1.0000 0.58190  0.16110  0.28967  Biso   1.000  C
  C68      1.0000 0.91810  0.83890  0.78967  Biso   1.000  C
  C69      1.0000 0.58190  0.33890  0.78967  Biso   1.000  C
  C70      1.0000 0.91810  0.66110  0.28967  Biso   1.000  C
  C71      1.0000 0.41810  0.83890  0.71033  Biso   1.000  C
  C72      1.0000 0.08190  0.16110  0.21033  Biso   1.000  C
  H57      1.0000 0.46190  0.74370  0.19680  Biso   1.000  H
  H58      1.0000 0.03810  0.25630  0.69680  Biso   1.000  H
  H59      1.0000 0.53810  0.24370  0.30320  Biso   1.000  H
  H60      1.0000 0.96190  0.75630  0.80320  Biso   1.000  H
  H61      1.0000 0.53810  0.25630  0.80320  Biso   1.000  H
  H62      1.0000 0.96190  0.74370  0.30320  Biso   1.000  H
  H63      1.0000 0.46190  0.75630  0.69680  Biso   1.000  H
  H64      1.0000 0.03810  0.24370  0.19680  Biso   1.000  H
  C73      1.0000 0.35650  0.58510  0.17090  Biso   1.000  C
  C74      1.0000 0.14350  0.41490  0.67090  Biso   1.000  C
  C75      1.0000 0.64350  0.08510  0.32910  Biso   1.000  C
  C76      1.0000 0.85650  0.91490  0.82910  Biso   1.000  C
  C77      1.0000 0.64350  0.41490  0.82910  Biso   1.000  C
  C78      1.0000 0.85650  0.58510  0.32910  Biso   1.000  C
  C79      1.0000 0.35650  0.91490  0.67090  Biso   1.000  C
  C80      1.0000 0.14350  0.08510  0.17090  Biso   1.000  C
  H65      1.0000 0.35670  0.61620  0.13050  Biso   1.000  H
  H66      1.0000 0.14330  0.38380  0.63050  Biso   1.000  H
  H67      1.0000 0.64330  0.11620  0.36950  Biso   1.000  H
  H68      1.0000 0.85670  0.88380  0.86950  Biso   1.000  H
  H69      1.0000 0.64330  0.38380  0.86950  Biso   1.000  H
  H70      1.0000 0.85670  0.61620  0.36950  Biso   1.000  H
  H71      1.0000 0.35670  0.88380  0.63050  Biso   1.000  H
  H72      1.0000 0.14330  0.11620  0.13050  Biso   1.000  H
  C81      1.0000 0.29470  0.46320  0.19148  Biso   1.000  C
  C82      1.0000 0.20530  0.53680  0.69148  Biso   1.000  C
  C83      1.0000 0.70530  0.96320  0.30852  Biso   1.000  C
  C84      1.0000 0.79470  0.03680  0.80852  Biso   1.000  C
  C85      1.0000 0.70530  0.53680  0.80852  Biso   1.000  C
  C86      1.0000 0.79470  0.46320  0.30852  Biso   1.000  C
  C87      1.0000 0.29470  0.03680  0.69148  Biso   1.000  C
  C88      1.0000 0.20530  0.96320  0.19148  Biso   1.000  C
  H73      1.0000 0.25150  0.40850  0.16550  Biso   1.000  H
  H74      1.0000 0.24850  0.59150  0.66550  Biso   1.000  H
  H75      1.0000 0.74850  0.90850  0.33450  Biso   1.000  H
  H76      1.0000 0.75150  0.09150  0.83450  Biso   1.000  H
  H77      1.0000 0.74850  0.59150  0.83450  Biso   1.000  H
  H78      1.0000 0.75150  0.40850  0.33450  Biso   1.000  H
  H79      1.0000 0.25150  0.09150  0.66550  Biso   1.000  H
  H80      1.0000 0.24850  0.90850  0.16550  Biso   1.000  H
  C89      1.0000 0.29700  0.42220  0.25079  Biso   1.000  C
  C90      1.0000 0.20300  0.57780  0.75079  Biso   1.000  C
  C91      1.0000 0.70300  0.92220  0.24921  Biso   1.000  C
  C92      1.0000 0.79700  0.07780  0.74921  Biso   1.000  C
  C93      1.0000 0.70300  0.57780  0.74921  Biso   1.000  C
  C94      1.0000 0.79700  0.42220  0.24921  Biso   1.000  C
  C95      1.0000 0.29700  0.07780  0.75079  Biso   1.000  C
  C96      1.0000 0.20300  0.92220  0.25079  Biso   1.000  C
  H81      1.0000 0.25480  0.33740  0.26470  Biso   1.000  H
  H82      1.0000 0.24520  0.66260  0.76470  Biso   1.000  H
  H83      1.0000 0.74520  0.83740  0.23530  Biso   1.000  H
  H84      1.0000 0.75480  0.16260  0.73530  Biso   1.000  H
  H85      1.0000 0.74520  0.66260  0.73530  Biso   1.000  H
  H86      1.0000 0.75480  0.33740  0.23530  Biso   1.000  H
  H87      1.0000 0.25480  0.16260  0.76470  Biso   1.000  H
  H88      1.0000 0.24520  0.83740  0.26470  Biso   1.000  H
  N25      1.0000 0.35590  0.49660  0.28962  Biso   1.000  N
  N26      1.0000 0.14410  0.50340  0.78962  Biso   1.000  N
  N27      1.0000 0.64410  0.99660  0.21038  Biso   1.000  N
  N28      1.0000 0.85590  0.00340  0.71038  Biso   1.000  N
  N29      1.0000 0.64410  0.50340  0.71038  Biso   1.000  N
  N30      1.0000 0.85590  0.49660  0.21038  Biso   1.000  N
  N31      1.0000 0.35590  0.00340  0.78962  Biso   1.000  N
  N32      1.0000 0.14410  0.99660  0.28962  Biso   1.000  N
  N33      1.0000 0.22020  0.41370  0.38312  Biso   1.000  N
  N34      1.0000 0.27980  0.58630  0.88312  Biso   1.000  N
  N35      1.0000 0.77980  0.91370  0.11688  Biso   1.000  N
  N36      1.0000 0.72020  0.08630  0.61688  Biso   1.000  N
  N37      1.0000 0.77980  0.58630  0.61688  Biso   1.000  N
  N38      1.0000 0.72020  0.41370  0.11688  Biso   1.000  N
  N39      1.0000 0.22020  0.08630  0.88312  Biso   1.000  N
  N40      1.0000 0.27980  0.91370  0.38312  Biso   1.000  N
  N41      1.0000 0.17590  0.52090  0.35740  Biso   1.000  N
  N42      1.0000 0.32410  0.47910  0.85740  Biso   1.000  N
  N43      1.0000 0.82410  0.02090  0.14260  Biso   1.000  N
  N44      1.0000 0.67590  0.97910  0.64260  Biso   1.000  N
  N45      1.0000 0.82410  0.47910  0.64260  Biso   1.000  N
  N46      1.0000 0.67590  0.52090  0.14260  Biso   1.000  N
  N47      1.0000 0.17590  0.97910  0.85740  Biso   1.000  N
  N48      1.0000 0.32410  0.02090  0.35740  Biso   1.000  N
  N49      1.0000 0.13190  0.62290  0.33241  Biso   1.000  N
  N50      1.0000 0.36810  0.37710  0.83241  Biso   1.000  N
  N51      1.0000 0.86810  0.12290  0.16759  Biso   1.000  N
  N52      1.0000 0.63190  0.87710  0.66759  Biso   1.000  N
  N53      1.0000 0.86810  0.37710  0.66759  Biso   1.000  N
  N54      1.0000 0.63190  0.62290  0.16759  Biso   1.000  N
  N55      1.0000 0.13190  0.87710  0.83241  Biso   1.000  N
  N56      1.0000 0.36810  0.12290  0.33241  Biso   1.000  N
