data_image0
_cell_length_a       12.604
_cell_length_b       14.937
_cell_length_c       6.426
_cell_angle_alpha    90
_cell_angle_beta     93.66
_cell_angle_gamma    90

_symmetry_space_group_name_H-M    "P 1"
_symmetry_int_tables_number       1

loop_
  _symmetry_equiv_pos_as_xyz
  'x, y, z'

loop_
  _atom_site_label
  _atom_site_occupancy
  _atom_site_fract_x
  _atom_site_fract_y
  _atom_site_fract_z
  _atom_site_thermal_displace_type
  _atom_site_B_iso_or_equiv
  _atom_site_type_symbol
  Cu1      1.0000 0.29746  0.34008  0.15774  Biso   1.000  Cu
  Cu2      1.0000 0.70254  0.84008  0.34226  Biso   1.000  Cu
  Cu3      1.0000 0.70254  0.65992  0.84226  Biso   1.000  Cu
  Cu4      1.0000 0.29746  0.15992  0.65774  Biso   1.000  Cu
  N1       1.0000 0.45725  0.34452  0.16740  Biso   1.000  N
  N2       1.0000 0.54275  0.84452  0.33260  Biso   1.000  N
  N3       1.0000 0.54275  0.65548  0.83260  Biso   1.000  N
  N4       1.0000 0.45725  0.15548  0.66740  Biso   1.000  N
  C1       1.0000 0.52600  0.27825  0.14240  Biso   1.000  C
  C2       1.0000 0.47400  0.77825  0.35760  Biso   1.000  C
  C3       1.0000 0.47400  0.72175  0.85760  Biso   1.000  C
  C4       1.0000 0.52600  0.22175  0.64240  Biso   1.000  C
  H1       1.0000 0.50090  0.21970  0.10870  Biso   1.000  H
  H2       1.0000 0.49910  0.71970  0.39130  Biso   1.000  H
  H3       1.0000 0.49910  0.78030  0.89130  Biso   1.000  H
  H4       1.0000 0.50090  0.28030  0.60870  Biso   1.000  H
  C5       1.0000 0.63450  0.29490  0.16570  Biso   1.000  C
  C6       1.0000 0.36550  0.79490  0.33430  Biso   1.000  C
  C7       1.0000 0.36550  0.70510  0.83430  Biso   1.000  C
  C8       1.0000 0.63450  0.20510  0.66570  Biso   1.000  C
  H5       1.0000 0.68220  0.24670  0.14740  Biso   1.000  H
  H6       1.0000 0.31780  0.74670  0.35260  Biso   1.000  H
  H7       1.0000 0.31780  0.75330  0.85260  Biso   1.000  H
  H8       1.0000 0.68220  0.25330  0.64740  Biso   1.000  H
  N5       1.0000 0.67475  0.37556  0.21260  Biso   1.000  N
  N6       1.0000 0.32525  0.87556  0.28740  Biso   1.000  N
  N7       1.0000 0.32525  0.62444  0.78740  Biso   1.000  N
  N8       1.0000 0.67475  0.12444  0.71260  Biso   1.000  N
  C9       1.0000 0.60410  0.44080  0.23700  Biso   1.000  C
  C10      1.0000 0.39590  0.94080  0.26300  Biso   1.000  C
  C11      1.0000 0.39590  0.55920  0.76300  Biso   1.000  C
  C12      1.0000 0.60410  0.05920  0.73700  Biso   1.000  C
  H9       1.0000 0.62950  0.49930  0.27000  Biso   1.000  H
  H10      1.0000 0.37050  0.99930  0.23000  Biso   1.000  H
  H11      1.0000 0.37050  0.50070  0.73000  Biso   1.000  H
  H12      1.0000 0.62950  0.00070  0.77000  Biso   1.000  H
  C13      1.0000 0.49540  0.42666  0.21630  Biso   1.000  C
  C14      1.0000 0.50460  0.92666  0.28370  Biso   1.000  C
  C15      1.0000 0.50460  0.57334  0.78370  Biso   1.000  C
  C16      1.0000 0.49540  0.07334  0.71630  Biso   1.000  C
  C17      1.0000 0.41310  0.49787  0.24900  Biso   1.000  C
  C18      1.0000 0.58690  0.99787  0.25100  Biso   1.000  C
  C19      1.0000 0.58690  0.50213  0.75100  Biso   1.000  C
  C20      1.0000 0.41310  0.00213  0.74900  Biso   1.000  C
  O1       1.0000 0.43983  0.57644  0.28730  Biso   1.000  O
  O2       1.0000 0.56017  0.07644  0.21270  Biso   1.000  O
  O3       1.0000 0.56017  0.42356  0.71270  Biso   1.000  O
  O4       1.0000 0.43983  0.92356  0.78730  Biso   1.000  O
  N9       1.0000 0.31617  0.46315  0.23250  Biso   1.000  N
  N10      1.0000 0.68383  0.96315  0.26750  Biso   1.000  N
  N11      1.0000 0.68383  0.53685  0.76750  Biso   1.000  N
  N12      1.0000 0.31617  0.03685  0.73250  Biso   1.000  N
  C21      1.0000 0.22230  0.51765  0.25350  Biso   1.000  C
  C22      1.0000 0.77770  0.01765  0.24650  Biso   1.000  C
  C23      1.0000 0.77770  0.48235  0.74650  Biso   1.000  C
  C24      1.0000 0.22230  0.98235  0.75350  Biso   1.000  C
  H13      1.0000 0.21840  0.56530  0.14610  Biso   1.000  H
  H14      1.0000 0.78160  0.06530  0.35390  Biso   1.000  H
  H15      1.0000 0.78160  0.43470  0.85390  Biso   1.000  H
  H16      1.0000 0.21840  0.93470  0.64610  Biso   1.000  H
  H17      1.0000 0.22530  0.54630  0.39260  Biso   1.000  H
  H18      1.0000 0.77470  0.04630  0.10740  Biso   1.000  H
  H19      1.0000 0.77470  0.45370  0.60740  Biso   1.000  H
  H20      1.0000 0.22530  0.95370  0.89260  Biso   1.000  H
  C25      1.0000 0.12590  0.45788  0.22680  Biso   1.000  C
  C26      1.0000 0.87410  0.95788  0.27320  Biso   1.000  C
  C27      1.0000 0.87410  0.54212  0.77320  Biso   1.000  C
  C28      1.0000 0.12590  0.04212  0.72680  Biso   1.000  C
  C29      1.0000 0.02350  0.48872  0.25410  Biso   1.000  C
  C30      1.0000 0.97650  0.98872  0.24590  Biso   1.000  C
  C31      1.0000 0.97650  0.51128  0.74590  Biso   1.000  C
  C32      1.0000 0.02350  0.01128  0.75410  Biso   1.000  C
  H21      1.0000 0.01210  0.54950  0.28970  Biso   1.000  H
  H22      1.0000 0.98790  0.04950  0.21030  Biso   1.000  H
  H23      1.0000 0.98790  0.45050  0.71030  Biso   1.000  H
  H24      1.0000 0.01210  0.95050  0.78970  Biso   1.000  H
  C33      1.0000 0.93870  0.43040  0.22920  Biso   1.000  C
  C34      1.0000 0.06130  0.93040  0.27080  Biso   1.000  C
  C35      1.0000 0.06130  0.56960  0.77080  Biso   1.000  C
  C36      1.0000 0.93870  0.06960  0.72920  Biso   1.000  C
  H25      1.0000 0.86860  0.45040  0.24990  Biso   1.000  H
  H26      1.0000 0.13140  0.95040  0.25010  Biso   1.000  H
  H27      1.0000 0.13140  0.54960  0.75010  Biso   1.000  H
  H28      1.0000 0.86860  0.04960  0.74990  Biso   1.000  H
  C37      1.0000 0.95700  0.34220  0.17350  Biso   1.000  C
  C38      1.0000 0.04300  0.84220  0.32650  Biso   1.000  C
  C39      1.0000 0.04300  0.65780  0.82650  Biso   1.000  C
  C40      1.0000 0.95700  0.15780  0.67350  Biso   1.000  C
  H29      1.0000 0.89980  0.30100  0.15460  Biso   1.000  H
  H30      1.0000 0.10020  0.80100  0.34540  Biso   1.000  H
  H31      1.0000 0.10020  0.69900  0.84540  Biso   1.000  H
  H32      1.0000 0.89980  0.19900  0.65460  Biso   1.000  H
  C41      1.0000 0.05990  0.31570  0.14610  Biso   1.000  C
  C42      1.0000 0.94010  0.81570  0.35390  Biso   1.000  C
  C43      1.0000 0.94010  0.68430  0.85390  Biso   1.000  C
  C44      1.0000 0.05990  0.18430  0.64610  Biso   1.000  C
  H33      1.0000 0.07270  0.25550  0.10750  Biso   1.000  H
  H34      1.0000 0.92730  0.75550  0.39250  Biso   1.000  H
  H35      1.0000 0.92730  0.74450  0.89250  Biso   1.000  H
  H36      1.0000 0.07270  0.24450  0.60750  Biso   1.000  H
  N13      1.0000 0.14300  0.37220  0.17230  Biso   1.000  N
  N14      1.0000 0.85700  0.87220  0.32770  Biso   1.000  N
  N15      1.0000 0.85700  0.62780  0.82770  Biso   1.000  N
  N16      1.0000 0.14300  0.12780  0.67230  Biso   1.000  N
  N17      1.0000 0.28520  0.22156  0.02270  Biso   1.000  N
  N18      1.0000 0.71480  0.72156  0.47730  Biso   1.000  N
  N19      1.0000 0.71480  0.77844  0.97730  Biso   1.000  N
  N20      1.0000 0.28520  0.27844  0.52270  Biso   1.000  N
  N21      1.0000 0.24722  0.16177  0.11890  Biso   1.000  N
  N22      1.0000 0.75278  0.66177  0.38110  Biso   1.000  N
  N23      1.0000 0.75278  0.83823  0.88110  Biso   1.000  N
  N24      1.0000 0.24722  0.33823  0.61890  Biso   1.000  N
  N25      1.0000 0.20950  0.10271  0.20350  Biso   1.000  N
  N26      1.0000 0.79050  0.60271  0.29650  Biso   1.000  N
  N27      1.0000 0.79050  0.89729  0.79650  Biso   1.000  N
  N28      1.0000 0.20950  0.39729  0.70350  Biso   1.000  N
