data_image0
_cell_length_a       10.239
_cell_length_b       11.04
_cell_length_c       12.383
_cell_angle_alpha    90
_cell_angle_beta     101.761
_cell_angle_gamma    90

_symmetry_space_group_name_H-M    "P 1"
_symmetry_int_tables_number       1

loop_
  _symmetry_equiv_pos_as_xyz
  'x, y, z'

loop_
  _atom_site_label
  _atom_site_occupancy
  _atom_site_fract_x
  _atom_site_fract_y
  _atom_site_fract_z
  _atom_site_thermal_displace_type
  _atom_site_B_iso_or_equiv
  _atom_site_type_symbol
  Cu1      1.0000 0.00000  0.00000  0.00000  Biso   1.000  Cu
  Cu2      1.0000 0.00000  0.50000  0.50000  Biso   1.000  Cu
  O1       1.0000 0.77830  0.06060  0.08560  Biso   1.000  O
  O2       1.0000 0.77830  0.43940  0.58560  Biso   1.000  O
  O3       1.0000 0.22170  0.93940  0.91440  Biso   1.000  O
  O4       1.0000 0.22170  0.56060  0.41440  Biso   1.000  O
  N1       1.0000 0.90350  0.42120  0.35590  Biso   1.000  N
  N2       1.0000 0.90350  0.07880  0.85590  Biso   1.000  N
  N3       1.0000 0.09650  0.57880  0.64410  Biso   1.000  N
  N4       1.0000 0.09650  0.92120  0.14410  Biso   1.000  N
  N5       1.0000 0.72400  0.05190  0.16940  Biso   1.000  N
  N6       1.0000 0.72400  0.44810  0.66940  Biso   1.000  N
  N7       1.0000 0.27600  0.94810  0.83060  Biso   1.000  N
  N8       1.0000 0.27600  0.55190  0.33060  Biso   1.000  N
  N9       1.0000 0.65900  0.09360  0.32260  Biso   1.000  N
  N10      1.0000 0.65900  0.40640  0.82260  Biso   1.000  N
  N11      1.0000 0.34100  0.90640  0.67740  Biso   1.000  N
  N12      1.0000 0.34100  0.59360  0.17740  Biso   1.000  N
  C1       1.0000 0.79900  0.31300  0.15430  Biso   1.000  C
  C2       1.0000 0.79900  0.18700  0.65430  Biso   1.000  C
  C3       1.0000 0.20100  0.68700  0.84570  Biso   1.000  C
  C4       1.0000 0.20100  0.81300  0.34570  Biso   1.000  C
  H1       1.0000 0.76600  0.27620  0.08670  Biso   1.000  H
  H2       1.0000 0.76600  0.22380  0.58670  Biso   1.000  H
  H3       1.0000 0.23400  0.72380  0.91330  Biso   1.000  H
  H4       1.0000 0.23400  0.77620  0.41330  Biso   1.000  H
  N13      1.0000 0.08970  0.24030  0.00560  Biso   1.000  N
  N14      1.0000 0.08970  0.25970  0.50560  Biso   1.000  N
  N15      1.0000 0.91030  0.75970  0.99440  Biso   1.000  N
  N16      1.0000 0.91030  0.74030  0.49440  Biso   1.000  N
  C5       1.0000 0.85640  0.42570  0.15950  Biso   1.000  C
  C6       1.0000 0.85640  0.07430  0.65950  Biso   1.000  C
  C7       1.0000 0.14360  0.57430  0.84050  Biso   1.000  C
  C8       1.0000 0.14360  0.92570  0.34050  Biso   1.000  C
  H5       1.0000 0.86070  0.46730  0.09490  Biso   1.000  H
  H6       1.0000 0.86070  0.03270  0.59490  Biso   1.000  H
  H7       1.0000 0.13930  0.53270  0.90510  Biso   1.000  H
  H8       1.0000 0.13930  0.96730  0.40510  Biso   1.000  H
  C9       1.0000 0.84460  0.31230  0.35140  Biso   1.000  C
  C10      1.0000 0.84460  0.18770  0.85140  Biso   1.000  C
  C11      1.0000 0.15540  0.68770  0.64860  Biso   1.000  C
  C12      1.0000 0.15540  0.81230  0.14860  Biso   1.000  C
  H9       1.0000 0.83930  0.27360  0.41710  Biso   1.000  H
  H10      1.0000 0.83930  0.22640  0.91710  Biso   1.000  H
  H11      1.0000 0.16070  0.72640  0.58290  Biso   1.000  H
  H12      1.0000 0.16070  0.77360  0.08290  Biso   1.000  H
  N17      1.0000 0.08590  0.15060  0.05530  Biso   1.000  N
  N18      1.0000 0.08590  0.34940  0.55530  Biso   1.000  N
  N19      1.0000 0.91410  0.84940  0.94470  Biso   1.000  N
  N20      1.0000 0.91410  0.65060  0.44470  Biso   1.000  N
  C13      1.0000 0.79140  0.25500  0.25230  Biso   1.000  C
  C14      1.0000 0.79140  0.24500  0.75230  Biso   1.000  C
  C15      1.0000 0.20860  0.74500  0.74770  Biso   1.000  C
  C16      1.0000 0.20860  0.75500  0.24770  Biso   1.000  C
  C17      1.0000 0.72810  0.13630  0.24940  Biso   1.000  C
  C18      1.0000 0.72810  0.36370  0.74940  Biso   1.000  C
  C19      1.0000 0.27190  0.86370  0.75060  Biso   1.000  C
  C20      1.0000 0.27190  0.63630  0.25060  Biso   1.000  C
  O5       1.0000 0.64150  0.14810  0.40850  Biso   1.000  O
  O6       1.0000 0.64150  0.35190  0.90850  Biso   1.000  O
  O7       1.0000 0.35850  0.85190  0.59150  Biso   1.000  O
  O8       1.0000 0.35850  0.64810  0.09150  Biso   1.000  O
  C21      1.0000 0.90730  0.47670  0.25970  Biso   1.000  C
  C22      1.0000 0.90730  0.02330  0.75970  Biso   1.000  C
  C23      1.0000 0.09270  0.52330  0.74030  Biso   1.000  C
  C24      1.0000 0.09270  0.97670  0.24030  Biso   1.000  C
  H13      1.0000 0.94630  0.55300  0.26160  Biso   1.000  H
  H14      1.0000 0.94630  0.94700  0.76160  Biso   1.000  H
  H15      1.0000 0.05370  0.44700  0.73840  Biso   1.000  H
  H16      1.0000 0.05370  0.05300  0.23840  Biso   1.000  H
  C25      1.0000 0.58140  0.98150  0.28130  Biso   1.000  C
  C26      1.0000 0.58140  0.51850  0.78130  Biso   1.000  C
  C27      1.0000 0.41860  0.01850  0.71870  Biso   1.000  C
  C28      1.0000 0.41860  0.48150  0.21870  Biso   1.000  C
  C29      1.0000 0.66410  0.93450  0.19880  Biso   1.000  C
  C30      1.0000 0.66410  0.56550  0.69880  Biso   1.000  C
  C31      1.0000 0.33590  0.06550  0.80120  Biso   1.000  C
  C32      1.0000 0.33590  0.43450  0.30120  Biso   1.000  C
  C33      1.0000 0.57380  0.89700  0.37680  Biso   1.000  C
  C34      1.0000 0.57380  0.60300  0.87680  Biso   1.000  C
  C35      1.0000 0.42620  0.10300  0.62320  Biso   1.000  C
  C36      1.0000 0.42620  0.39700  0.12320  Biso   1.000  C
  H17      1.0000 0.52040  0.93370  0.42320  Biso   1.000  H
  H18      1.0000 0.52040  0.56630  0.92320  Biso   1.000  H
  H19      1.0000 0.47960  0.06630  0.57680  Biso   1.000  H
  H20      1.0000 0.47960  0.43370  0.07680  Biso   1.000  H
  H21      1.0000 0.53420  0.82170  0.34850  Biso   1.000  H
  H22      1.0000 0.53420  0.67830  0.84850  Biso   1.000  H
  H23      1.0000 0.46580  0.17830  0.65150  Biso   1.000  H
  H24      1.0000 0.46580  0.32170  0.15150  Biso   1.000  H
  H25      1.0000 0.66200  0.88250  0.41880  Biso   1.000  H
  H26      1.0000 0.66200  0.61750  0.91880  Biso   1.000  H
  H27      1.0000 0.33800  0.11750  0.58120  Biso   1.000  H
  H28      1.0000 0.33800  0.38250  0.08120  Biso   1.000  H
  C37      1.0000 0.58610  0.87320  0.09660  Biso   1.000  C
  C38      1.0000 0.58610  0.62680  0.59660  Biso   1.000  C
  C39      1.0000 0.41390  0.12680  0.90340  Biso   1.000  C
  C40      1.0000 0.41390  0.37320  0.40340  Biso   1.000  C
  H29      1.0000 0.64630  0.84710  0.05110  Biso   1.000  H
  H30      1.0000 0.64630  0.65290  0.55110  Biso   1.000  H
  H31      1.0000 0.35370  0.15290  0.94890  Biso   1.000  H
  H32      1.0000 0.35370  0.34710  0.44890  Biso   1.000  H
  H33      1.0000 0.53980  0.80440  0.11770  Biso   1.000  H
  H34      1.0000 0.53980  0.69560  0.61770  Biso   1.000  H
  H35      1.0000 0.46020  0.19560  0.88230  Biso   1.000  H
  H36      1.0000 0.46020  0.30440  0.38230  Biso   1.000  H
  H37      1.0000 0.52280  0.92930  0.05620  Biso   1.000  H
  H38      1.0000 0.52280  0.57070  0.55620  Biso   1.000  H
  H39      1.0000 0.47720  0.07070  0.94380  Biso   1.000  H
  H40      1.0000 0.47720  0.42930  0.44380  Biso   1.000  H
  C41      1.0000 0.78180  0.85570  0.25230  Biso   1.000  C
  C42      1.0000 0.78180  0.64430  0.75230  Biso   1.000  C
  C43      1.0000 0.21820  0.14430  0.74770  Biso   1.000  C
  C44      1.0000 0.21820  0.35570  0.24770  Biso   1.000  C
  H41      1.0000 0.82910  0.82930  0.19710  Biso   1.000  H
  H42      1.0000 0.82910  0.67070  0.69710  Biso   1.000  H
  H43      1.0000 0.17090  0.17070  0.80290  Biso   1.000  H
  H44      1.0000 0.17090  0.32930  0.30290  Biso   1.000  H
  H45      1.0000 0.84060  0.90170  0.30760  Biso   1.000  H
  H46      1.0000 0.84060  0.59830  0.80760  Biso   1.000  H
  H47      1.0000 0.15940  0.09830  0.69240  Biso   1.000  H
  H48      1.0000 0.15940  0.40170  0.19240  Biso   1.000  H
  H49      1.0000 0.74960  0.78640  0.28580  Biso   1.000  H
  H50      1.0000 0.74960  0.71360  0.78580  Biso   1.000  H
  H51      1.0000 0.25040  0.21360  0.71420  Biso   1.000  H
  H52      1.0000 0.25040  0.28640  0.21420  Biso   1.000  H
  C45      1.0000 0.44350  0.02590  0.22710  Biso   1.000  C
  C46      1.0000 0.44350  0.47410  0.72710  Biso   1.000  C
  C47      1.0000 0.55650  0.97410  0.77290  Biso   1.000  C
  C48      1.0000 0.55650  0.52590  0.27290  Biso   1.000  C
  H53      1.0000 0.39770  0.05380  0.28280  Biso   1.000  H
  H54      1.0000 0.39770  0.44620  0.78280  Biso   1.000  H
  H55      1.0000 0.60230  0.94620  0.71720  Biso   1.000  H
  H56      1.0000 0.60230  0.55380  0.21720  Biso   1.000  H
  H57      1.0000 0.45140  0.09120  0.17770  Biso   1.000  H
  H58      1.0000 0.45140  0.40880  0.67770  Biso   1.000  H
  H59      1.0000 0.54860  0.90880  0.82230  Biso   1.000  H
  H60      1.0000 0.54860  0.59120  0.32230  Biso   1.000  H
  H61      1.0000 0.39410  0.96070  0.18660  Biso   1.000  H
  H62      1.0000 0.39410  0.53930  0.68660  Biso   1.000  H
  H63      1.0000 0.60590  0.03930  0.81340  Biso   1.000  H
  H64      1.0000 0.60590  0.46070  0.31340  Biso   1.000  H
  N21      1.0000 0.09540  0.32990  0.96040  Biso   1.000  N
  N22      1.0000 0.09540  0.17010  0.46040  Biso   1.000  N
  N23      1.0000 0.90460  0.67010  0.03960  Biso   1.000  N
  N24      1.0000 0.90460  0.82990  0.53960  Biso   1.000  N
