data_image0
_cell_length_a       7.6423
_cell_length_b       24.3583
_cell_length_c       6.3921
_cell_angle_alpha    90
_cell_angle_beta     90
_cell_angle_gamma    90

_symmetry_space_group_name_H-M    "P 1"
_symmetry_int_tables_number       1

loop_
  _symmetry_equiv_pos_as_xyz
  'x, y, z'

loop_
  _atom_site_label
  _atom_site_occupancy
  _atom_site_fract_x
  _atom_site_fract_y
  _atom_site_fract_z
  _atom_site_thermal_displace_type
  _atom_site_B_iso_or_equiv
  _atom_site_type_symbol
  Cu1      1.0000 0.76463  0.29391  0.28102  Biso   1.000  Cu
  Cu2      1.0000 0.23537  0.70609  0.28102  Biso   1.000  Cu
  Cu3      1.0000 0.73537  0.79391  0.71898  Biso   1.000  Cu
  Cu4      1.0000 0.26463  0.20609  0.71898  Biso   1.000  Cu
  O1       1.0000 0.53780  0.31864  0.36690  Biso   1.000  O
  O2       1.0000 0.46220  0.68136  0.36690  Biso   1.000  O
  O3       1.0000 0.96220  0.81864  0.63310  Biso   1.000  O
  O4       1.0000 0.03780  0.18136  0.63310  Biso   1.000  O
  O5       1.0000 0.01170  0.28164  0.22300  Biso   1.000  O
  O6       1.0000 0.98830  0.71836  0.22300  Biso   1.000  O
  O7       1.0000 0.48830  0.78164  0.77700  Biso   1.000  O
  O8       1.0000 0.51170  0.21836  0.77700  Biso   1.000  O
  O9       1.0000 0.19530  0.28027  0.95260  Biso   1.000  O
  O10      1.0000 0.80470  0.71973  0.95260  Biso   1.000  O
  O11      1.0000 0.30470  0.78027  0.04740  Biso   1.000  O
  O12      1.0000 0.69530  0.21973  0.04740  Biso   1.000  O
  O13      1.0000 0.77440  0.24496  0.51710  Biso   1.000  O
  O14      1.0000 0.22560  0.75504  0.51710  Biso   1.000  O
  O15      1.0000 0.72560  0.74496  0.48290  Biso   1.000  O
  O16      1.0000 0.27440  0.25504  0.48290  Biso   1.000  O
  H1       1.0000 0.68800  0.23850  0.59400  Biso   1.000  H
  H2       1.0000 0.31200  0.76150  0.59400  Biso   1.000  H
  H3       1.0000 0.81200  0.73850  0.40600  Biso   1.000  H
  H4       1.0000 0.18800  0.26150  0.40600  Biso   1.000  H
  H5       1.0000 0.85800  0.22320  0.53200  Biso   1.000  H
  H6       1.0000 0.14200  0.77680  0.53200  Biso   1.000  H
  H7       1.0000 0.64200  0.72320  0.46800  Biso   1.000  H
  H8       1.0000 0.35800  0.27680  0.46800  Biso   1.000  H
  O17      1.0000 0.21370  0.52194  0.92140  Biso   1.000  O
  O18      1.0000 0.78630  0.47806  0.92140  Biso   1.000  O
  O19      1.0000 0.28630  0.02194  0.07860  Biso   1.000  O
  O20      1.0000 0.71370  0.97806  0.07860  Biso   1.000  O
  O21      1.0000 0.14840  0.54138  0.24340  Biso   1.000  O
  O22      1.0000 0.85160  0.45862  0.24340  Biso   1.000  O
  O23      1.0000 0.35160  0.04138  0.75660  Biso   1.000  O
  O24      1.0000 0.64840  0.95862  0.75660  Biso   1.000  O
  C1       1.0000 0.46590  0.36514  0.30240  Biso   1.000  C
  C2       1.0000 0.53410  0.63486  0.30240  Biso   1.000  C
  C3       1.0000 0.03410  0.86514  0.69760  Biso   1.000  C
  C4       1.0000 0.96590  0.13486  0.69760  Biso   1.000  C
  C5       1.0000 0.35880  0.39468  0.44150  Biso   1.000  C
  C6       1.0000 0.64120  0.60532  0.44150  Biso   1.000  C
  C7       1.0000 0.14120  0.89468  0.55850  Biso   1.000  C
  C8       1.0000 0.85880  0.10532  0.55850  Biso   1.000  C
  H9       1.0000 0.34290  0.38150  0.58000  Biso   1.000  H
  H10      1.0000 0.65710  0.61850  0.58000  Biso   1.000  H
  H11      1.0000 0.15710  0.88150  0.42000  Biso   1.000  H
  H12      1.0000 0.84290  0.11850  0.42000  Biso   1.000  H
  C9       1.0000 0.27640  0.44242  0.38090  Biso   1.000  C
  C10      1.0000 0.72360  0.55758  0.38090  Biso   1.000  C
  C11      1.0000 0.22360  0.94242  0.61910  Biso   1.000  C
  C12      1.0000 0.77640  0.05758  0.61910  Biso   1.000  C
  H13      1.0000 0.20600  0.46240  0.47690  Biso   1.000  H
  H14      1.0000 0.79400  0.53760  0.47690  Biso   1.000  H
  H15      1.0000 0.29400  0.96240  0.52310  Biso   1.000  H
  H16      1.0000 0.70600  0.03760  0.52310  Biso   1.000  H
  C13      1.0000 0.29790  0.46076  0.17850  Biso   1.000  C
  C14      1.0000 0.70210  0.53924  0.17850  Biso   1.000  C
  C15      1.0000 0.20210  0.96076  0.82150  Biso   1.000  C
  C16      1.0000 0.79790  0.03924  0.82150  Biso   1.000  C
  C17      1.0000 0.40510  0.43309  0.03700  Biso   1.000  C
  C18      1.0000 0.59490  0.56691  0.03700  Biso   1.000  C
  C19      1.0000 0.09490  0.93309  0.96300  Biso   1.000  C
  C20      1.0000 0.90510  0.06691  0.96300  Biso   1.000  C
  H17      1.0000 0.41940  0.44690  0.89900  Biso   1.000  H
  H18      1.0000 0.58060  0.55310  0.89900  Biso   1.000  H
  H19      1.0000 0.08060  0.94690  0.10100  Biso   1.000  H
  H20      1.0000 0.91940  0.05310  0.10100  Biso   1.000  H
  C21      1.0000 0.49070  0.38560  0.09690  Biso   1.000  C
  C22      1.0000 0.50930  0.61440  0.09690  Biso   1.000  C
  C23      1.0000 0.00930  0.88560  0.90310  Biso   1.000  C
  C24      1.0000 0.99070  0.11440  0.90310  Biso   1.000  C
  C25      1.0000 0.60930  0.35578  0.94640  Biso   1.000  C
  C26      1.0000 0.39070  0.64422  0.94640  Biso   1.000  C
  C27      1.0000 0.89070  0.85578  0.05360  Biso   1.000  C
  C28      1.0000 0.10930  0.14422  0.05360  Biso   1.000  C
  H21      1.0000 0.55580  0.32030  0.90650  Biso   1.000  H
  H22      1.0000 0.44420  0.67970  0.90650  Biso   1.000  H
  H23      1.0000 0.94420  0.82030  0.09350  Biso   1.000  H
  H24      1.0000 0.05580  0.17970  0.09350  Biso   1.000  H
  H25      1.0000 0.62460  0.37800  0.81800  Biso   1.000  H
  H26      1.0000 0.37540  0.62200  0.81800  Biso   1.000  H
  H27      1.0000 0.87540  0.87800  0.18200  Biso   1.000  H
  H28      1.0000 0.12460  0.12200  0.18200  Biso   1.000  H
  N1       1.0000 0.78200  0.34599  0.04570  Biso   1.000  N
  N2       1.0000 0.21800  0.65401  0.04570  Biso   1.000  N
  N3       1.0000 0.71800  0.84599  0.95430  Biso   1.000  N
  N4       1.0000 0.28200  0.15401  0.95430  Biso   1.000  N
  H29      1.0000 0.81000  0.37440  0.08500  Biso   1.000  H
  H30      1.0000 0.19000  0.62560  0.08500  Biso   1.000  H
  H31      1.0000 0.69000  0.87440  0.91500  Biso   1.000  H
  H32      1.0000 0.31000  0.12560  0.91500  Biso   1.000  H
  C29      1.0000 0.91500  0.32243  0.90260  Biso   1.000  C
  C30      1.0000 0.08500  0.67757  0.90260  Biso   1.000  C
  C31      1.0000 0.58500  0.82243  0.09740  Biso   1.000  C
  C32      1.0000 0.41500  0.17757  0.09740  Biso   1.000  C
  H33      1.0000 0.85440  0.29340  0.81890  Biso   1.000  H
  H34      1.0000 0.14560  0.70660  0.81890  Biso   1.000  H
  H35      1.0000 0.64560  0.79340  0.18110  Biso   1.000  H
  H36      1.0000 0.35440  0.20660  0.18110  Biso   1.000  H
  C33      1.0000 0.05430  0.29330  0.03210  Biso   1.000  C
  C34      1.0000 0.94570  0.70670  0.03210  Biso   1.000  C
  C35      1.0000 0.44570  0.79330  0.96790  Biso   1.000  C
  C36      1.0000 0.55430  0.20670  0.96790  Biso   1.000  C
  C37      1.0000 0.99020  0.36327  0.74670  Biso   1.000  C
  C38      1.0000 0.00980  0.63673  0.74670  Biso   1.000  C
  C39      1.0000 0.50980  0.86327  0.25330  Biso   1.000  C
  C40      1.0000 0.49020  0.13673  0.25330  Biso   1.000  C
  H37      1.0000 0.89450  0.38090  0.67000  Biso   1.000  H
  H38      1.0000 0.10550  0.61910  0.67000  Biso   1.000  H
  H39      1.0000 0.60550  0.88090  0.33000  Biso   1.000  H
  H40      1.0000 0.39450  0.11910  0.33000  Biso   1.000  H
  H41      1.0000 0.06660  0.34400  0.64800  Biso   1.000  H
  H42      1.0000 0.93340  0.65600  0.64800  Biso   1.000  H
  H43      1.0000 0.43340  0.84400  0.35200  Biso   1.000  H
  H44      1.0000 0.56660  0.15600  0.35200  Biso   1.000  H
  H45      1.0000 0.05780  0.39120  0.82160  Biso   1.000  H
  H46      1.0000 0.94220  0.60880  0.82160  Biso   1.000  H
  H47      1.0000 0.44220  0.89120  0.17840  Biso   1.000  H
  H48      1.0000 0.55780  0.10880  0.17840  Biso   1.000  H
  N5       1.0000 0.21430  0.51082  0.10910  Biso   1.000  N
  N6       1.0000 0.78570  0.48918  0.10910  Biso   1.000  N
  N7       1.0000 0.28570  0.01082  0.89090  Biso   1.000  N
  N8       1.0000 0.71430  0.98918  0.89090  Biso   1.000  N
