data_image0
_cell_length_a       10.9185
_cell_length_b       10.9185
_cell_length_c       27.5058
_cell_angle_alpha    90
_cell_angle_beta     90
_cell_angle_gamma    120

_symmetry_space_group_name_H-M    "P 1"
_symmetry_int_tables_number       1

loop_
  _symmetry_equiv_pos_as_xyz
  'x, y, z'

loop_
  _atom_site_label
  _atom_site_occupancy
  _atom_site_fract_x
  _atom_site_fract_y
  _atom_site_fract_z
  _atom_site_thermal_displace_type
  _atom_site_B_iso_or_equiv
  _atom_site_type_symbol
  O1       1.0000 0.27510  0.94910  0.79310  Biso   1.000  O
  O2       1.0000 0.67400  0.72490  0.79310  Biso   1.000  O
  O3       1.0000 0.05090  0.32600  0.79310  Biso   1.000  O
  O4       1.0000 0.94177  0.28243  0.12643  Biso   1.000  O
  O5       1.0000 0.34067  0.05823  0.12643  Biso   1.000  O
  O6       1.0000 0.71757  0.65933  0.12643  Biso   1.000  O
  O7       1.0000 0.60843  0.61577  0.45977  Biso   1.000  O
  O8       1.0000 0.00733  0.39157  0.45977  Biso   1.000  O
  O9       1.0000 0.38423  0.99267  0.45977  Biso   1.000  O
  O10      1.0000 0.72490  0.05090  0.20690  Biso   1.000  O
  O11      1.0000 0.32600  0.27510  0.20690  Biso   1.000  O
  O12      1.0000 0.94910  0.67400  0.20690  Biso   1.000  O
  O13      1.0000 0.39157  0.38423  0.54023  Biso   1.000  O
  O14      1.0000 0.99267  0.60843  0.54023  Biso   1.000  O
  O15      1.0000 0.61577  0.00733  0.54023  Biso   1.000  O
  O16      1.0000 0.05823  0.71757  0.87357  Biso   1.000  O
  O17      1.0000 0.65933  0.94177  0.87357  Biso   1.000  O
  O18      1.0000 0.28243  0.34067  0.87357  Biso   1.000  O
  O19      1.0000 0.66000  0.35000  0.55030  Biso   1.000  O
  O20      1.0000 0.69000  0.34000  0.55030  Biso   1.000  O
  O21      1.0000 0.65000  0.31000  0.55030  Biso   1.000  O
  O22      1.0000 0.32667  0.68333  0.88363  Biso   1.000  O
  O23      1.0000 0.35667  0.67333  0.88363  Biso   1.000  O
  O24      1.0000 0.31667  0.64333  0.88363  Biso   1.000  O
  O25      1.0000 0.99333  0.01667  0.21697  Biso   1.000  O
  O26      1.0000 0.02333  0.00667  0.21697  Biso   1.000  O
  O27      1.0000 0.98333  0.97667  0.21697  Biso   1.000  O
  O28      1.0000 0.34000  0.65000  0.44970  Biso   1.000  O
  O29      1.0000 0.31000  0.66000  0.44970  Biso   1.000  O
  O30      1.0000 0.35000  0.69000  0.44970  Biso   1.000  O
  O31      1.0000 0.00667  0.98333  0.78303  Biso   1.000  O
  O32      1.0000 0.97667  0.99333  0.78303  Biso   1.000  O
  O33      1.0000 0.01667  0.02333  0.78303  Biso   1.000  O
  O34      1.0000 0.67333  0.31667  0.11637  Biso   1.000  O
  O35      1.0000 0.64333  0.32667  0.11637  Biso   1.000  O
  O36      1.0000 0.68333  0.35667  0.11637  Biso   1.000  O
  O37      1.0000 0.66667  0.33333  0.47060  Biso   1.000  O
  O38      1.0000 0.33334  0.66666  0.80393  Biso   1.000  O
  O39      1.0000 0.00000  1.00000  0.13727  Biso   1.000  O
  O40      1.0000 0.33333  0.66667  0.52940  Biso   1.000  O
  O41      1.0000 1.00000  0.00000  0.86273  Biso   1.000  O
  O42      1.0000 0.66666  0.33334  0.19607  Biso   1.000  O
  H1       1.0000 0.74000  0.25000  0.51810  Biso   1.000  H
  H2       1.0000 0.51000  0.26000  0.51810  Biso   1.000  H
  H3       1.0000 0.75000  0.49000  0.51810  Biso   1.000  H
  H4       1.0000 0.40667  0.58333  0.85143  Biso   1.000  H
  H5       1.0000 0.17667  0.59333  0.85143  Biso   1.000  H
  H6       1.0000 0.41667  0.82333  0.85143  Biso   1.000  H
  H7       1.0000 0.07333  0.91667  0.18477  Biso   1.000  H
  H8       1.0000 0.84333  0.92667  0.18477  Biso   1.000  H
  H9       1.0000 0.08333  0.15667  0.18477  Biso   1.000  H
  H10      1.0000 0.26000  0.75000  0.48190  Biso   1.000  H
  H11      1.0000 0.49000  0.74000  0.48190  Biso   1.000  H
  H12      1.0000 0.25000  0.51000  0.48190  Biso   1.000  H
  H13      1.0000 0.92667  0.08333  0.81523  Biso   1.000  H
  H14      1.0000 0.15667  0.07333  0.81523  Biso   1.000  H
  H15      1.0000 0.91667  0.84333  0.81523  Biso   1.000  H
  H16      1.0000 0.59333  0.41667  0.14857  Biso   1.000  H
  H17      1.0000 0.82333  0.40667  0.14857  Biso   1.000  H
  H18      1.0000 0.58333  0.17667  0.14857  Biso   1.000  H
  C1       1.0000 0.69200  0.30700  0.51350  Biso   1.000  C
  C2       1.0000 0.61500  0.30800  0.51350  Biso   1.000  C
  C3       1.0000 0.69300  0.38500  0.51350  Biso   1.000  C
  C4       1.0000 0.35867  0.64033  0.84683  Biso   1.000  C
  C5       1.0000 0.28167  0.64133  0.84683  Biso   1.000  C
  C6       1.0000 0.35967  0.71833  0.84683  Biso   1.000  C
  C7       1.0000 0.02533  0.97367  0.18017  Biso   1.000  C
  C8       1.0000 0.94833  0.97467  0.18017  Biso   1.000  C
  C9       1.0000 0.02633  0.05167  0.18017  Biso   1.000  C
  C10      1.0000 0.30800  0.69300  0.48650  Biso   1.000  C
  C11      1.0000 0.38500  0.69200  0.48650  Biso   1.000  C
  C12      1.0000 0.30700  0.61500  0.48650  Biso   1.000  C
  C13      1.0000 0.97467  0.02633  0.81983  Biso   1.000  C
  C14      1.0000 0.05167  0.02533  0.81983  Biso   1.000  C
  C15      1.0000 0.97367  0.94833  0.81983  Biso   1.000  C
  C16      1.0000 0.64133  0.35967  0.15317  Biso   1.000  C
  C17      1.0000 0.71833  0.35867  0.15317  Biso   1.000  C
  C18      1.0000 0.64033  0.28167  0.15317  Biso   1.000  C
  O43      1.0000 0.68420  0.16480  0.37920  Biso   1.000  O
  O44      1.0000 0.48060  0.31580  0.37920  Biso   1.000  O
  O45      1.0000 0.83520  0.51940  0.37920  Biso   1.000  O
  O46      1.0000 0.35087  0.49813  0.71253  Biso   1.000  O
  O47      1.0000 0.14727  0.64913  0.71253  Biso   1.000  O
  O48      1.0000 0.50187  0.85273  0.71253  Biso   1.000  O
  O49      1.0000 0.01753  0.83147  0.04587  Biso   1.000  O
  O50      1.0000 0.81393  0.98247  0.04587  Biso   1.000  O
  O51      1.0000 0.16853  0.18607  0.04587  Biso   1.000  O
  O52      1.0000 0.31580  0.83520  0.62080  Biso   1.000  O
  O53      1.0000 0.51940  0.68420  0.62080  Biso   1.000  O
  O54      1.0000 0.16480  0.48060  0.62080  Biso   1.000  O
  O55      1.0000 0.98247  0.16853  0.95413  Biso   1.000  O
  O56      1.0000 0.18607  0.01753  0.95413  Biso   1.000  O
  O57      1.0000 0.83147  0.81393  0.95413  Biso   1.000  O
  O58      1.0000 0.64913  0.50187  0.28747  Biso   1.000  O
  O59      1.0000 0.85273  0.35087  0.28747  Biso   1.000  O
  O60      1.0000 0.49813  0.14727  0.28747  Biso   1.000  O
  Zn1      1.0000 0.51210  0.00830  0.33270  Biso   1.000  Zn
  Zn2      1.0000 0.49620  0.48790  0.33270  Biso   1.000  Zn
  Zn3      1.0000 0.99170  0.50380  0.33270  Biso   1.000  Zn
  Zn4      1.0000 0.17877  0.34163  0.66603  Biso   1.000  Zn
  Zn5      1.0000 0.16287  0.82123  0.66603  Biso   1.000  Zn
  Zn6      1.0000 0.65837  0.83713  0.66603  Biso   1.000  Zn
  Zn7      1.0000 0.84543  0.67497  0.99937  Biso   1.000  Zn
  Zn8      1.0000 0.82953  0.15457  0.99937  Biso   1.000  Zn
  Zn9      1.0000 0.32503  0.17047  0.99937  Biso   1.000  Zn
  Zn10     1.0000 0.48790  0.99170  0.66730  Biso   1.000  Zn
  Zn11     1.0000 0.50380  0.51210  0.66730  Biso   1.000  Zn
  Zn12     1.0000 0.00830  0.49620  0.66730  Biso   1.000  Zn
  Zn13     1.0000 0.15457  0.32503  0.00063  Biso   1.000  Zn
  Zn14     1.0000 0.17047  0.84543  0.00063  Biso   1.000  Zn
  Zn15     1.0000 0.67497  0.82953  0.00063  Biso   1.000  Zn
  Zn16     1.0000 0.82123  0.65837  0.33397  Biso   1.000  Zn
  Zn17     1.0000 0.83713  0.17877  0.33397  Biso   1.000  Zn
  Zn18     1.0000 0.34163  0.16287  0.33397  Biso   1.000  Zn
  C19      1.0000 0.31800  0.83800  0.23410  Biso   1.000  C
  C20      1.0000 0.52000  0.68200  0.23410  Biso   1.000  C
  C21      1.0000 0.16200  0.48000  0.23410  Biso   1.000  C
  C22      1.0000 0.98467  0.17133  0.56743  Biso   1.000  C
  C23      1.0000 0.18667  0.01533  0.56743  Biso   1.000  C
  C24      1.0000 0.82867  0.81333  0.56743  Biso   1.000  C
  C25      1.0000 0.65133  0.50467  0.90077  Biso   1.000  C
  C26      1.0000 0.85333  0.34867  0.90077  Biso   1.000  C
  C27      1.0000 0.49533  0.14667  0.90077  Biso   1.000  C
  C28      1.0000 0.68200  0.16200  0.76590  Biso   1.000  C
  C29      1.0000 0.48000  0.31800  0.76590  Biso   1.000  C
  C30      1.0000 0.83800  0.52000  0.76590  Biso   1.000  C
  C31      1.0000 0.34867  0.49533  0.09923  Biso   1.000  C
  C32      1.0000 0.14667  0.65133  0.09923  Biso   1.000  C
  C33      1.0000 0.50467  0.85333  0.09923  Biso   1.000  C
  C34      1.0000 0.01533  0.82867  0.43257  Biso   1.000  C
  C35      1.0000 0.81333  0.98467  0.43257  Biso   1.000  C
  C36      1.0000 0.17133  0.18667  0.43257  Biso   1.000  C
  O61      1.0000 0.36800  0.95900  0.21390  Biso   1.000  O
  O62      1.0000 0.59100  0.63200  0.21390  Biso   1.000  O
  O63      1.0000 0.04100  0.40900  0.21390  Biso   1.000  O
  O64      1.0000 0.03467  0.29233  0.54723  Biso   1.000  O
  O65      1.0000 0.25767  0.96533  0.54723  Biso   1.000  O
  O66      1.0000 0.70767  0.74233  0.54723  Biso   1.000  O
  O67      1.0000 0.70133  0.62567  0.88057  Biso   1.000  O
  O68      1.0000 0.92433  0.29867  0.88057  Biso   1.000  O
  O69      1.0000 0.37433  0.07567  0.88057  Biso   1.000  O
  O70      1.0000 0.63200  0.04100  0.78610  Biso   1.000  O
  O71      1.0000 0.40900  0.36800  0.78610  Biso   1.000  O
  O72      1.0000 0.95900  0.59100  0.78610  Biso   1.000  O
  O73      1.0000 0.29867  0.37433  0.11943  Biso   1.000  O
  O74      1.0000 0.07567  0.70133  0.11943  Biso   1.000  O
  O75      1.0000 0.62567  0.92433  0.11943  Biso   1.000  O
  O76      1.0000 0.96533  0.70767  0.45277  Biso   1.000  O
  O77      1.0000 0.74233  0.03467  0.45277  Biso   1.000  O
  O78      1.0000 0.29233  0.25767  0.45277  Biso   1.000  O
  O79      1.0000 0.34040  0.83000  0.27920  Biso   1.000  O
  O80      1.0000 0.48960  0.65960  0.27920  Biso   1.000  O
  O81      1.0000 0.17000  0.51040  0.27920  Biso   1.000  O
  O82      1.0000 0.00707  0.16333  0.61253  Biso   1.000  O
  O83      1.0000 0.15627  0.99293  0.61253  Biso   1.000  O
  O84      1.0000 0.83667  0.84373  0.61253  Biso   1.000  O
  O85      1.0000 0.67373  0.49667  0.94587  Biso   1.000  O
  O86      1.0000 0.82293  0.32627  0.94587  Biso   1.000  O
  O87      1.0000 0.50333  0.17707  0.94587  Biso   1.000  O
  O88      1.0000 0.65960  0.17000  0.72080  Biso   1.000  O
  O89      1.0000 0.51040  0.34040  0.72080  Biso   1.000  O
  O90      1.0000 0.83000  0.48960  0.72080  Biso   1.000  O
  O91      1.0000 0.32627  0.50333  0.05413  Biso   1.000  O
  O92      1.0000 0.17707  0.67373  0.05413  Biso   1.000  O
  O93      1.0000 0.49667  0.82293  0.05413  Biso   1.000  O
  O94      1.0000 0.99293  0.83667  0.38747  Biso   1.000  O
  O95      1.0000 0.84373  0.00707  0.38747  Biso   1.000  O
  O96      1.0000 0.16333  0.15627  0.38747  Biso   1.000  O
  H19      1.0000 0.26400  0.75400  0.21540  Biso   1.000  H
  H20      1.0000 0.49000  0.73600  0.21540  Biso   1.000  H
  H21      1.0000 0.24600  0.51000  0.21540  Biso   1.000  H
  H22      1.0000 0.93067  0.08733  0.54873  Biso   1.000  H
  H23      1.0000 0.15667  0.06933  0.54873  Biso   1.000  H
  H24      1.0000 0.91267  0.84333  0.54873  Biso   1.000  H
  H25      1.0000 0.59733  0.42067  0.88207  Biso   1.000  H
  H26      1.0000 0.82333  0.40267  0.88207  Biso   1.000  H
  H27      1.0000 0.57933  0.17667  0.88207  Biso   1.000  H
  H28      1.0000 0.73600  0.24600  0.78460  Biso   1.000  H
  H29      1.0000 0.51000  0.26400  0.78460  Biso   1.000  H
  H30      1.0000 0.75400  0.49000  0.78460  Biso   1.000  H
  H31      1.0000 0.40267  0.57933  0.11793  Biso   1.000  H
  H32      1.0000 0.17667  0.59733  0.11793  Biso   1.000  H
  H33      1.0000 0.42067  0.82333  0.11793  Biso   1.000  H
  H34      1.0000 0.06933  0.91267  0.45127  Biso   1.000  H
  H35      1.0000 0.84333  0.93067  0.45127  Biso   1.000  H
  H36      1.0000 0.08733  0.15667  0.45127  Biso   1.000  H
  O97      1.0000 0.49290  0.81990  0.35960  Biso   1.000  O
  O98      1.0000 0.32700  0.50710  0.35960  Biso   1.000  O
  O99      1.0000 0.18010  0.67300  0.35960  Biso   1.000  O
  O100     1.0000 0.15957  0.15323  0.69293  Biso   1.000  O
  O101     1.0000 0.99367  0.84043  0.69293  Biso   1.000  O
  O102     1.0000 0.84677  0.00633  0.69293  Biso   1.000  O
  O103     1.0000 0.82623  0.48657  0.02627  Biso   1.000  O
  O104     1.0000 0.66033  0.17377  0.02627  Biso   1.000  O
  O105     1.0000 0.51343  0.33967  0.02627  Biso   1.000  O
  O106     1.0000 0.50710  0.18010  0.64040  Biso   1.000  O
  O107     1.0000 0.67300  0.49290  0.64040  Biso   1.000  O
  O108     1.0000 0.81990  0.32700  0.64040  Biso   1.000  O
  O109     1.0000 0.17377  0.51343  0.97373  Biso   1.000  O
  O110     1.0000 0.33967  0.82623  0.97373  Biso   1.000  O
  O111     1.0000 0.48657  0.66033  0.97373  Biso   1.000  O
  O112     1.0000 0.84043  0.84677  0.30707  Biso   1.000  O
  O113     1.0000 0.00633  0.15957  0.30707  Biso   1.000  O
  O114     1.0000 0.15323  0.99367  0.30707  Biso   1.000  O
  O115     1.0000 0.67760  0.99740  0.30250  Biso   1.000  O
  O116     1.0000 0.31980  0.32240  0.30250  Biso   1.000  O
  O117     1.0000 0.00260  0.68020  0.30250  Biso   1.000  O
  O118     1.0000 0.34427  0.33073  0.63583  Biso   1.000  O
  O119     1.0000 0.98647  0.65573  0.63583  Biso   1.000  O
  O120     1.0000 0.66927  0.01353  0.63583  Biso   1.000  O
  O121     1.0000 0.01093  0.66407  0.96917  Biso   1.000  O
  O122     1.0000 0.65313  0.98907  0.96917  Biso   1.000  O
  O123     1.0000 0.33593  0.34687  0.96917  Biso   1.000  O
  O124     1.0000 0.32240  0.00260  0.69750  Biso   1.000  O
  O125     1.0000 0.68020  0.67760  0.69750  Biso   1.000  O
  O126     1.0000 0.99740  0.31980  0.69750  Biso   1.000  O
  O127     1.0000 0.98907  0.33593  0.03083  Biso   1.000  O
  O128     1.0000 0.34687  0.01093  0.03083  Biso   1.000  O
  O129     1.0000 0.66407  0.65313  0.03083  Biso   1.000  O
  O130     1.0000 0.65573  0.66927  0.36417  Biso   1.000  O
  O131     1.0000 0.01353  0.34427  0.36417  Biso   1.000  O
  O132     1.0000 0.33073  0.98647  0.36417  Biso   1.000  O
  Cu1      1.0000 0.16667  0.83333  0.33333  Biso   1.000  Cu
  Cu2      1.0000 0.66666  0.83333  0.33333  Biso   1.000  Cu
  Cu3      1.0000 0.16667  0.33334  0.33333  Biso   1.000  Cu
  Cu4      1.0000 0.83334  0.16666  0.66666  Biso   1.000  Cu
  Cu5      1.0000 0.33333  0.16666  0.66666  Biso   1.000  Cu
  Cu6      1.0000 0.83334  0.66667  0.66666  Biso   1.000  Cu
  Cu7      1.0000 0.50000  0.50000  1.00000  Biso   1.000  Cu
  Cu8      1.0000 0.99999  0.50000  1.00000  Biso   1.000  Cu
  Cu9      1.0000 0.50000  0.00001  1.00000  Biso   1.000  Cu
  Zn19     1.0000 0.33333  0.66667  0.31945  Biso   1.000  Zn
  Zn20     1.0000 1.00000  0.00000  0.65278  Biso   1.000  Zn
  Zn21     1.0000 0.66666  0.33334  0.98612  Biso   1.000  Zn
  Zn22     1.0000 0.66667  0.33333  0.68055  Biso   1.000  Zn
  Zn23     1.0000 0.33334  0.66666  0.01388  Biso   1.000  Zn
  Zn24     1.0000 0.00000  1.00000  0.34722  Biso   1.000  Zn
  Zn25     1.0000 0.66667  0.33333  0.39814  Biso   1.000  Zn
  Zn26     1.0000 0.33334  0.66666  0.73147  Biso   1.000  Zn
  Zn27     1.0000 0.00000  1.00000  0.06481  Biso   1.000  Zn
  Zn28     1.0000 0.33333  0.66667  0.60186  Biso   1.000  Zn
  Zn29     1.0000 1.00000  0.00000  0.93519  Biso   1.000  Zn
  Zn30     1.0000 0.66666  0.33334  0.26853  Biso   1.000  Zn
