data_image0
_cell_length_a       7.5953
_cell_length_b       11.8232
_cell_length_c       14.7017
_cell_angle_alpha    79.614
_cell_angle_beta     84.824
_cell_angle_gamma    73.09

_symmetry_space_group_name_H-M    "P 1"
_symmetry_int_tables_number       1

loop_
  _symmetry_equiv_pos_as_xyz
  'x, y, z'

loop_
  _atom_site_label
  _atom_site_occupancy
  _atom_site_fract_x
  _atom_site_fract_y
  _atom_site_fract_z
  _atom_site_thermal_displace_type
  _atom_site_B_iso_or_equiv
  _atom_site_type_symbol
  W1       1.0000 0.54857  0.87534  0.76873  Biso   1.000  W
  W2       1.0000 0.45143  0.12466  0.23127  Biso   1.000  W
  Cu1      1.0000 0.00000  0.00000  0.00000  Biso   1.000  Cu
  Cu2      1.0000 0.00000  0.00000  0.50000  Biso   1.000  Cu
  Cu3      1.0000 0.00000  0.50000  0.00000  Biso   1.000  Cu
  O1       1.0000 0.92570  0.46590  0.12961  Biso   1.000  O
  O2       1.0000 0.07430  0.53410  0.87039  Biso   1.000  O
  N1       1.0000 0.22210  0.98640  0.91860  Biso   1.000  N
  N2       1.0000 0.77790  0.01360  0.08140  Biso   1.000  N
  N3       1.0000 0.42820  0.16990  0.71550  Biso   1.000  N
  N4       1.0000 0.57180  0.83010  0.28450  Biso   1.000  N
  N5       1.0000 0.26480  0.94380  0.59640  Biso   1.000  N
  N6       1.0000 0.73520  0.05620  0.40360  Biso   1.000  N
  N7       1.0000 0.84300  0.94790  0.60570  Biso   1.000  N
  N8       1.0000 0.15700  0.05210  0.39430  Biso   1.000  N
  N9       1.0000 0.77370  0.63010  0.68490  Biso   1.000  N
  N10      1.0000 0.22630  0.36990  0.31510  Biso   1.000  N
  N11      1.0000 0.26890  0.70080  0.81040  Biso   1.000  N
  N12      1.0000 0.73110  0.29920  0.18960  Biso   1.000  N
  N13      1.0000 0.69750  0.67710  0.95550  Biso   1.000  N
  N14      1.0000 0.30250  0.32290  0.04450  Biso   1.000  N
  N15      1.0000 0.83840  0.95850  0.87890  Biso   1.000  N
  N16      1.0000 0.16160  0.04150  0.12110  Biso   1.000  N
  N17      1.0000 0.10370  0.81720  0.04630  Biso   1.000  N
  N18      1.0000 0.89630  0.18280  0.95370  Biso   1.000  N
  N19      1.0000 0.11430  0.61820  0.03660  Biso   1.000  N
  N20      1.0000 0.88570  0.38180  0.96340  Biso   1.000  N
  N21      1.0000 0.07430  0.83060  0.46820  Biso   1.000  N
  N22      1.0000 0.92570  0.16940  0.53180  Biso   1.000  N
  N23      1.0000 0.09450  0.69940  0.36190  Biso   1.000  N
  N24      1.0000 0.90550  0.30060  0.63810  Biso   1.000  N
  C1       1.0000 0.34000  0.94970  0.86800  Biso   1.000  C
  C2       1.0000 0.66000  0.05030  0.13200  Biso   1.000  C
  C3       1.0000 0.47140  0.07020  0.73260  Biso   1.000  C
  C4       1.0000 0.52860  0.92980  0.26740  Biso   1.000  C
  C5       1.0000 0.36920  0.92070  0.65320  Biso   1.000  C
  C6       1.0000 0.63080  0.07930  0.34680  Biso   1.000  C
  C7       1.0000 0.74130  0.92020  0.66090  Biso   1.000  C
  C8       1.0000 0.25870  0.07980  0.33910  Biso   1.000  C
  C9       1.0000 0.69730  0.71460  0.71330  Biso   1.000  C
  C10      1.0000 0.30270  0.28540  0.28670  Biso   1.000  C
  C11      1.0000 0.36450  0.76100  0.79570  Biso   1.000  C
  C12      1.0000 0.63550  0.23900  0.20430  Biso   1.000  C
  C13      1.0000 0.64050  0.74620  0.89200  Biso   1.000  C
  C14      1.0000 0.35950  0.25380  0.10800  Biso   1.000  C
  C15      1.0000 0.73910  0.93030  0.83950  Biso   1.000  C
  C16      1.0000 0.26090  0.06970  0.16050  Biso   1.000  C
  C17      1.0000 0.04480  0.73680  0.01540  Biso   1.000  C
  C18      1.0000 0.95520  0.26320  0.98460  Biso   1.000  C
  H1       1.0000 0.94720  0.76510  0.97580  Biso   1.000  H
  H2       1.0000 0.05280  0.23490  0.02420  Biso   1.000  H
  C19      1.0000 0.25290  0.57790  0.09490  Biso   1.000  C
  C20      1.0000 0.74710  0.42210  0.90510  Biso   1.000  C
  H3       1.0000 0.30360  0.49580  0.11110  Biso   1.000  H
  H4       1.0000 0.69640  0.50420  0.88890  Biso   1.000  H
  C21      1.0000 0.32270  0.65500  0.13150  Biso   1.000  C
  C22      1.0000 0.67730  0.34500  0.86850  Biso   1.000  C
  C23      1.0000 0.24270  0.77510  0.10460  Biso   1.000  C
  C24      1.0000 0.75730  0.22490  0.89540  Biso   1.000  C
  H5       1.0000 0.28650  0.82960  0.12760  Biso   1.000  H
  H6       1.0000 0.71350  0.17040  0.87240  Biso   1.000  H
  C25      1.0000 0.47540  0.60780  0.19800  Biso   1.000  C
  C26      1.0000 0.52460  0.39220  0.80200  Biso   1.000  C
  H7       1.0000 0.51100  0.52190  0.20770  Biso   1.000  H
  H8       1.0000 0.48900  0.47810  0.79230  Biso   1.000  H
  H9       1.0000 0.43400  0.63540  0.25580  Biso   1.000  H
  H10      1.0000 0.56600  0.36460  0.74420  Biso   1.000  H
  H11      1.0000 0.57900  0.63600  0.17300  Biso   1.000  H
  H12      1.0000 0.42100  0.36400  0.82700  Biso   1.000  H
  C27      1.0000 0.05160  0.80840  0.38540  Biso   1.000  C
  C28      1.0000 0.94840  0.19160  0.61460  Biso   1.000  C
  H13      1.0000 0.00220  0.87350  0.34030  Biso   1.000  H
  H14      1.0000 0.99780  0.12650  0.65970  Biso   1.000  H
  C29      1.0000 0.16420  0.60770  0.42710  Biso   1.000  C
  C30      1.0000 0.83580  0.39230  0.57290  Biso   1.000  C
  H15      1.0000 0.19500  0.53090  0.41250  Biso   1.000  H
  H16      1.0000 0.80500  0.46910  0.58750  Biso   1.000  H
  C31      1.0000 0.19360  0.62030  0.51560  Biso   1.000  C
  C32      1.0000 0.80640  0.37970  0.48440  Biso   1.000  C
  C33      1.0000 0.14260  0.73710  0.53270  Biso   1.000  C
  C34      1.0000 0.85740  0.26290  0.46730  Biso   1.000  C
  H17      1.0000 0.15680  0.75070  0.59160  Biso   1.000  H
  H18      1.0000 0.84320  0.24930  0.40840  Biso   1.000  H
  C35      1.0000 0.27720  0.51610  0.58900  Biso   1.000  C
  C36      1.0000 0.72280  0.48390  0.41100  Biso   1.000  C
  H19      1.0000 0.28440  0.54520  0.64510  Biso   1.000  H
  H20      1.0000 0.71560  0.45480  0.35490  Biso   1.000  H
  H21      1.0000 0.39870  0.47490  0.56840  Biso   1.000  H
  H22      1.0000 0.60130  0.52510  0.43160  Biso   1.000  H
  H23      1.0000 0.20190  0.46200  0.60030  Biso   1.000  H
  H24      1.0000 0.79810  0.53800  0.39970  Biso   1.000  H
  H25      1.0000 0.86800  0.41000  0.15900  Biso   1.000  H
  H26      1.0000 0.13200  0.59000  0.84100  Biso   1.000  H
  H27      1.0000 0.91300  0.52000  0.17000  Biso   1.000  H
  H28      1.0000 0.08700  0.48000  0.83000  Biso   1.000  H
  O3       1.0000 0.89390  0.65020  0.22070  Biso   1.000  O
  O4       1.0000 0.10610  0.34980  0.77930  Biso   1.000  O
  H29      1.0000 0.98100  0.65300  0.26200  Biso   1.000  H
  H30      1.0000 0.01900  0.34700  0.73800  Biso   1.000  H
  H31      1.0000 0.78500  0.69900  0.24400  Biso   1.000  H
  H32      1.0000 0.21500  0.30100  0.75600  Biso   1.000  H
