data_image0
_cell_length_a       7.2856
_cell_length_b       32.789
_cell_length_c       15.008
_cell_angle_alpha    90
_cell_angle_beta     91.7
_cell_angle_gamma    90

_symmetry_space_group_name_H-M    "P 1"
_symmetry_int_tables_number       1

loop_
  _symmetry_equiv_pos_as_xyz
  'x, y, z'

loop_
  _atom_site_label
  _atom_site_occupancy
  _atom_site_fract_x
  _atom_site_fract_y
  _atom_site_fract_z
  _atom_site_thermal_displace_type
  _atom_site_B_iso_or_equiv
  _atom_site_type_symbol
  Cu1      1.0000 0.22607  0.56110  0.22640  Biso   1.000  Cu
  Cu2      1.0000 0.22607  0.93890  0.72640  Biso   1.000  Cu
  Cu3      1.0000 0.77393  0.43890  0.77360  Biso   1.000  Cu
  Cu4      1.0000 0.77393  0.06110  0.27360  Biso   1.000  Cu
  Cu5      1.0000 0.33672  0.62688  0.40359  Biso   1.000  Cu
  Cu6      1.0000 0.33672  0.87312  0.90359  Biso   1.000  Cu
  Cu7      1.0000 0.66328  0.37312  0.59641  Biso   1.000  Cu
  Cu8      1.0000 0.66328  0.12688  0.09641  Biso   1.000  Cu
  N1       1.0000 0.23190  0.53261  0.10970  Biso   1.000  N
  N2       1.0000 0.23190  0.96739  0.60970  Biso   1.000  N
  N3       1.0000 0.76810  0.46739  0.89030  Biso   1.000  N
  N4       1.0000 0.76810  0.03261  0.39030  Biso   1.000  N
  N5       1.0000 0.21150  0.50442  0.27280  Biso   1.000  N
  N6       1.0000 0.21150  0.99558  0.77280  Biso   1.000  N
  N7       1.0000 0.78850  0.49558  0.72720  Biso   1.000  N
  N8       1.0000 0.78850  0.00442  0.22720  Biso   1.000  N
  H1       1.0000 0.08890  0.49670  0.27420  Biso   1.000  H
  H2       1.0000 0.08890  0.00330  0.77420  Biso   1.000  H
  H3       1.0000 0.91110  0.50330  0.72580  Biso   1.000  H
  H4       1.0000 0.91110  0.99670  0.22580  Biso   1.000  H
  N9       1.0000 0.35580  0.59482  0.51590  Biso   1.000  N
  N10      1.0000 0.35580  0.90518  0.01590  Biso   1.000  N
  N11      1.0000 0.64420  0.40518  0.48410  Biso   1.000  N
  N12      1.0000 0.64420  0.09482  0.98410  Biso   1.000  N
  H5       1.0000 0.24730  0.59830  0.54600  Biso   1.000  H
  H6       1.0000 0.24730  0.90170  0.04600  Biso   1.000  H
  H7       1.0000 0.75270  0.40170  0.45400  Biso   1.000  H
  H8       1.0000 0.75270  0.09830  0.95400  Biso   1.000  H
  N13      1.0000 0.44430  0.67023  0.48050  Biso   1.000  N
  N14      1.0000 0.44430  0.82977  0.98050  Biso   1.000  N
  N15      1.0000 0.55570  0.32977  0.51950  Biso   1.000  N
  N16      1.0000 0.55570  0.17023  0.01950  Biso   1.000  N
  O1       1.0000 0.26350  0.57700  0.34830  Biso   1.000  O
  O2       1.0000 0.26350  0.92300  0.84830  Biso   1.000  O
  O3       1.0000 0.73650  0.42300  0.65170  Biso   1.000  O
  O4       1.0000 0.73650  0.07700  0.15170  Biso   1.000  O
  P1       1.0000 0.30850  0.65410  0.20220  Biso   1.000  P
  P2       1.0000 0.30850  0.84590  0.70220  Biso   1.000  P
  P3       1.0000 0.69150  0.34590  0.79780  Biso   1.000  P
  P4       1.0000 0.69150  0.15410  0.29780  Biso   1.000  P
  O5       1.0000 0.22520  0.61537  0.17280  Biso   1.000  O
  O6       1.0000 0.22520  0.88463  0.67280  Biso   1.000  O
  O7       1.0000 0.77480  0.38463  0.82720  Biso   1.000  O
  O8       1.0000 0.77480  0.11537  0.32720  Biso   1.000  O
  O9       1.0000 0.35660  0.66039  0.29790  Biso   1.000  O
  O10      1.0000 0.35660  0.83961  0.79790  Biso   1.000  O
  O11      1.0000 0.64340  0.33961  0.70210  Biso   1.000  O
  O12      1.0000 0.64340  0.16039  0.20210  Biso   1.000  O
  O13      1.0000 0.49110  0.66259  0.15050  Biso   1.000  O
  O14      1.0000 0.49110  0.83741  0.65050  Biso   1.000  O
  O15      1.0000 0.50890  0.33741  0.84950  Biso   1.000  O
  O16      1.0000 0.50890  0.16259  0.34950  Biso   1.000  O
  O17      1.0000 0.19460  0.69170  0.16720  Biso   1.000  O
  O18      1.0000 0.19460  0.80830  0.66720  Biso   1.000  O
  O19      1.0000 0.80540  0.30830  0.83280  Biso   1.000  O
  O20      1.0000 0.80540  0.19170  0.33280  Biso   1.000  O
  C1       1.0000 0.20560  0.54870  0.02820  Biso   1.000  C
  C2       1.0000 0.20560  0.95130  0.52820  Biso   1.000  C
  C3       1.0000 0.79440  0.45130  0.97180  Biso   1.000  C
  C4       1.0000 0.79440  0.04870  0.47180  Biso   1.000  C
  H9       1.0000 0.17730  0.57690  0.02300  Biso   1.000  H
  H10      1.0000 0.17730  0.92310  0.52300  Biso   1.000  H
  H11      1.0000 0.82270  0.42310  0.97700  Biso   1.000  H
  H12      1.0000 0.82270  0.07690  0.47700  Biso   1.000  H
  C5       1.0000 0.21810  0.52570  0.95140  Biso   1.000  C
  C6       1.0000 0.21810  0.97430  0.45140  Biso   1.000  C
  C7       1.0000 0.78190  0.47430  0.04860  Biso   1.000  C
  C8       1.0000 0.78190  0.02570  0.54860  Biso   1.000  C
  H13      1.0000 0.19830  0.53780  0.89440  Biso   1.000  H
  H14      1.0000 0.19830  0.96220  0.39440  Biso   1.000  H
  H15      1.0000 0.80170  0.46220  0.10560  Biso   1.000  H
  H16      1.0000 0.80170  0.03780  0.60560  Biso   1.000  H
  C9       1.0000 0.25900  0.48590  0.95930  Biso   1.000  C
  C10      1.0000 0.25900  0.01410  0.45930  Biso   1.000  C
  C11      1.0000 0.74100  0.51410  0.04070  Biso   1.000  C
  C12      1.0000 0.74100  0.98590  0.54070  Biso   1.000  C
  H17      1.0000 0.26890  0.46970  0.90720  Biso   1.000  H
  H18      1.0000 0.26890  0.03030  0.40720  Biso   1.000  H
  H19      1.0000 0.73110  0.53030  0.09280  Biso   1.000  H
  H20      1.0000 0.73110  0.96970  0.59280  Biso   1.000  H
  C13      1.0000 0.28680  0.46830  0.04220  Biso   1.000  C
  C14      1.0000 0.28680  0.03170  0.54220  Biso   1.000  C
  C15      1.0000 0.71320  0.53170  0.95780  Biso   1.000  C
  C16      1.0000 0.71320  0.96830  0.45780  Biso   1.000  C
  H21      1.0000 0.31540  0.44010  0.04800  Biso   1.000  H
  H22      1.0000 0.31540  0.05990  0.54800  Biso   1.000  H
  H23      1.0000 0.68460  0.55990  0.95200  Biso   1.000  H
  H24      1.0000 0.68460  0.94010  0.45200  Biso   1.000  H
  C17      1.0000 0.27180  0.49290  0.11680  Biso   1.000  C
  C18      1.0000 0.27180  0.00710  0.61680  Biso   1.000  C
  C19      1.0000 0.72820  0.50710  0.88320  Biso   1.000  C
  C20      1.0000 0.72820  0.99290  0.38320  Biso   1.000  C
  C21      1.0000 0.30790  0.47732  0.21060  Biso   1.000  C
  C22      1.0000 0.30790  0.02268  0.71060  Biso   1.000  C
  C23      1.0000 0.69210  0.52268  0.78940  Biso   1.000  C
  C24      1.0000 0.69210  0.97732  0.28940  Biso   1.000  C
  H25      1.0000 0.26200  0.44900  0.21610  Biso   1.000  H
  H26      1.0000 0.26200  0.05100  0.71610  Biso   1.000  H
  H27      1.0000 0.73800  0.55100  0.78390  Biso   1.000  H
  H28      1.0000 0.73800  0.94900  0.28390  Biso   1.000  H
  H29      1.0000 0.44140  0.47740  0.22500  Biso   1.000  H
  H30      1.0000 0.44140  0.02260  0.72500  Biso   1.000  H
  H31      1.0000 0.55860  0.52260  0.77500  Biso   1.000  H
  H32      1.0000 0.55860  0.97740  0.27500  Biso   1.000  H
  C25      1.0000 0.29050  0.50433  0.36520  Biso   1.000  C
  C26      1.0000 0.29050  0.99567  0.86520  Biso   1.000  C
  C27      1.0000 0.70950  0.49567  0.63480  Biso   1.000  C
  C28      1.0000 0.70950  0.00433  0.13480  Biso   1.000  C
  H33      1.0000 0.42570  0.50130  0.36410  Biso   1.000  H
  H34      1.0000 0.42570  0.99870  0.86410  Biso   1.000  H
  H35      1.0000 0.57430  0.49870  0.63590  Biso   1.000  H
  H36      1.0000 0.57430  0.00130  0.13590  Biso   1.000  H
  H37      1.0000 0.24050  0.48110  0.39900  Biso   1.000  H
  H38      1.0000 0.24050  0.01890  0.89900  Biso   1.000  H
  H39      1.0000 0.75950  0.51890  0.60100  Biso   1.000  H
  H40      1.0000 0.75950  0.98110  0.10100  Biso   1.000  H
  C29      1.0000 0.24100  0.54442  0.41000  Biso   1.000  C
  C30      1.0000 0.24100  0.95558  0.91000  Biso   1.000  C
  C31      1.0000 0.75900  0.45558  0.59000  Biso   1.000  C
  C32      1.0000 0.75900  0.04442  0.09000  Biso   1.000  C
  H41      1.0000 0.11080  0.54350  0.42910  Biso   1.000  H
  H42      1.0000 0.11080  0.95650  0.92910  Biso   1.000  H
  H43      1.0000 0.88920  0.45650  0.57090  Biso   1.000  H
  H44      1.0000 0.88920  0.04350  0.07090  Biso   1.000  H
  C33      1.0000 0.36910  0.55167  0.49080  Biso   1.000  C
  C34      1.0000 0.36910  0.94833  0.99080  Biso   1.000  C
  C35      1.0000 0.63090  0.44833  0.50920  Biso   1.000  C
  C36      1.0000 0.63090  0.05167  0.00920  Biso   1.000  C
  H45      1.0000 0.33280  0.53410  0.54100  Biso   1.000  H
  H46      1.0000 0.33280  0.96590  0.04100  Biso   1.000  H
  H47      1.0000 0.66720  0.46590  0.45900  Biso   1.000  H
  H48      1.0000 0.66720  0.03410  0.95900  Biso   1.000  H
  H49      1.0000 0.49700  0.54490  0.47590  Biso   1.000  H
  H50      1.0000 0.49700  0.95510  0.97590  Biso   1.000  H
  H51      1.0000 0.50300  0.45510  0.52410  Biso   1.000  H
  H52      1.0000 0.50300  0.04490  0.02410  Biso   1.000  H
  C37      1.0000 0.50600  0.61142  0.57150  Biso   1.000  C
  C38      1.0000 0.50600  0.88858  0.07150  Biso   1.000  C
  C39      1.0000 0.49400  0.38858  0.42850  Biso   1.000  C
  C40      1.0000 0.49400  0.11142  0.92850  Biso   1.000  C
  H53      1.0000 0.62430  0.59940  0.55390  Biso   1.000  H
  H54      1.0000 0.62430  0.90060  0.05390  Biso   1.000  H
  H55      1.0000 0.37570  0.40060  0.44610  Biso   1.000  H
  H56      1.0000 0.37570  0.09940  0.94610  Biso   1.000  H
  H57      1.0000 0.48710  0.60470  0.63490  Biso   1.000  H
  H58      1.0000 0.48710  0.89530  0.13490  Biso   1.000  H
  H59      1.0000 0.51290  0.39530  0.36510  Biso   1.000  H
  H60      1.0000 0.51290  0.10470  0.86510  Biso   1.000  H
  C41      1.0000 0.50990  0.65690  0.55930  Biso   1.000  C
  C42      1.0000 0.50990  0.84310  0.05930  Biso   1.000  C
  C43      1.0000 0.49010  0.34310  0.44070  Biso   1.000  C
  C44      1.0000 0.49010  0.15690  0.94070  Biso   1.000  C
  C45      1.0000 0.58230  0.68440  0.62180  Biso   1.000  C
  C46      1.0000 0.58230  0.81560  0.12180  Biso   1.000  C
  C47      1.0000 0.41770  0.31560  0.37820  Biso   1.000  C
  C48      1.0000 0.41770  0.18440  0.87820  Biso   1.000  C
  H61      1.0000 0.62900  0.67500  0.67790  Biso   1.000  H
  H62      1.0000 0.62900  0.82500  0.17790  Biso   1.000  H
  H63      1.0000 0.37100  0.32500  0.32210  Biso   1.000  H
  H64      1.0000 0.37100  0.17500  0.82210  Biso   1.000  H
  C49      1.0000 0.58560  0.72500  0.60160  Biso   1.000  C
  C50      1.0000 0.58560  0.77500  0.10160  Biso   1.000  C
  C51      1.0000 0.41440  0.27500  0.39840  Biso   1.000  C
  C52      1.0000 0.41440  0.22500  0.89840  Biso   1.000  C
  H65      1.0000 0.63300  0.74410  0.64390  Biso   1.000  H
  H66      1.0000 0.63300  0.75590  0.14390  Biso   1.000  H
  H67      1.0000 0.36700  0.25590  0.35610  Biso   1.000  H
  H68      1.0000 0.36700  0.24410  0.85610  Biso   1.000  H
  C53      1.0000 0.52060  0.73790  0.52060  Biso   1.000  C
  C54      1.0000 0.52060  0.76210  0.02060  Biso   1.000  C
  C55      1.0000 0.47940  0.26210  0.47940  Biso   1.000  C
  C56      1.0000 0.47940  0.23790  0.97940  Biso   1.000  C
  H69      1.0000 0.52520  0.76600  0.50500  Biso   1.000  H
  H70      1.0000 0.52520  0.73400  0.00500  Biso   1.000  H
  H71      1.0000 0.47480  0.23400  0.49500  Biso   1.000  H
  H72      1.0000 0.47480  0.26600  0.99500  Biso   1.000  H
  C57      1.0000 0.44870  0.70998  0.46200  Biso   1.000  C
  C58      1.0000 0.44870  0.79002  0.96200  Biso   1.000  C
  C59      1.0000 0.55130  0.29002  0.53800  Biso   1.000  C
  C60      1.0000 0.55130  0.20998  0.03800  Biso   1.000  C
  H73      1.0000 0.40000  0.71920  0.40610  Biso   1.000  H
  H74      1.0000 0.40000  0.78080  0.90610  Biso   1.000  H
  H75      1.0000 0.60000  0.28080  0.59390  Biso   1.000  H
  H76      1.0000 0.60000  0.21920  0.09390  Biso   1.000  H
  C61      1.0000 0.52080  0.65436  0.06100  Biso   1.000  C
  C62      1.0000 0.52080  0.84564  0.56100  Biso   1.000  C
  C63      1.0000 0.47920  0.34564  0.93900  Biso   1.000  C
  C64      1.0000 0.47920  0.15436  0.43900  Biso   1.000  C
  C65      1.0000 0.38260  0.65460  0.99710  Biso   1.000  C
  C66      1.0000 0.38260  0.84540  0.49710  Biso   1.000  C
  C67      1.0000 0.61740  0.34540  0.00290  Biso   1.000  C
  C68      1.0000 0.61740  0.15460  0.50290  Biso   1.000  C
  H77      1.0000 0.25890  0.65890  0.01290  Biso   1.000  H
  H78      1.0000 0.25890  0.84110  0.51290  Biso   1.000  H
  H79      1.0000 0.74110  0.34110  0.98710  Biso   1.000  H
  H80      1.0000 0.74110  0.15890  0.48710  Biso   1.000  H
  C69      1.0000 0.42660  0.64830  0.90870  Biso   1.000  C
  C70      1.0000 0.42660  0.85170  0.40870  Biso   1.000  C
  C71      1.0000 0.57340  0.35170  0.09130  Biso   1.000  C
  C72      1.0000 0.57340  0.14830  0.59130  Biso   1.000  C
  H81      1.0000 0.33280  0.64850  0.86340  Biso   1.000  H
  H82      1.0000 0.33280  0.85150  0.36340  Biso   1.000  H
  H83      1.0000 0.66720  0.35150  0.13660  Biso   1.000  H
  H84      1.0000 0.66720  0.14850  0.63660  Biso   1.000  H
  C73      1.0000 0.60430  0.64170  0.88710  Biso   1.000  C
  C74      1.0000 0.60430  0.85830  0.38710  Biso   1.000  C
  C75      1.0000 0.39570  0.35830  0.11290  Biso   1.000  C
  C76      1.0000 0.39570  0.14170  0.61290  Biso   1.000  C
  H85      1.0000 0.63410  0.63750  0.82660  Biso   1.000  H
  H86      1.0000 0.63410  0.86250  0.32660  Biso   1.000  H
  H87      1.0000 0.36590  0.36250  0.17340  Biso   1.000  H
  H88      1.0000 0.36590  0.13750  0.67340  Biso   1.000  H
  C77      1.0000 0.74010  0.64130  0.95180  Biso   1.000  C
  C78      1.0000 0.74010  0.85870  0.45180  Biso   1.000  C
  C79      1.0000 0.25990  0.35870  0.04820  Biso   1.000  C
  C80      1.0000 0.25990  0.14130  0.54820  Biso   1.000  C
  H89      1.0000 0.86350  0.63650  0.93580  Biso   1.000  H
  H90      1.0000 0.86350  0.86350  0.43580  Biso   1.000  H
  H91      1.0000 0.13650  0.36350  0.06420  Biso   1.000  H
  H92      1.0000 0.13650  0.13650  0.56420  Biso   1.000  H
  C81      1.0000 0.70060  0.64750  0.03910  Biso   1.000  C
  C82      1.0000 0.70060  0.85250  0.53910  Biso   1.000  C
  C83      1.0000 0.29940  0.35250  0.96090  Biso   1.000  C
  C84      1.0000 0.29940  0.14750  0.46090  Biso   1.000  C
  H93      1.0000 0.79540  0.64720  0.08390  Biso   1.000  H
  H94      1.0000 0.79540  0.85280  0.58390  Biso   1.000  H
  H95      1.0000 0.20460  0.35280  0.91610  Biso   1.000  H
  H96      1.0000 0.20460  0.14720  0.41610  Biso   1.000  H
  C85      1.0000 0.07090  0.71357  0.21500  Biso   1.000  C
  C86      1.0000 0.07090  0.78643  0.71500  Biso   1.000  C
  C87      1.0000 0.92910  0.28643  0.78500  Biso   1.000  C
  C88      1.0000 0.92910  0.21357  0.28500  Biso   1.000  C
  C89      1.0000 0.92680  0.69510  0.24580  Biso   1.000  C
  C90      1.0000 0.92680  0.80490  0.74580  Biso   1.000  C
  C91      1.0000 0.07320  0.30490  0.75420  Biso   1.000  C
  C92      1.0000 0.07320  0.19510  0.25420  Biso   1.000  C
  H97      1.0000 0.91650  0.66650  0.23590  Biso   1.000  H
  H98      1.0000 0.91650  0.83350  0.73590  Biso   1.000  H
  H99      1.0000 0.08350  0.33350  0.76410  Biso   1.000  H
  H100     1.0000 0.08350  0.16650  0.26410  Biso   1.000  H
  C93      1.0000 0.79600  0.71280  0.28900  Biso   1.000  C
  C94      1.0000 0.79600  0.78720  0.78900  Biso   1.000  C
  C95      1.0000 0.20400  0.28720  0.71100  Biso   1.000  C
  C96      1.0000 0.20400  0.21280  0.21100  Biso   1.000  C
  H101     1.0000 0.68920  0.69860  0.30630  Biso   1.000  H
  H102     1.0000 0.68920  0.80140  0.80630  Biso   1.000  H
  H103     1.0000 0.31080  0.30140  0.69370  Biso   1.000  H
  H104     1.0000 0.31080  0.19860  0.19370  Biso   1.000  H
  C97      1.0000 0.82240  0.75330  0.30780  Biso   1.000  C
  C98      1.0000 0.82240  0.74670  0.80780  Biso   1.000  C
  C99      1.0000 0.17760  0.24670  0.69220  Biso   1.000  C
  C100     1.0000 0.17760  0.25330  0.19220  Biso   1.000  C
  H105     1.0000 0.73180  0.76620  0.34230  Biso   1.000  H
  H106     1.0000 0.73180  0.73380  0.84230  Biso   1.000  H
  H107     1.0000 0.26820  0.23380  0.65770  Biso   1.000  H
  H108     1.0000 0.26820  0.26620  0.15770  Biso   1.000  H
  C101     1.0000 0.96390  0.77680  0.28250  Biso   1.000  C
  C102     1.0000 0.96390  0.72320  0.78250  Biso   1.000  C
  C103     1.0000 0.03610  0.22320  0.71750  Biso   1.000  C
  C104     1.0000 0.03610  0.27680  0.21750  Biso   1.000  C
  H109     1.0000 0.97600  0.80480  0.29810  Biso   1.000  H
  H110     1.0000 0.97600  0.69520  0.79810  Biso   1.000  H
  H111     1.0000 0.02400  0.19520  0.70190  Biso   1.000  H
  H112     1.0000 0.02400  0.30480  0.20190  Biso   1.000  H
  C105     1.0000 0.09790  0.75490  0.22830  Biso   1.000  C
  C106     1.0000 0.09790  0.74510  0.72830  Biso   1.000  C
  C107     1.0000 0.90210  0.24510  0.77170  Biso   1.000  C
  C108     1.0000 0.90210  0.25490  0.27170  Biso   1.000  C
  H113     1.0000 0.19900  0.76870  0.20340  Biso   1.000  H
  H114     1.0000 0.19900  0.73130  0.70340  Biso   1.000  H
  H115     1.0000 0.80100  0.23130  0.79660  Biso   1.000  H
  H116     1.0000 0.80100  0.26870  0.29660  Biso   1.000  H
  C109     1.0000 0.97040  0.67320  0.48680  Biso   1.000  C
  C110     1.0000 0.97040  0.82680  0.98680  Biso   1.000  C
  C111     1.0000 0.02960  0.32680  0.51320  Biso   1.000  C
  C112     1.0000 0.02960  0.17320  0.01320  Biso   1.000  C
  H117     1.0000 0.83620  0.67210  0.48880  Biso   1.000  H
  H118     1.0000 0.83620  0.82790  0.98880  Biso   1.000  H
  H119     1.0000 0.16380  0.32790  0.51120  Biso   1.000  H
  H120     1.0000 0.16380  0.17210  0.01120  Biso   1.000  H
  H121     1.0000 0.00780  0.69920  0.46080  Biso   1.000  H
  H122     1.0000 0.00780  0.80080  0.96080  Biso   1.000  H
  H123     1.0000 0.99220  0.30080  0.53920  Biso   1.000  H
  H124     1.0000 0.99220  0.19920  0.03920  Biso   1.000  H
  H125     1.0000 0.02330  0.67080  0.54740  Biso   1.000  H
  H126     1.0000 0.02330  0.82920  0.04740  Biso   1.000  H
  H127     1.0000 0.97670  0.32920  0.45260  Biso   1.000  H
  H128     1.0000 0.97670  0.17080  0.95260  Biso   1.000  H
  Cl1      1.0000 0.74155  0.56539  0.28645  Biso   1.000  Cl
  Cl2      1.0000 0.74155  0.93461  0.78645  Biso   1.000  Cl
  Cl3      1.0000 0.25845  0.43461  0.71355  Biso   1.000  Cl
  Cl4      1.0000 0.25845  0.06539  0.21355  Biso   1.000  Cl
  O21      1.0000 0.58220  0.55991  0.23010  Biso   1.000  O
  O22      1.0000 0.58220  0.94009  0.73010  Biso   1.000  O
  O23      1.0000 0.41780  0.44009  0.76990  Biso   1.000  O
  O24      1.0000 0.41780  0.05991  0.26990  Biso   1.000  O
  O25      1.0000 0.77740  0.53160  0.33760  Biso   1.000  O
  O26      1.0000 0.77740  0.96840  0.83760  Biso   1.000  O
  O27      1.0000 0.22260  0.46840  0.66240  Biso   1.000  O
  O28      1.0000 0.22260  0.03160  0.16240  Biso   1.000  O
  O29      1.0000 0.89320  0.57420  0.23240  Biso   1.000  O
  O30      1.0000 0.89320  0.92580  0.73240  Biso   1.000  O
  O31      1.0000 0.10680  0.42580  0.76760  Biso   1.000  O
  O32      1.0000 0.10680  0.07420  0.26760  Biso   1.000  O
  O33      1.0000 0.71390  0.59892  0.34540  Biso   1.000  O
  O34      1.0000 0.71390  0.90108  0.84540  Biso   1.000  O
  O35      1.0000 0.28610  0.40108  0.65460  Biso   1.000  O
  O36      1.0000 0.28610  0.09892  0.15460  Biso   1.000  O
  O37      1.0000 0.03230  0.64154  0.43520  Biso   1.000  O
  O38      1.0000 0.03230  0.85846  0.93520  Biso   1.000  O
  O39      1.0000 0.96770  0.35846  0.56480  Biso   1.000  O
  O40      1.0000 0.96770  0.14154  0.06480  Biso   1.000  O
  H129     1.0000 0.94230  0.62990  0.40990  Biso   1.000  H
  H130     1.0000 0.94230  0.87010  0.90990  Biso   1.000  H
  H131     1.0000 0.05770  0.37010  0.59010  Biso   1.000  H
  H132     1.0000 0.05770  0.12990  0.09010  Biso   1.000  H
  Cl5      1.0000 0.04730  0.59879  0.70966  Biso   1.000  Cl
  Cl6      1.0000 0.04730  0.90121  0.20966  Biso   1.000  Cl
  Cl7      1.0000 0.95270  0.40121  0.29034  Biso   1.000  Cl
  Cl8      1.0000 0.95270  0.09879  0.79034  Biso   1.000  Cl
  O41      1.0000 0.17600  0.62910  0.69040  Biso   1.000  O
  O42      1.0000 0.17600  0.87090  0.19040  Biso   1.000  O
  O43      1.0000 0.82400  0.37090  0.30960  Biso   1.000  O
  O44      1.0000 0.82400  0.12910  0.80960  Biso   1.000  O
  O45      1.0000 0.05100  0.58960  0.79760  Biso   1.000  O
  O46      1.0000 0.05100  0.91040  0.29760  Biso   1.000  O
  O47      1.0000 0.94900  0.41040  0.20240  Biso   1.000  O
  O48      1.0000 0.94900  0.08960  0.70240  Biso   1.000  O
  O49      1.0000 0.86340  0.61430  0.69950  Biso   1.000  O
  O50      1.0000 0.86340  0.88570  0.19950  Biso   1.000  O
  O51      1.0000 0.13660  0.38570  0.30050  Biso   1.000  O
  O52      1.0000 0.13660  0.11430  0.80050  Biso   1.000  O
  O53      1.0000 0.06500  0.56650  0.66200  Biso   1.000  O
  O54      1.0000 0.06500  0.93350  0.16200  Biso   1.000  O
  O55      1.0000 0.93500  0.43350  0.33800  Biso   1.000  O
  O56      1.0000 0.93500  0.06650  0.83800  Biso   1.000  O
  O57      1.0000 0.13000  0.56490  0.73800  Biso   1.000  O
  O58      1.0000 0.13000  0.93510  0.23800  Biso   1.000  O
  O59      1.0000 0.87000  0.43510  0.26200  Biso   1.000  O
  O60      1.0000 0.87000  0.06490  0.76200  Biso   1.000  O
  O61      1.0000 0.94400  0.61090  0.77200  Biso   1.000  O
  O62      1.0000 0.94400  0.88910  0.27200  Biso   1.000  O
  O63      1.0000 0.05600  0.38910  0.22800  Biso   1.000  O
  O64      1.0000 0.05600  0.11090  0.72800  Biso   1.000  O
  O65      1.0000 0.98000  0.58370  0.62640  Biso   1.000  O
  O66      1.0000 0.98000  0.91630  0.12640  Biso   1.000  O
  O67      1.0000 0.02000  0.41630  0.37360  Biso   1.000  O
  O68      1.0000 0.02000  0.08370  0.87360  Biso   1.000  O
