data_image0
_cell_length_a       17.916
_cell_length_b       7.2228
_cell_length_c       13.335
_cell_angle_alpha    90
_cell_angle_beta     128.726
_cell_angle_gamma    90

_symmetry_space_group_name_H-M    "P 1"
_symmetry_int_tables_number       1

loop_
  _symmetry_equiv_pos_as_xyz
  'x, y, z'

loop_
  _atom_site_label
  _atom_site_occupancy
  _atom_site_fract_x
  _atom_site_fract_y
  _atom_site_fract_z
  _atom_site_thermal_displace_type
  _atom_site_B_iso_or_equiv
  _atom_site_type_symbol
  Cu1      1.0000 0.25000  0.75000  0.50000  Biso   1.000  Cu
  Cu2      1.0000 0.75000  0.75000  0.00000  Biso   1.000  Cu
  Cu3      1.0000 0.75000  0.25000  0.50000  Biso   1.000  Cu
  Cu4      1.0000 0.25000  0.25000  0.00000  Biso   1.000  Cu
  C1       1.0000 0.15860  0.56870  0.26890  Biso   1.000  C
  C2       1.0000 0.84140  0.56870  0.23110  Biso   1.000  C
  C3       1.0000 0.65860  0.06870  0.26890  Biso   1.000  C
  C4       1.0000 0.34140  0.06870  0.23110  Biso   1.000  C
  C5       1.0000 0.84140  0.43130  0.73110  Biso   1.000  C
  C6       1.0000 0.15860  0.43130  0.76890  Biso   1.000  C
  C7       1.0000 0.34140  0.93130  0.73110  Biso   1.000  C
  C8       1.0000 0.65860  0.93130  0.76890  Biso   1.000  C
  C9       1.0000 0.11070  0.43490  0.17300  Biso   1.000  C
  C10      1.0000 0.88930  0.43490  0.32700  Biso   1.000  C
  C11      1.0000 0.61070  0.93490  0.17300  Biso   1.000  C
  C12      1.0000 0.38930  0.93490  0.32700  Biso   1.000  C
  C13      1.0000 0.88930  0.56510  0.82700  Biso   1.000  C
  C14      1.0000 0.11070  0.56510  0.67300  Biso   1.000  C
  C15      1.0000 0.38930  0.06510  0.82700  Biso   1.000  C
  C16      1.0000 0.61070  0.06510  0.67300  Biso   1.000  C
  C17      1.0000 0.11030  0.24380  0.30680  Biso   1.000  C
  C18      1.0000 0.88970  0.24380  0.19320  Biso   1.000  C
  C19      1.0000 0.61030  0.74380  0.30680  Biso   1.000  C
  C20      1.0000 0.38970  0.74380  0.19320  Biso   1.000  C
  C21      1.0000 0.88970  0.75620  0.69320  Biso   1.000  C
  C22      1.0000 0.11030  0.75620  0.80680  Biso   1.000  C
  C23      1.0000 0.38970  0.25620  0.69320  Biso   1.000  C
  C24      1.0000 0.61030  0.25620  0.80680  Biso   1.000  C
  C25      1.0000 0.15680  0.37460  0.40310  Biso   1.000  C
  C26      1.0000 0.84320  0.37460  0.09690  Biso   1.000  C
  C27      1.0000 0.65680  0.87460  0.40310  Biso   1.000  C
  C28      1.0000 0.34320  0.87460  0.09690  Biso   1.000  C
  C29      1.0000 0.84320  0.62540  0.59690  Biso   1.000  C
  C30      1.0000 0.15680  0.62540  0.90310  Biso   1.000  C
  C31      1.0000 0.34320  0.12540  0.59690  Biso   1.000  C
  C32      1.0000 0.65680  0.12540  0.90310  Biso   1.000  C
  C33      1.0000 0.18520  0.75740  0.25150  Biso   1.000  C
  C34      1.0000 0.81480  0.75740  0.24850  Biso   1.000  C
  C35      1.0000 0.68520  0.25740  0.25150  Biso   1.000  C
  C36      1.0000 0.31480  0.25740  0.24850  Biso   1.000  C
  C37      1.0000 0.81480  0.24260  0.74850  Biso   1.000  C
  C38      1.0000 0.18520  0.24260  0.75150  Biso   1.000  C
  C39      1.0000 0.31480  0.74260  0.74850  Biso   1.000  C
  C40      1.0000 0.68520  0.74260  0.75150  Biso   1.000  C
  N1       1.0000 0.18160  0.53710  0.38340  Biso   1.000  N
  N2       1.0000 0.81840  0.53710  0.11660  Biso   1.000  N
  N3       1.0000 0.68160  0.03710  0.38340  Biso   1.000  N
  N4       1.0000 0.31840  0.03710  0.11660  Biso   1.000  N
  N5       1.0000 0.81840  0.46290  0.61660  Biso   1.000  N
  N6       1.0000 0.18160  0.46290  0.88340  Biso   1.000  N
  N7       1.0000 0.31840  0.96290  0.61660  Biso   1.000  N
  N8       1.0000 0.68160  0.96290  0.88340  Biso   1.000  N
  N9       1.0000 0.08660  0.27210  0.19170  Biso   1.000  N
  N10      1.0000 0.91340  0.27210  0.30830  Biso   1.000  N
  N11      1.0000 0.58660  0.77210  0.19170  Biso   1.000  N
  N12      1.0000 0.41340  0.77210  0.30830  Biso   1.000  N
  N13      1.0000 0.91340  0.72790  0.80830  Biso   1.000  N
  N14      1.0000 0.08660  0.72790  0.69170  Biso   1.000  N
  N15      1.0000 0.41340  0.22790  0.80830  Biso   1.000  N
  N16      1.0000 0.58660  0.22790  0.69170  Biso   1.000  N
  O1       1.0000 0.22630  0.86160  0.35110  Biso   1.000  O
  O2       1.0000 0.77370  0.86160  0.14890  Biso   1.000  O
  O3       1.0000 0.72630  0.36160  0.35110  Biso   1.000  O
  O4       1.0000 0.27370  0.36160  0.14890  Biso   1.000  O
  O5       1.0000 0.77370  0.13840  0.64890  Biso   1.000  O
  O6       1.0000 0.22630  0.13840  0.85110  Biso   1.000  O
  O7       1.0000 0.27370  0.63840  0.64890  Biso   1.000  O
  O8       1.0000 0.72630  0.63840  0.85110  Biso   1.000  O
  O9       1.0000 0.16570  0.79890  0.14840  Biso   1.000  O
  O10      1.0000 0.83430  0.79890  0.35160  Biso   1.000  O
  O11      1.0000 0.66570  0.29890  0.14840  Biso   1.000  O
  O12      1.0000 0.33430  0.29890  0.35160  Biso   1.000  O
  O13      1.0000 0.83430  0.20110  0.85160  Biso   1.000  O
  O14      1.0000 0.16570  0.20110  0.64840  Biso   1.000  O
  O15      1.0000 0.33430  0.70110  0.85160  Biso   1.000  O
  O16      1.0000 0.66570  0.70110  0.64840  Biso   1.000  O
  Hg1      1.0000 0.00000  0.00000  0.00000  Biso   1.000  Hg
  Hg2      1.0000 0.00000  0.00000  0.50000  Biso   1.000  Hg
  Hg3      1.0000 0.50000  0.50000  0.00000  Biso   1.000  Hg
  Hg4      1.0000 0.50000  0.50000  0.50000  Biso   1.000  Hg
  Cl1      1.0000 0.05520  0.83060  0.41070  Biso   1.000  Cl
  Cl2      1.0000 0.94480  0.83060  0.08930  Biso   1.000  Cl
  Cl3      1.0000 0.55520  0.33060  0.41070  Biso   1.000  Cl
  Cl4      1.0000 0.44480  0.33060  0.08930  Biso   1.000  Cl
  Cl5      1.0000 0.94480  0.16940  0.58930  Biso   1.000  Cl
  Cl6      1.0000 0.05520  0.16940  0.91070  Biso   1.000  Cl
  Cl7      1.0000 0.44480  0.66940  0.58930  Biso   1.000  Cl
  Cl8      1.0000 0.55520  0.66940  0.91070  Biso   1.000  Cl
  H1       1.0000 0.09500  0.46000  0.09350  Biso   1.000  H
  H2       1.0000 0.90500  0.46000  0.40650  Biso   1.000  H
  H3       1.0000 0.59500  0.96000  0.09350  Biso   1.000  H
  H4       1.0000 0.40500  0.96000  0.40650  Biso   1.000  H
  H5       1.0000 0.90500  0.54000  0.90650  Biso   1.000  H
  H6       1.0000 0.09500  0.54000  0.59350  Biso   1.000  H
  H7       1.0000 0.40500  0.04000  0.90650  Biso   1.000  H
  H8       1.0000 0.59500  0.04000  0.59350  Biso   1.000  H
  H9       1.0000 0.09480  0.13080  0.32310  Biso   1.000  H
  H10      1.0000 0.90520  0.13080  0.17690  Biso   1.000  H
  H11      1.0000 0.59480  0.63080  0.32310  Biso   1.000  H
  H12      1.0000 0.40520  0.63080  0.17690  Biso   1.000  H
  H13      1.0000 0.90520  0.86920  0.67690  Biso   1.000  H
  H14      1.0000 0.09480  0.86920  0.82310  Biso   1.000  H
  H15      1.0000 0.40520  0.36920  0.67690  Biso   1.000  H
  H16      1.0000 0.59480  0.36920  0.82310  Biso   1.000  H
  H17      1.0000 0.17110  0.34980  0.48190  Biso   1.000  H
  H18      1.0000 0.82890  0.34980  0.01810  Biso   1.000  H
  H19      1.0000 0.67110  0.84980  0.48190  Biso   1.000  H
  H20      1.0000 0.32890  0.84980  0.01810  Biso   1.000  H
  H21      1.0000 0.82890  0.65020  0.51810  Biso   1.000  H
  H22      1.0000 0.17110  0.65020  0.98190  Biso   1.000  H
  H23      1.0000 0.32890  0.15020  0.51810  Biso   1.000  H
  H24      1.0000 0.67110  0.15020  0.98190  Biso   1.000  H
