data_image0
_cell_length_a       9.6313
_cell_length_b       18.4082
_cell_length_c       14.4113
_cell_angle_alpha    90
_cell_angle_beta     109.5
_cell_angle_gamma    90

_symmetry_space_group_name_H-M    "P 1"
_symmetry_int_tables_number       1

loop_
  _symmetry_equiv_pos_as_xyz
  'x, y, z'

loop_
  _atom_site_label
  _atom_site_occupancy
  _atom_site_fract_x
  _atom_site_fract_y
  _atom_site_fract_z
  _atom_site_thermal_displace_type
  _atom_site_B_iso_or_equiv
  _atom_site_type_symbol
  Cu1      1.0000 0.00000  0.50000  0.50000  Biso   1.000  Cu
  Cu2      1.0000 0.50000  0.00000  0.00000  Biso   1.000  Cu
  S1       1.0000 0.95114  0.18376  0.24503  Biso   1.000  S
  S2       1.0000 0.54886  0.68376  0.25497  Biso   1.000  S
  S3       1.0000 0.04886  0.81624  0.75497  Biso   1.000  S
  S4       1.0000 0.45114  0.31624  0.74503  Biso   1.000  S
  O1       1.0000 0.02400  0.24977  0.23290  Biso   1.000  O
  O2       1.0000 0.47600  0.74977  0.26710  Biso   1.000  O
  O3       1.0000 0.97600  0.75023  0.76710  Biso   1.000  O
  O4       1.0000 0.52400  0.25023  0.73290  Biso   1.000  O
  O5       1.0000 0.90790  0.14024  0.15458  Biso   1.000  O
  O6       1.0000 0.59210  0.64024  0.34542  Biso   1.000  O
  O7       1.0000 0.09210  0.85976  0.84542  Biso   1.000  O
  O8       1.0000 0.40790  0.35976  0.65458  Biso   1.000  O
  O9       1.0000 0.03020  0.14101  0.33074  Biso   1.000  O
  O10      1.0000 0.46980  0.64101  0.16926  Biso   1.000  O
  O11      1.0000 0.96980  0.85899  0.66926  Biso   1.000  O
  O12      1.0000 0.53020  0.35899  0.83074  Biso   1.000  O
  C1       1.0000 0.68990  0.15707  0.27320  Biso   1.000  C
  C2       1.0000 0.81010  0.65707  0.22680  Biso   1.000  C
  C3       1.0000 0.31010  0.84293  0.72680  Biso   1.000  C
  C4       1.0000 0.18990  0.34293  0.77320  Biso   1.000  C
  H1       1.0000 0.71380  0.10830  0.27130  Biso   1.000  H
  H2       1.0000 0.78620  0.60830  0.22870  Biso   1.000  H
  H3       1.0000 0.28620  0.89170  0.72870  Biso   1.000  H
  H4       1.0000 0.21380  0.39170  0.77130  Biso   1.000  H
  C5       1.0000 0.78440  0.21001  0.26230  Biso   1.000  C
  C6       1.0000 0.71560  0.71001  0.23770  Biso   1.000  C
  C7       1.0000 0.21560  0.78999  0.73770  Biso   1.000  C
  C8       1.0000 0.28440  0.28999  0.76230  Biso   1.000  C
  C9       1.0000 0.75160  0.28305  0.26640  Biso   1.000  C
  C10      1.0000 0.74840  0.78305  0.23360  Biso   1.000  C
  C11      1.0000 0.24840  0.71695  0.73360  Biso   1.000  C
  C12      1.0000 0.25160  0.21695  0.76640  Biso   1.000  C
  H5       1.0000 0.81590  0.31830  0.25850  Biso   1.000  H
  H6       1.0000 0.68410  0.81830  0.24150  Biso   1.000  H
  H7       1.0000 0.18410  0.68170  0.74150  Biso   1.000  H
  H8       1.0000 0.31590  0.18170  0.75850  Biso   1.000  H
  O13      1.0000 0.67760  0.42815  0.27956  Biso   1.000  O
  O14      1.0000 0.82240  0.92815  0.22044  Biso   1.000  O
  O15      1.0000 0.32240  0.57185  0.72044  Biso   1.000  O
  O16      1.0000 0.17760  0.07185  0.77956  Biso   1.000  O
  C13      1.0000 0.45410  0.12063  0.29960  Biso   1.000  C
  C14      1.0000 0.04590  0.62063  0.20040  Biso   1.000  C
  C15      1.0000 0.54590  0.87937  0.70040  Biso   1.000  C
  C16      1.0000 0.95410  0.37937  0.79960  Biso   1.000  C
  C17      1.0000 0.58870  0.38240  0.29210  Biso   1.000  C
  C18      1.0000 0.91130  0.88240  0.20790  Biso   1.000  C
  C19      1.0000 0.41130  0.61760  0.70790  Biso   1.000  C
  C20      1.0000 0.08870  0.11760  0.79210  Biso   1.000  C
  C21      1.0000 0.52690  0.24972  0.29130  Biso   1.000  C
  C22      1.0000 0.97310  0.74972  0.20870  Biso   1.000  C
  C23      1.0000 0.47310  0.75028  0.70870  Biso   1.000  C
  C24      1.0000 0.02690  0.25028  0.79130  Biso   1.000  C
  H9       1.0000 0.43920  0.26290  0.30050  Biso   1.000  H
  H10      1.0000 0.06080  0.76290  0.19950  Biso   1.000  H
  H11      1.0000 0.56080  0.73710  0.69950  Biso   1.000  H
  H12      1.0000 0.93920  0.23710  0.80050  Biso   1.000  H
  C25      1.0000 0.62210  0.30359  0.28220  Biso   1.000  C
  C26      1.0000 0.87790  0.80359  0.21780  Biso   1.000  C
  C27      1.0000 0.37790  0.69641  0.71780  Biso   1.000  C
  C28      1.0000 0.12210  0.19641  0.78220  Biso   1.000  C
  C29      1.0000 0.55940  0.17668  0.28700  Biso   1.000  C
  C30      1.0000 0.94060  0.67668  0.21300  Biso   1.000  C
  C31      1.0000 0.44060  0.82332  0.71300  Biso   1.000  C
  C32      1.0000 0.05940  0.32332  0.78700  Biso   1.000  C
  O17      1.0000 0.47610  0.39815  0.31261  Biso   1.000  O
  O18      1.0000 0.02390  0.89815  0.18739  Biso   1.000  O
  O19      1.0000 0.52390  0.60185  0.68739  Biso   1.000  O
  O20      1.0000 0.97610  0.10185  0.81261  Biso   1.000  O
  O21      1.0000 0.13380  0.03143  0.20930  Biso   1.000  O
  O22      1.0000 0.36620  0.53143  0.29070  Biso   1.000  O
  O23      1.0000 0.86620  0.96857  0.79070  Biso   1.000  O
  O24      1.0000 0.63380  0.46857  0.70930  Biso   1.000  O
  O25      1.0000 0.32740  0.10252  0.47950  Biso   1.000  O
  O26      1.0000 0.17260  0.60252  0.02050  Biso   1.000  O
  O27      1.0000 0.67260  0.89748  0.52050  Biso   1.000  O
  O28      1.0000 0.82740  0.39748  0.97950  Biso   1.000  O
  O29      1.0000 0.79350  0.52299  0.41540  Biso   1.000  O
  O30      1.0000 0.70650  0.02299  0.08460  Biso   1.000  O
  O31      1.0000 0.20650  0.47701  0.58460  Biso   1.000  O
  O32      1.0000 0.29350  0.97701  0.91540  Biso   1.000  O
  O33      1.0000 0.23480  0.34530  0.35210  Biso   1.000  O
  O34      1.0000 0.26520  0.84530  0.14790  Biso   1.000  O
  O35      1.0000 0.76520  0.65470  0.64790  Biso   1.000  O
  O36      1.0000 0.73480  0.15470  0.85210  Biso   1.000  O
  O37      1.0000 0.93910  0.53255  0.63900  Biso   1.000  O
  O38      1.0000 0.56090  0.03255  0.86100  Biso   1.000  O
  O39      1.0000 0.06090  0.46745  0.36100  Biso   1.000  O
  O40      1.0000 0.43910  0.96745  0.13900  Biso   1.000  O
  O41      1.0000 0.27200  0.03668  0.62510  Biso   1.000  O
  O42      1.0000 0.22800  0.53668  0.87490  Biso   1.000  O
  O43      1.0000 0.72800  0.96332  0.37490  Biso   1.000  O
  O44      1.0000 0.77200  0.46332  0.12510  Biso   1.000  O
  O45      1.0000 0.37400  0.24418  0.50260  Biso   1.000  O
  O46      1.0000 0.12600  0.74418  0.99740  Biso   1.000  O
  O47      1.0000 0.62600  0.75582  0.49740  Biso   1.000  O
  O48      1.0000 0.87400  0.25582  0.00260  Biso   1.000  O
  O49      1.0000 0.33070  0.14426  0.30059  Biso   1.000  O
  O50      1.0000 0.16930  0.64426  0.19941  Biso   1.000  O
  O51      1.0000 0.66930  0.85574  0.69941  Biso   1.000  O
  O52      1.0000 0.83070  0.35574  0.80059  Biso   1.000  O
  O53      1.0000 0.48950  0.05545  0.31040  Biso   1.000  O
  O54      1.0000 0.01050  0.55545  0.18960  Biso   1.000  O
  O55      1.0000 0.51050  0.94455  0.68960  Biso   1.000  O
  O56      1.0000 0.98950  0.44455  0.81040  Biso   1.000  O
  H13      1.0000 0.09800  0.98700  0.20500  Biso   1.000  H
  H14      1.0000 0.40200  0.48700  0.29500  Biso   1.000  H
  H15      1.0000 0.90200  0.01300  0.79500  Biso   1.000  H
  H16      1.0000 0.59800  0.51300  0.70500  Biso   1.000  H
  H17      1.0000 0.94800  0.51000  0.68000  Biso   1.000  H
  H18      1.0000 0.55200  0.01000  0.82000  Biso   1.000  H
  H19      1.0000 0.05200  0.49000  0.32000  Biso   1.000  H
  H20      1.0000 0.44800  0.99000  0.18000  Biso   1.000  H
  H21      1.0000 0.33300  0.14500  0.48100  Biso   1.000  H
  H22      1.0000 0.16700  0.64500  0.01900  Biso   1.000  H
  H23      1.0000 0.66700  0.85500  0.51900  Biso   1.000  H
  H24      1.0000 0.83300  0.35500  0.98100  Biso   1.000  H
  H25      1.0000 0.07800  0.05900  0.18500  Biso   1.000  H
  H26      1.0000 0.42200  0.55900  0.31500  Biso   1.000  H
  H27      1.0000 0.92200  0.94100  0.81500  Biso   1.000  H
  H28      1.0000 0.57800  0.44100  0.68500  Biso   1.000  H
  H29      1.0000 0.88600  0.56200  0.64500  Biso   1.000  H
  H30      1.0000 0.61400  0.06200  0.85500  Biso   1.000  H
  H31      1.0000 0.11400  0.43800  0.35500  Biso   1.000  H
  H32      1.0000 0.38600  0.93800  0.14500  Biso   1.000  H
  H33      1.0000 0.30900  0.08400  0.51600  Biso   1.000  H
  H34      1.0000 0.19100  0.58400  0.98400  Biso   1.000  H
  H35      1.0000 0.69100  0.91600  0.48400  Biso   1.000  H
  H36      1.0000 0.80900  0.41600  0.01600  Biso   1.000  H
  H37      1.0000 0.75600  0.56000  0.40100  Biso   1.000  H
  H38      1.0000 0.74400  0.06000  0.09900  Biso   1.000  H
  H39      1.0000 0.24400  0.44000  0.59900  Biso   1.000  H
  H40      1.0000 0.25600  0.94000  0.90100  Biso   1.000  H
  H41      1.0000 0.34100  0.01200  0.64400  Biso   1.000  H
  H42      1.0000 0.15900  0.51200  0.85600  Biso   1.000  H
  H43      1.0000 0.65900  0.98800  0.35600  Biso   1.000  H
  H44      1.0000 0.84100  0.48800  0.14400  Biso   1.000  H
  H45      1.0000 0.76600  0.49700  0.37600  Biso   1.000  H
  H46      1.0000 0.73400  0.99700  0.12400  Biso   1.000  H
  H47      1.0000 0.23400  0.50300  0.62400  Biso   1.000  H
  H48      1.0000 0.26600  0.00300  0.87600  Biso   1.000  H
  H49      1.0000 0.40200  0.26400  0.55000  Biso   1.000  H
  H50      1.0000 0.09800  0.76400  0.95000  Biso   1.000  H
  H51      1.0000 0.59800  0.73600  0.45000  Biso   1.000  H
  H52      1.0000 0.90200  0.23600  0.05000  Biso   1.000  H
  H53      1.0000 0.26300  0.05100  0.67600  Biso   1.000  H
  H54      1.0000 0.23700  0.55100  0.82400  Biso   1.000  H
  H55      1.0000 0.73700  0.94900  0.32400  Biso   1.000  H
  H56      1.0000 0.76300  0.44900  0.17600  Biso   1.000  H
  H57      1.0000 0.34500  0.27100  0.46200  Biso   1.000  H
  H58      1.0000 0.15500  0.77100  0.03800  Biso   1.000  H
  H59      1.0000 0.65500  0.72900  0.53800  Biso   1.000  H
  H60      1.0000 0.84500  0.22900  0.96200  Biso   1.000  H
  H61      1.0000 0.29600  0.35400  0.33100  Biso   1.000  H
  H62      1.0000 0.20400  0.85400  0.16900  Biso   1.000  H
  H63      1.0000 0.70400  0.64600  0.66900  Biso   1.000  H
  H64      1.0000 0.79600  0.14600  0.83100  Biso   1.000  H
  H65      1.0000 0.19000  0.31900  0.31800  Biso   1.000  H
  H66      1.0000 0.31000  0.81900  0.18200  Biso   1.000  H
  H67      1.0000 0.81000  0.68100  0.68200  Biso   1.000  H
  H68      1.0000 0.69000  0.18100  0.81800  Biso   1.000  H
  Cu3      1.0000 0.23611  0.06518  0.34616  Biso   1.000  Cu
  Cu4      1.0000 0.26389  0.56518  0.15384  Biso   1.000  Cu
  Cu5      1.0000 0.76389  0.93482  0.65384  Biso   1.000  Cu
  Cu6      1.0000 0.73611  0.43482  0.84616  Biso   1.000  Cu
  N1       1.0000 0.06050  0.60385  0.48940  Biso   1.000  N
  N2       1.0000 0.43950  0.10385  0.01060  Biso   1.000  N
  N3       1.0000 0.93950  0.39615  0.51060  Biso   1.000  N
  N4       1.0000 0.56050  0.89615  0.98940  Biso   1.000  N
  C33      1.0000 0.97940  0.65892  0.50350  Biso   1.000  C
  C34      1.0000 0.52060  0.15892  0.99650  Biso   1.000  C
  C35      1.0000 0.02060  0.34108  0.49650  Biso   1.000  C
  C36      1.0000 0.47940  0.84108  0.00350  Biso   1.000  C
  H69      1.0000 0.89710  0.64810  0.52110  Biso   1.000  H
  H70      1.0000 0.60290  0.14810  0.97890  Biso   1.000  H
  H71      1.0000 0.10290  0.35190  0.47890  Biso   1.000  H
  H72      1.0000 0.39710  0.85190  0.02110  Biso   1.000  H
  N5       1.0000 0.20890  0.96852  0.39900  Biso   1.000  N
  N6       1.0000 0.29110  0.46852  0.10100  Biso   1.000  N
  N7       1.0000 0.79110  0.03148  0.60100  Biso   1.000  N
  N8       1.0000 0.70890  0.53148  0.89900  Biso   1.000  N
  C37      1.0000 0.13190  0.74935  0.46670  Biso   1.000  C
  C38      1.0000 0.36810  0.24935  0.03330  Biso   1.000  C
  C39      1.0000 0.86810  0.25065  0.53330  Biso   1.000  C
  C40      1.0000 0.63190  0.75065  0.96670  Biso   1.000  C
  C41      1.0000 0.21730  0.69165  0.45340  Biso   1.000  C
  C42      1.0000 0.28270  0.19165  0.04660  Biso   1.000  C
  C43      1.0000 0.78270  0.30835  0.54660  Biso   1.000  C
  C44      1.0000 0.71730  0.80835  0.95340  Biso   1.000  C
  H73      1.0000 0.30080  0.70090  0.43660  Biso   1.000  H
  H74      1.0000 0.19920  0.20090  0.06340  Biso   1.000  H
  H75      1.0000 0.69920  0.29910  0.56340  Biso   1.000  H
  H76      1.0000 0.80080  0.79910  0.93660  Biso   1.000  H
  C45      1.0000 0.06640  0.88145  0.44850  Biso   1.000  C
  C46      1.0000 0.43360  0.38145  0.05150  Biso   1.000  C
  C47      1.0000 0.93360  0.11855  0.55150  Biso   1.000  C
  C48      1.0000 0.56640  0.61855  0.94850  Biso   1.000  C
  H77      1.0000 0.98270  0.87150  0.46490  Biso   1.000  H
  H78      1.0000 0.51730  0.37150  0.03510  Biso   1.000  H
  H79      1.0000 0.01730  0.12850  0.53510  Biso   1.000  H
  H80      1.0000 0.48270  0.62850  0.96490  Biso   1.000  H
  C49      1.0000 0.16410  0.82634  0.44980  Biso   1.000  C
  C50      1.0000 0.33590  0.32634  0.05020  Biso   1.000  C
  C51      1.0000 0.83590  0.17366  0.55020  Biso   1.000  C
  C52      1.0000 0.66410  0.67366  0.94980  Biso   1.000  C
  C53      1.0000 0.17840  0.62116  0.46490  Biso   1.000  C
  C54      1.0000 0.32160  0.12116  0.03510  Biso   1.000  C
  C55      1.0000 0.82160  0.37884  0.53510  Biso   1.000  C
  C56      1.0000 0.67840  0.87884  0.96490  Biso   1.000  C
  H81      1.0000 0.23700  0.58380  0.45520  Biso   1.000  H
  H82      1.0000 0.26300  0.08380  0.04480  Biso   1.000  H
  H83      1.0000 0.76300  0.41620  0.54480  Biso   1.000  H
  H84      1.0000 0.73700  0.91620  0.95520  Biso   1.000  H
  C57      1.0000 0.30680  0.91620  0.40350  Biso   1.000  C
  C58      1.0000 0.19320  0.41620  0.09650  Biso   1.000  C
  C59      1.0000 0.69320  0.08380  0.59650  Biso   1.000  C
  C60      1.0000 0.80680  0.58380  0.90350  Biso   1.000  C
  H85      1.0000 0.39150  0.92800  0.38940  Biso   1.000  H
  H86      1.0000 0.10850  0.42800  0.11060  Biso   1.000  H
  H87      1.0000 0.60850  0.07200  0.61060  Biso   1.000  H
  H88      1.0000 0.89150  0.57200  0.88940  Biso   1.000  H
  C61      1.0000 0.28800  0.84590  0.42810  Biso   1.000  C
  C62      1.0000 0.21200  0.34590  0.07190  Biso   1.000  C
  C63      1.0000 0.71200  0.15410  0.57190  Biso   1.000  C
  C64      1.0000 0.78800  0.65410  0.92810  Biso   1.000  C
  H89      1.0000 0.35920  0.81120  0.43020  Biso   1.000  H
  H90      1.0000 0.14080  0.31120  0.06980  Biso   1.000  H
  H91      1.0000 0.64080  0.18880  0.56980  Biso   1.000  H
  H92      1.0000 0.85920  0.68880  0.93020  Biso   1.000  H
  C65      1.0000 0.09170  0.95090  0.42330  Biso   1.000  C
  C66      1.0000 0.40830  0.45090  0.07670  Biso   1.000  C
  C67      1.0000 0.90830  0.04910  0.57670  Biso   1.000  C
  C68      1.0000 0.59170  0.54910  0.92330  Biso   1.000  C
  H93      1.0000 0.02410  0.98700  0.42310  Biso   1.000  H
  H94      1.0000 0.47590  0.48700  0.07690  Biso   1.000  H
  H95      1.0000 0.97590  0.01300  0.57690  Biso   1.000  H
  H96      1.0000 0.52410  0.51300  0.92310  Biso   1.000  H
  C69      1.0000 0.01090  0.73031  0.49340  Biso   1.000  C
  C70      1.0000 0.48910  0.23031  0.00660  Biso   1.000  C
  C71      1.0000 0.98910  0.26969  0.50660  Biso   1.000  C
  C72      1.0000 0.51090  0.76969  0.99340  Biso   1.000  C
  H97      1.0000 0.95090  0.76640  0.50460  Biso   1.000  H
  H98      1.0000 0.54910  0.26640  0.99540  Biso   1.000  H
  H99      1.0000 0.04910  0.23360  0.49540  Biso   1.000  H
  H100     1.0000 0.45090  0.73360  0.00460  Biso   1.000  H
