data_image0
_cell_length_a       21.941
_cell_length_b       8.0915
_cell_length_c       15.8563
_cell_angle_alpha    90
_cell_angle_beta     110.424
_cell_angle_gamma    90

_symmetry_space_group_name_H-M    "P 1"
_symmetry_int_tables_number       1

loop_
  _symmetry_equiv_pos_as_xyz
  'x, y, z'

loop_
  _atom_site_label
  _atom_site_occupancy
  _atom_site_fract_x
  _atom_site_fract_y
  _atom_site_fract_z
  _atom_site_thermal_displace_type
  _atom_site_B_iso_or_equiv
  _atom_site_type_symbol
  Cu1      1.0000 0.26545  0.73170  0.20946  Biso   1.000  Cu
  Cu2      1.0000 0.76545  0.23170  0.20946  Biso   1.000  Cu
  Cu3      1.0000 0.26545  0.26830  0.70946  Biso   1.000  Cu
  Cu4      1.0000 0.76545  0.76830  0.70946  Biso   1.000  Cu
  Cu5      1.0000 0.73455  0.26830  0.79054  Biso   1.000  Cu
  Cu6      1.0000 0.23455  0.76830  0.79054  Biso   1.000  Cu
  Cu7      1.0000 0.73455  0.73170  0.29054  Biso   1.000  Cu
  Cu8      1.0000 0.23455  0.23170  0.29054  Biso   1.000  Cu
  V1       1.0000 0.17161  0.11852  0.91929  Biso   1.000  V
  V2       1.0000 0.67161  0.61852  0.91929  Biso   1.000  V
  V3       1.0000 0.17161  0.88148  0.41929  Biso   1.000  V
  V4       1.0000 0.67161  0.38148  0.41929  Biso   1.000  V
  V5       1.0000 0.82839  0.88148  0.08071  Biso   1.000  V
  V6       1.0000 0.32839  0.38148  0.08071  Biso   1.000  V
  V7       1.0000 0.82839  0.11852  0.58071  Biso   1.000  V
  V8       1.0000 0.32839  0.61852  0.58071  Biso   1.000  V
  P1       1.0000 0.27113  0.05207  0.12248  Biso   1.000  P
  P2       1.0000 0.77113  0.55207  0.12248  Biso   1.000  P
  P3       1.0000 0.27113  0.94793  0.62248  Biso   1.000  P
  P4       1.0000 0.77113  0.44793  0.62248  Biso   1.000  P
  P5       1.0000 0.72887  0.94793  0.87752  Biso   1.000  P
  P6       1.0000 0.22887  0.44793  0.87752  Biso   1.000  P
  P7       1.0000 0.72887  0.05207  0.37752  Biso   1.000  P
  P8       1.0000 0.22887  0.55207  0.37752  Biso   1.000  P
  O1       1.0000 0.20718  0.08250  0.04123  Biso   1.000  O
  O2       1.0000 0.70718  0.58250  0.04123  Biso   1.000  O
  O3       1.0000 0.20718  0.91750  0.54123  Biso   1.000  O
  O4       1.0000 0.70718  0.41750  0.54123  Biso   1.000  O
  O5       1.0000 0.79282  0.91750  0.95877  Biso   1.000  O
  O6       1.0000 0.29282  0.41750  0.95877  Biso   1.000  O
  O7       1.0000 0.79282  0.08250  0.45877  Biso   1.000  O
  O8       1.0000 0.29282  0.58250  0.45877  Biso   1.000  O
  O9       1.0000 0.32425  0.15780  0.10330  Biso   1.000  O
  O10      1.0000 0.82425  0.65780  0.10330  Biso   1.000  O
  O11      1.0000 0.32425  0.84220  0.60330  Biso   1.000  O
  O12      1.0000 0.82425  0.34220  0.60330  Biso   1.000  O
  O13      1.0000 0.67575  0.84220  0.89670  Biso   1.000  O
  O14      1.0000 0.17575  0.34220  0.89670  Biso   1.000  O
  O15      1.0000 0.67575  0.15780  0.39670  Biso   1.000  O
  O16      1.0000 0.17575  0.65780  0.39670  Biso   1.000  O
  O17      1.0000 0.29081  0.87170  0.12646  Biso   1.000  O
  O18      1.0000 0.79081  0.37170  0.12646  Biso   1.000  O
  O19      1.0000 0.29081  0.12830  0.62646  Biso   1.000  O
  O20      1.0000 0.79081  0.62830  0.62646  Biso   1.000  O
  O21      1.0000 0.70919  0.12830  0.87354  Biso   1.000  O
  O22      1.0000 0.20919  0.62830  0.87354  Biso   1.000  O
  O23      1.0000 0.70919  0.87170  0.37354  Biso   1.000  O
  O24      1.0000 0.20919  0.37170  0.37354  Biso   1.000  O
  O25      1.0000 0.26207  0.10340  0.20810  Biso   1.000  O
  O26      1.0000 0.76207  0.60340  0.20810  Biso   1.000  O
  O27      1.0000 0.26207  0.89660  0.70810  Biso   1.000  O
  O28      1.0000 0.76207  0.39660  0.70810  Biso   1.000  O
  O29      1.0000 0.73793  0.89660  0.79190  Biso   1.000  O
  O30      1.0000 0.23793  0.39660  0.79190  Biso   1.000  O
  O31      1.0000 0.73793  0.10340  0.29190  Biso   1.000  O
  O32      1.0000 0.23793  0.60340  0.29190  Biso   1.000  O
  O33      1.0000 0.29018  0.48860  0.13516  Biso   1.000  O
  O34      1.0000 0.79018  0.98860  0.13516  Biso   1.000  O
  O35      1.0000 0.29018  0.51140  0.63516  Biso   1.000  O
  O36      1.0000 0.79018  0.01140  0.63516  Biso   1.000  O
  O37      1.0000 0.70982  0.51140  0.86484  Biso   1.000  O
  O38      1.0000 0.20982  0.01140  0.86484  Biso   1.000  O
  O39      1.0000 0.70982  0.48860  0.36484  Biso   1.000  O
  O40      1.0000 0.20982  0.98860  0.36484  Biso   1.000  O
  O41      1.0000 0.09540  0.06730  0.88121  Biso   1.000  O
  O42      1.0000 0.59540  0.56730  0.88121  Biso   1.000  O
  O43      1.0000 0.09540  0.93270  0.38121  Biso   1.000  O
  O44      1.0000 0.59540  0.43270  0.38121  Biso   1.000  O
  O45      1.0000 0.90460  0.93270  0.11879  Biso   1.000  O
  O46      1.0000 0.40460  0.43270  0.11879  Biso   1.000  O
  O47      1.0000 0.90460  0.06730  0.61879  Biso   1.000  O
  O48      1.0000 0.40460  0.56730  0.61879  Biso   1.000  O
  N1       1.0000 0.35504  0.75010  0.30060  Biso   1.000  N
  N2       1.0000 0.85504  0.25010  0.30060  Biso   1.000  N
  N3       1.0000 0.35504  0.24990  0.80060  Biso   1.000  N
  N4       1.0000 0.85504  0.74990  0.80060  Biso   1.000  N
  N5       1.0000 0.64496  0.24990  0.69940  Biso   1.000  N
  N6       1.0000 0.14496  0.74990  0.69940  Biso   1.000  N
  N7       1.0000 0.64496  0.75010  0.19940  Biso   1.000  N
  N8       1.0000 0.14496  0.25010  0.19940  Biso   1.000  N
  N9       1.0000 0.67291  0.76650  0.62360  Biso   1.000  N
  N10      1.0000 0.17291  0.26650  0.62360  Biso   1.000  N
  N11      1.0000 0.67291  0.23350  0.12360  Biso   1.000  N
  N12      1.0000 0.17291  0.73350  0.12360  Biso   1.000  N
  N13      1.0000 0.32709  0.23350  0.37640  Biso   1.000  N
  N14      1.0000 0.82709  0.73350  0.37640  Biso   1.000  N
  N15      1.0000 0.32709  0.76650  0.87640  Biso   1.000  N
  N16      1.0000 0.82709  0.26650  0.87640  Biso   1.000  N
  C1       1.0000 0.36577  0.81650  0.38190  Biso   1.000  C
  C2       1.0000 0.86577  0.31650  0.38190  Biso   1.000  C
  C3       1.0000 0.36577  0.18350  0.88190  Biso   1.000  C
  C4       1.0000 0.86577  0.68350  0.88190  Biso   1.000  C
  C5       1.0000 0.63423  0.18350  0.61810  Biso   1.000  C
  C6       1.0000 0.13423  0.68350  0.61810  Biso   1.000  C
  C7       1.0000 0.63423  0.81650  0.11810  Biso   1.000  C
  C8       1.0000 0.13423  0.31650  0.11810  Biso   1.000  C
  H1       1.0000 0.33100  0.86260  0.39430  Biso   1.000  H
  H2       1.0000 0.83100  0.36260  0.39430  Biso   1.000  H
  H3       1.0000 0.33100  0.13740  0.89430  Biso   1.000  H
  H4       1.0000 0.83100  0.63740  0.89430  Biso   1.000  H
  H5       1.0000 0.66900  0.13740  0.60570  Biso   1.000  H
  H6       1.0000 0.16900  0.63740  0.60570  Biso   1.000  H
  H7       1.0000 0.66900  0.86260  0.10570  Biso   1.000  H
  H8       1.0000 0.16900  0.36260  0.10570  Biso   1.000  H
  C9       1.0000 0.42676  0.81880  0.44820  Biso   1.000  C
  C10      1.0000 0.92676  0.31880  0.44820  Biso   1.000  C
  C11      1.0000 0.42676  0.18120  0.94820  Biso   1.000  C
  C12      1.0000 0.92676  0.68120  0.94820  Biso   1.000  C
  C13      1.0000 0.57324  0.18120  0.55180  Biso   1.000  C
  C14      1.0000 0.07324  0.68120  0.55180  Biso   1.000  C
  C15      1.0000 0.57324  0.81880  0.05180  Biso   1.000  C
  C16      1.0000 0.07324  0.31880  0.05180  Biso   1.000  C
  H9       1.0000 0.43230  0.86390  0.50440  Biso   1.000  H
  H10      1.0000 0.93230  0.36390  0.50440  Biso   1.000  H
  H11      1.0000 0.43230  0.13610  0.00440  Biso   1.000  H
  H12      1.0000 0.93230  0.63610  0.00440  Biso   1.000  H
  H13      1.0000 0.56770  0.13610  0.49560  Biso   1.000  H
  H14      1.0000 0.06770  0.63610  0.49560  Biso   1.000  H
  H15      1.0000 0.56770  0.86390  0.99560  Biso   1.000  H
  H16      1.0000 0.06770  0.36390  0.99560  Biso   1.000  H
  C17      1.0000 0.40528  0.68620  0.28300  Biso   1.000  C
  C18      1.0000 0.90528  0.18620  0.28300  Biso   1.000  C
  C19      1.0000 0.40528  0.31380  0.78300  Biso   1.000  C
  C20      1.0000 0.90528  0.81380  0.78300  Biso   1.000  C
  C21      1.0000 0.59472  0.31380  0.71700  Biso   1.000  C
  C22      1.0000 0.09472  0.81380  0.71700  Biso   1.000  C
  C23      1.0000 0.59472  0.68620  0.21700  Biso   1.000  C
  C24      1.0000 0.09472  0.18620  0.21700  Biso   1.000  C
  H17      1.0000 0.39800  0.64070  0.22640  Biso   1.000  H
  H18      1.0000 0.89800  0.14070  0.22640  Biso   1.000  H
  H19      1.0000 0.39800  0.35930  0.72640  Biso   1.000  H
  H20      1.0000 0.89800  0.85930  0.72640  Biso   1.000  H
  H21      1.0000 0.60200  0.35930  0.77360  Biso   1.000  H
  H22      1.0000 0.10200  0.85930  0.77360  Biso   1.000  H
  H23      1.0000 0.60200  0.64070  0.27360  Biso   1.000  H
  H24      1.0000 0.10200  0.14070  0.27360  Biso   1.000  H
  C25      1.0000 0.46775  0.68470  0.34520  Biso   1.000  C
  C26      1.0000 0.96775  0.18470  0.34520  Biso   1.000  C
  C27      1.0000 0.46775  0.31530  0.84520  Biso   1.000  C
  C28      1.0000 0.96775  0.81530  0.84520  Biso   1.000  C
  C29      1.0000 0.53225  0.31530  0.65480  Biso   1.000  C
  C30      1.0000 0.03225  0.81530  0.65480  Biso   1.000  C
  C31      1.0000 0.53225  0.68470  0.15480  Biso   1.000  C
  C32      1.0000 0.03225  0.18470  0.15480  Biso   1.000  C
  H25      1.0000 0.50160  0.63850  0.33060  Biso   1.000  H
  H26      1.0000 0.00160  0.13850  0.33060  Biso   1.000  H
  H27      1.0000 0.50160  0.36150  0.83060  Biso   1.000  H
  H28      1.0000 0.00160  0.86150  0.83060  Biso   1.000  H
  H29      1.0000 0.49840  0.36150  0.66940  Biso   1.000  H
  H30      1.0000 0.99840  0.86150  0.66940  Biso   1.000  H
  H31      1.0000 0.49840  0.63850  0.16940  Biso   1.000  H
  H32      1.0000 0.99840  0.13850  0.16940  Biso   1.000  H
  C33      1.0000 0.47962  0.75350  0.43070  Biso   1.000  C
  C34      1.0000 0.97962  0.25350  0.43070  Biso   1.000  C
  C35      1.0000 0.47962  0.24650  0.93070  Biso   1.000  C
  C36      1.0000 0.97962  0.74650  0.93070  Biso   1.000  C
  C37      1.0000 0.52038  0.24650  0.56930  Biso   1.000  C
  C38      1.0000 0.02038  0.74650  0.56930  Biso   1.000  C
  C39      1.0000 0.52038  0.75350  0.06930  Biso   1.000  C
  C40      1.0000 0.02038  0.25350  0.06930  Biso   1.000  C
  C41      1.0000 0.54644  0.75750  0.49790  Biso   1.000  C
  C42      1.0000 0.04644  0.25750  0.49790  Biso   1.000  C
  C43      1.0000 0.54644  0.24250  0.99790  Biso   1.000  C
  C44      1.0000 0.04644  0.74250  0.99790  Biso   1.000  C
  C45      1.0000 0.45356  0.24250  0.50210  Biso   1.000  C
  C46      1.0000 0.95356  0.74250  0.50210  Biso   1.000  C
  C47      1.0000 0.45356  0.75750  0.00210  Biso   1.000  C
  C48      1.0000 0.95356  0.25750  0.00210  Biso   1.000  C
  C49      1.0000 0.55870  0.73020  0.58920  Biso   1.000  C
  C50      1.0000 0.05870  0.23020  0.58920  Biso   1.000  C
  C51      1.0000 0.55870  0.26980  0.08920  Biso   1.000  C
  C52      1.0000 0.05870  0.76980  0.08920  Biso   1.000  C
  C53      1.0000 0.44130  0.26980  0.41080  Biso   1.000  C
  C54      1.0000 0.94130  0.76980  0.41080  Biso   1.000  C
  C55      1.0000 0.44130  0.73020  0.91080  Biso   1.000  C
  C56      1.0000 0.94130  0.23020  0.91080  Biso   1.000  C
  H33      1.0000 0.52460  0.70800  0.60950  Biso   1.000  H
  H34      1.0000 0.02460  0.20800  0.60950  Biso   1.000  H
  H35      1.0000 0.52460  0.29200  0.10950  Biso   1.000  H
  H36      1.0000 0.02460  0.79200  0.10950  Biso   1.000  H
  H37      1.0000 0.47540  0.29200  0.39050  Biso   1.000  H
  H38      1.0000 0.97540  0.79200  0.39050  Biso   1.000  H
  H39      1.0000 0.47540  0.70800  0.89050  Biso   1.000  H
  H40      1.0000 0.97540  0.20800  0.89050  Biso   1.000  H
  C57      1.0000 0.62180  0.73630  0.64920  Biso   1.000  C
  C58      1.0000 0.12180  0.23630  0.64920  Biso   1.000  C
  C59      1.0000 0.62180  0.26370  0.14920  Biso   1.000  C
  C60      1.0000 0.12180  0.76370  0.14920  Biso   1.000  C
  C61      1.0000 0.37820  0.26370  0.35080  Biso   1.000  C
  C62      1.0000 0.87820  0.76370  0.35080  Biso   1.000  C
  C63      1.0000 0.37820  0.73630  0.85080  Biso   1.000  C
  C64      1.0000 0.87820  0.23630  0.85080  Biso   1.000  C
  H41      1.0000 0.62910  0.71880  0.71000  Biso   1.000  H
  H42      1.0000 0.12910  0.21880  0.71000  Biso   1.000  H
  H43      1.0000 0.62910  0.28120  0.21000  Biso   1.000  H
  H44      1.0000 0.12910  0.78120  0.21000  Biso   1.000  H
  H45      1.0000 0.37090  0.28120  0.29000  Biso   1.000  H
  H46      1.0000 0.87090  0.78120  0.29000  Biso   1.000  H
  H47      1.0000 0.37090  0.71880  0.79000  Biso   1.000  H
  H48      1.0000 0.87090  0.21880  0.79000  Biso   1.000  H
  C65      1.0000 0.59955  0.79000  0.47180  Biso   1.000  C
  C66      1.0000 0.09955  0.29000  0.47180  Biso   1.000  C
  C67      1.0000 0.59955  0.21000  0.97180  Biso   1.000  C
  C68      1.0000 0.09955  0.71000  0.97180  Biso   1.000  C
  C69      1.0000 0.40045  0.21000  0.52820  Biso   1.000  C
  C70      1.0000 0.90045  0.71000  0.52820  Biso   1.000  C
  C71      1.0000 0.40045  0.79000  0.02820  Biso   1.000  C
  C72      1.0000 0.90045  0.29000  0.02820  Biso   1.000  C
  H49      1.0000 0.59350  0.80960  0.41160  Biso   1.000  H
  H50      1.0000 0.09350  0.30960  0.41160  Biso   1.000  H
  H51      1.0000 0.59350  0.19040  0.91160  Biso   1.000  H
  H52      1.0000 0.09350  0.69040  0.91160  Biso   1.000  H
  H53      1.0000 0.40650  0.19040  0.58840  Biso   1.000  H
  H54      1.0000 0.90650  0.69040  0.58840  Biso   1.000  H
  H55      1.0000 0.40650  0.80960  0.08840  Biso   1.000  H
  H56      1.0000 0.90650  0.30960  0.08840  Biso   1.000  H
  C73      1.0000 0.66138  0.79300  0.53580  Biso   1.000  C
  C74      1.0000 0.16138  0.29300  0.53580  Biso   1.000  C
  C75      1.0000 0.66138  0.20700  0.03580  Biso   1.000  C
  C76      1.0000 0.16138  0.70700  0.03580  Biso   1.000  C
  C77      1.0000 0.33862  0.20700  0.46420  Biso   1.000  C
  C78      1.0000 0.83862  0.70700  0.46420  Biso   1.000  C
  C79      1.0000 0.33862  0.79300  0.96420  Biso   1.000  C
  C80      1.0000 0.83862  0.29300  0.96420  Biso   1.000  C
  H57      1.0000 0.69640  0.81430  0.51730  Biso   1.000  H
  H58      1.0000 0.19640  0.31430  0.51730  Biso   1.000  H
  H59      1.0000 0.69640  0.18570  0.01730  Biso   1.000  H
  H60      1.0000 0.19640  0.68570  0.01730  Biso   1.000  H
  H61      1.0000 0.30360  0.18570  0.48270  Biso   1.000  H
  H62      1.0000 0.80360  0.68570  0.48270  Biso   1.000  H
  H63      1.0000 0.30360  0.81430  0.98270  Biso   1.000  H
  H64      1.0000 0.80360  0.31430  0.98270  Biso   1.000  H
