data_image0
_cell_length_a       7.5774
_cell_length_b       8.975
_cell_length_c       10.2287
_cell_angle_alpha    69.014
_cell_angle_beta     84.164
_cell_angle_gamma    77.826

_symmetry_space_group_name_H-M    "P 1"
_symmetry_int_tables_number       1

loop_
  _symmetry_equiv_pos_as_xyz
  'x, y, z'

loop_
  _atom_site_label
  _atom_site_occupancy
  _atom_site_fract_x
  _atom_site_fract_y
  _atom_site_fract_z
  _atom_site_thermal_displace_type
  _atom_site_B_iso_or_equiv
  _atom_site_type_symbol
  Cu1      1.0000 0.39010  0.46359  0.24528  Biso   1.000  Cu
  Cu2      1.0000 0.60990  0.53641  0.75472  Biso   1.000  Cu
  P1       1.0000 0.73446  0.38454  0.07259  Biso   1.000  P
  P2       1.0000 0.26554  0.61546  0.92741  Biso   1.000  P
  V1       1.0000 0.84673  0.72769  0.90914  Biso   1.000  V
  V2       1.0000 0.15327  0.27231  0.09086  Biso   1.000  V
  O1       1.0000 0.61670  0.33960  0.20430  Biso   1.000  O
  O2       1.0000 0.38330  0.66040  0.79570  Biso   1.000  O
  O3       1.0000 0.79590  0.54720  0.05350  Biso   1.000  O
  O4       1.0000 0.20410  0.45280  0.94650  Biso   1.000  O
  O5       1.0000 0.91180  0.25530  0.09540  Biso   1.000  O
  O6       1.0000 0.08820  0.74470  0.90460  Biso   1.000  O
  O7       1.0000 0.64820  0.39360  0.94330  Biso   1.000  O
  O8       1.0000 0.35180  0.60640  0.05670  Biso   1.000  O
  O9       1.0000 0.20800  0.28250  0.23700  Biso   1.000  O
  O10      1.0000 0.79200  0.71750  0.76300  Biso   1.000  O
  O11      1.0000 0.73050  0.88900  0.92970  Biso   1.000  O
  O12      1.0000 0.26950  0.11100  0.07030  Biso   1.000  O
  N1       1.0000 0.41480  0.33850  0.44870  Biso   1.000  N
  N2       1.0000 0.58520  0.66150  0.55130  Biso   1.000  N
  N3       1.0000 0.21740  0.61810  0.32200  Biso   1.000  N
  N4       1.0000 0.78260  0.38190  0.67800  Biso   1.000  N
  C1       1.0000 0.51670  0.19100  0.50300  Biso   1.000  C
  C2       1.0000 0.48330  0.80900  0.49700  Biso   1.000  C
  H1       1.0000 0.58370  0.14280  0.44240  Biso   1.000  H
  H2       1.0000 0.41630  0.85720  0.55760  Biso   1.000  H
  C3       1.0000 0.52660  0.10750  0.64510  Biso   1.000  C
  C4       1.0000 0.47340  0.89250  0.35490  Biso   1.000  C
  H3       1.0000 0.59600  0.00380  0.67970  Biso   1.000  H
  H4       1.0000 0.40400  0.99620  0.32030  Biso   1.000  H
  C5       1.0000 0.43120  0.18120  0.73470  Biso   1.000  C
  C6       1.0000 0.56880  0.81880  0.26530  Biso   1.000  C
  H5       1.0000 0.43710  0.12870  0.83110  Biso   1.000  H
  H6       1.0000 0.56290  0.87130  0.16890  Biso   1.000  H
  C7       1.0000 0.32670  0.33410  0.67920  Biso   1.000  C
  C8       1.0000 0.67330  0.66590  0.32080  Biso   1.000  C
  H7       1.0000 0.26240  0.38590  0.73830  Biso   1.000  H
  H8       1.0000 0.73760  0.61410  0.26170  Biso   1.000  H
  C9       1.0000 0.31800  0.40970  0.53590  Biso   1.000  C
  C10      1.0000 0.68200  0.59030  0.46410  Biso   1.000  C
  C11      1.0000 0.20570  0.56970  0.46390  Biso   1.000  C
  C12      1.0000 0.79430  0.43030  0.53610  Biso   1.000  C
  C13      1.0000 0.09720  0.66560  0.53210  Biso   1.000  C
  C14      1.0000 0.90280  0.33440  0.46790  Biso   1.000  C
  H9       1.0000 0.09090  0.63160  0.62940  Biso   1.000  H
  H10      1.0000 0.90910  0.36840  0.37060  Biso   1.000  H
  C15      1.0000 0.99940  0.81130  0.45300  Biso   1.000  C
  C16      1.0000 0.00060  0.18870  0.54700  Biso   1.000  C
  H11      1.0000 0.92400  0.87630  0.49700  Biso   1.000  H
  H12      1.0000 0.07600  0.12370  0.50300  Biso   1.000  H
  C17      1.0000 0.01140  0.86260  0.30940  Biso   1.000  C
  C18      1.0000 0.98860  0.13740  0.69060  Biso   1.000  C
  H13      1.0000 0.94570  0.96210  0.25550  Biso   1.000  H
  H14      1.0000 0.05430  0.03790  0.74450  Biso   1.000  H
  C19      1.0000 0.12300  0.76320  0.24710  Biso   1.000  C
  C20      1.0000 0.87700  0.23680  0.75290  Biso   1.000  C
  H15      1.0000 0.13320  0.79780  0.14990  Biso   1.000  H
  H16      1.0000 0.86680  0.20220  0.85010  Biso   1.000  H
