data_image0
_cell_length_a       8.1055
_cell_length_b       6.2208
_cell_length_c       26.9837
_cell_angle_alpha    90
_cell_angle_beta     94.03
_cell_angle_gamma    90

_symmetry_space_group_name_H-M    "P 1"
_symmetry_int_tables_number       1

loop_
  _symmetry_equiv_pos_as_xyz
  'x, y, z'

loop_
  _atom_site_label
  _atom_site_occupancy
  _atom_site_fract_x
  _atom_site_fract_y
  _atom_site_fract_z
  _atom_site_thermal_displace_type
  _atom_site_B_iso_or_equiv
  _atom_site_type_symbol
  Cu1      1.0000 0.12663  0.27589  0.18744  Biso   1.000  Cu
  Cu2      1.0000 0.37337  0.77589  0.31256  Biso   1.000  Cu
  Cu3      1.0000 0.87337  0.72411  0.81256  Biso   1.000  Cu
  Cu4      1.0000 0.62663  0.22411  0.68744  Biso   1.000  Cu
  O1       1.0000 0.21210  0.38930  0.12851  Biso   1.000  O
  O2       1.0000 0.28790  0.88930  0.37149  Biso   1.000  O
  O3       1.0000 0.78790  0.61070  0.87149  Biso   1.000  O
  O4       1.0000 0.71210  0.11070  0.62851  Biso   1.000  O
  C1       1.0000 0.46270  0.86520  0.15767  Biso   1.000  C
  C2       1.0000 0.03730  0.36520  0.34233  Biso   1.000  C
  C3       1.0000 0.53730  0.13480  0.84233  Biso   1.000  C
  C4       1.0000 0.96270  0.63480  0.65767  Biso   1.000  C
  H1       1.0000 0.51680  0.93530  0.18460  Biso   1.000  H
  H2       1.0000 0.98320  0.43530  0.31540  Biso   1.000  H
  H3       1.0000 0.48320  0.06470  0.81540  Biso   1.000  H
  H4       1.0000 0.01680  0.56470  0.68460  Biso   1.000  H
  C5       1.0000 0.29670  0.56370  0.12445  Biso   1.000  C
  C6       1.0000 0.20330  0.06370  0.37555  Biso   1.000  C
  C7       1.0000 0.70330  0.43630  0.87555  Biso   1.000  C
  C8       1.0000 0.79670  0.93630  0.62445  Biso   1.000  C
  C9       1.0000 0.37850  0.67620  0.16517  Biso   1.000  C
  C10      1.0000 0.12150  0.17620  0.33483  Biso   1.000  C
  C11      1.0000 0.62150  0.32380  0.83483  Biso   1.000  C
  C12      1.0000 0.87850  0.82380  0.66517  Biso   1.000  C
  C13      1.0000 0.31140  0.65870  0.07688  Biso   1.000  C
  C14      1.0000 0.18860  0.15870  0.42312  Biso   1.000  C
  C15      1.0000 0.68860  0.34130  0.92312  Biso   1.000  C
  C16      1.0000 0.81140  0.84130  0.57688  Biso   1.000  C
  C17      1.0000 0.39210  0.84970  0.06963  Biso   1.000  C
  C18      1.0000 0.10790  0.34970  0.43037  Biso   1.000  C
  C19      1.0000 0.60790  0.15030  0.93037  Biso   1.000  C
  C20      1.0000 0.89210  0.65030  0.56963  Biso   1.000  C
  H5       1.0000 0.39570  0.90890  0.03810  Biso   1.000  H
  H6       1.0000 0.10430  0.40890  0.46190  Biso   1.000  H
  H7       1.0000 0.60430  0.09110  0.96190  Biso   1.000  H
  H8       1.0000 0.89570  0.59110  0.53810  Biso   1.000  H
  C21      1.0000 0.46730  0.95030  0.11085  Biso   1.000  C
  C22      1.0000 0.03270  0.45030  0.38915  Biso   1.000  C
  C23      1.0000 0.53270  0.04970  0.88915  Biso   1.000  C
  C24      1.0000 0.96730  0.54970  0.61085  Biso   1.000  C
  N1       1.0000 0.23130  0.55720  0.03232  Biso   1.000  N
  N2       1.0000 0.26870  0.05720  0.46768  Biso   1.000  N
  N3       1.0000 0.76870  0.44280  0.96768  Biso   1.000  N
  N4       1.0000 0.73130  0.94280  0.53232  Biso   1.000  N
  N5       1.0000 0.55600  0.15140  0.10454  Biso   1.000  N
  N6       1.0000 0.94400  0.65140  0.39546  Biso   1.000  N
  N7       1.0000 0.44400  0.84860  0.89546  Biso   1.000  N
  N8       1.0000 0.05600  0.34860  0.60454  Biso   1.000  N
  O5       1.0000 0.57350  0.21900  0.06299  Biso   1.000  O
  O6       1.0000 0.92650  0.71900  0.43701  Biso   1.000  O
  O7       1.0000 0.42650  0.78100  0.93701  Biso   1.000  O
  O8       1.0000 0.07350  0.28100  0.56299  Biso   1.000  O
  O9       1.0000 0.60930  0.24530  0.14266  Biso   1.000  O
  O10      1.0000 0.89070  0.74530  0.35734  Biso   1.000  O
  O11      1.0000 0.39070  0.75470  0.85734  Biso   1.000  O
  O12      1.0000 0.10930  0.25470  0.64266  Biso   1.000  O
  O13      1.0000 0.16110  0.67310  0.00078  Biso   1.000  O
  O14      1.0000 0.33890  0.17310  0.49922  Biso   1.000  O
  O15      1.0000 0.83890  0.32690  0.99922  Biso   1.000  O
  O16      1.0000 0.66110  0.82690  0.50078  Biso   1.000  O
  O17      1.0000 0.23810  0.36310  0.02875  Biso   1.000  O
  O18      1.0000 0.26190  0.86310  0.47125  Biso   1.000  O
  O19      1.0000 0.76190  0.63690  0.97125  Biso   1.000  O
  O20      1.0000 0.73810  0.13690  0.52875  Biso   1.000  O
  N9       1.0000 0.01500  0.03780  0.14852  Biso   1.000  N
  N10      1.0000 0.48500  0.53780  0.35148  Biso   1.000  N
  N11      1.0000 0.98500  0.96220  0.85148  Biso   1.000  N
  N12      1.0000 0.51500  0.46220  0.64852  Biso   1.000  N
  C25      1.0000 0.85510  0.70570  0.09616  Biso   1.000  C
  C26      1.0000 0.64490  0.20570  0.40384  Biso   1.000  C
  C27      1.0000 0.14490  0.29430  0.90384  Biso   1.000  C
  C28      1.0000 0.35510  0.79430  0.59616  Biso   1.000  C
  H9       1.0000 0.80170  0.59440  0.07850  Biso   1.000  H
  H10      1.0000 0.69830  0.09440  0.42150  Biso   1.000  H
  H11      1.0000 0.19830  0.40560  0.92150  Biso   1.000  H
  H12      1.0000 0.30170  0.90560  0.57850  Biso   1.000  H
  C29      1.0000 0.97400  0.85630  0.17174  Biso   1.000  C
  C30      1.0000 0.52600  0.35630  0.32826  Biso   1.000  C
  C31      1.0000 0.02600  0.14370  0.82826  Biso   1.000  C
  C32      1.0000 0.47400  0.64370  0.67174  Biso   1.000  C
  H13      1.0000 0.99930  0.84340  0.20580  Biso   1.000  H
  H14      1.0000 0.50070  0.34340  0.29420  Biso   1.000  H
  H15      1.0000 0.00070  0.15660  0.79420  Biso   1.000  H
  H16      1.0000 0.49930  0.65660  0.70580  Biso   1.000  H
  C33      1.0000 0.89520  0.68850  0.14630  Biso   1.000  C
  C34      1.0000 0.60480  0.18850  0.35370  Biso   1.000  C
  C35      1.0000 0.10480  0.31150  0.85370  Biso   1.000  C
  C36      1.0000 0.39520  0.81150  0.64630  Biso   1.000  C
  C37      1.0000 0.97730  0.05470  0.09966  Biso   1.000  C
  C38      1.0000 0.52270  0.55470  0.40034  Biso   1.000  C
  C39      1.0000 0.02270  0.94530  0.90034  Biso   1.000  C
  C40      1.0000 0.47730  0.44530  0.59966  Biso   1.000  C
  H17      1.0000 0.00640  0.17900  0.08320  Biso   1.000  H
  H18      1.0000 0.49360  0.67900  0.41680  Biso   1.000  H
  H19      1.0000 0.99360  0.82100  0.91680  Biso   1.000  H
  H20      1.0000 0.50640  0.32100  0.58320  Biso   1.000  H
  C41      1.0000 0.89640  0.89220  0.07304  Biso   1.000  C
  C42      1.0000 0.60360  0.39220  0.42696  Biso   1.000  C
  C43      1.0000 0.10360  0.10780  0.92696  Biso   1.000  C
  C44      1.0000 0.39640  0.60780  0.57304  Biso   1.000  C
  H21      1.0000 0.86970  0.90930  0.03920  Biso   1.000  H
  H22      1.0000 0.63030  0.40930  0.46080  Biso   1.000  H
  H23      1.0000 0.13030  0.09070  0.96080  Biso   1.000  H
  H24      1.0000 0.36970  0.59070  0.53920  Biso   1.000  H
  O21      1.0000 0.86770  0.50730  0.17369  Biso   1.000  O
  O22      1.0000 0.63230  0.00730  0.32631  Biso   1.000  O
  O23      1.0000 0.13230  0.49270  0.82631  Biso   1.000  O
  O24      1.0000 0.36770  0.99270  0.67369  Biso   1.000  O
  H25      1.0000 0.79540  0.43430  0.15910  Biso   1.000  H
  H26      1.0000 0.70460  0.93430  0.34090  Biso   1.000  H
  H27      1.0000 0.20460  0.56570  0.84090  Biso   1.000  H
  H28      1.0000 0.29540  0.06570  0.65910  Biso   1.000  H
  C45      1.0000 0.36860  0.60590  0.21742  Biso   1.000  C
  C46      1.0000 0.13140  0.10590  0.28258  Biso   1.000  C
  C47      1.0000 0.63140  0.39410  0.78258  Biso   1.000  C
  C48      1.0000 0.86860  0.89410  0.71742  Biso   1.000  C
  O25      1.0000 0.26200  0.46810  0.22901  Biso   1.000  O
  O26      1.0000 0.23800  0.96810  0.27099  Biso   1.000  O
  O27      1.0000 0.73800  0.53190  0.77099  Biso   1.000  O
  O28      1.0000 0.76200  0.03190  0.72901  Biso   1.000  O
  O29      1.0000 0.46410  0.69400  0.25017  Biso   1.000  O
  O30      1.0000 0.03590  0.19400  0.24983  Biso   1.000  O
  O31      1.0000 0.53590  0.30600  0.74983  Biso   1.000  O
  O32      1.0000 0.96410  0.80600  0.75017  Biso   1.000  O
