data_image0
_cell_length_a       10.118
_cell_length_b       11.051
_cell_length_c       21.051
_cell_angle_alpha    90
_cell_angle_beta     99.029
_cell_angle_gamma    90

_symmetry_space_group_name_H-M    "P 1"
_symmetry_int_tables_number       1

loop_
  _symmetry_equiv_pos_as_xyz
  'x, y, z'

loop_
  _atom_site_label
  _atom_site_occupancy
  _atom_site_fract_x
  _atom_site_fract_y
  _atom_site_fract_z
  _atom_site_thermal_displace_type
  _atom_site_B_iso_or_equiv
  _atom_site_type_symbol
  Cu1      1.0000 0.00000  0.25545  0.25000  Biso   1.000  Cu
  Cu2      1.0000 0.50000  0.75545  0.25000  Biso   1.000  Cu
  Cu3      1.0000 0.00000  0.74455  0.75000  Biso   1.000  Cu
  Cu4      1.0000 0.50000  0.24455  0.75000  Biso   1.000  Cu
  O1       1.0000 0.40100  0.04190  0.04890  Biso   1.000  O
  O2       1.0000 0.90100  0.54190  0.04890  Biso   1.000  O
  O3       1.0000 0.59900  0.04190  0.45110  Biso   1.000  O
  O4       1.0000 0.09900  0.54190  0.45110  Biso   1.000  O
  O5       1.0000 0.59900  0.95810  0.95110  Biso   1.000  O
  O6       1.0000 0.09900  0.45810  0.95110  Biso   1.000  O
  O7       1.0000 0.40100  0.95810  0.54890  Biso   1.000  O
  O8       1.0000 0.90100  0.45810  0.54890  Biso   1.000  O
  O9       1.0000 0.34150  0.01710  0.94349  Biso   1.000  O
  O10      1.0000 0.84150  0.51710  0.94349  Biso   1.000  O
  O11      1.0000 0.65850  0.01710  0.55651  Biso   1.000  O
  O12      1.0000 0.15850  0.51710  0.55651  Biso   1.000  O
  O13      1.0000 0.65850  0.98290  0.05651  Biso   1.000  O
  O14      1.0000 0.15850  0.48290  0.05651  Biso   1.000  O
  O15      1.0000 0.34150  0.98290  0.44349  Biso   1.000  O
  O16      1.0000 0.84150  0.48290  0.44349  Biso   1.000  O
  H1       1.0000 0.41900  0.99300  0.95000  Biso   1.000  H
  H2       1.0000 0.91900  0.49300  0.95000  Biso   1.000  H
  H3       1.0000 0.58100  0.99300  0.55000  Biso   1.000  H
  H4       1.0000 0.08100  0.49300  0.55000  Biso   1.000  H
  H5       1.0000 0.58100  0.00700  0.05000  Biso   1.000  H
  H6       1.0000 0.08100  0.50700  0.05000  Biso   1.000  H
  H7       1.0000 0.41900  0.00700  0.45000  Biso   1.000  H
  H8       1.0000 0.91900  0.50700  0.45000  Biso   1.000  H
  O17      1.0000 0.08090  0.24690  0.17112  Biso   1.000  O
  O18      1.0000 0.58090  0.74690  0.17112  Biso   1.000  O
  O19      1.0000 0.91910  0.24690  0.32888  Biso   1.000  O
  O20      1.0000 0.41910  0.74690  0.32888  Biso   1.000  O
  O21      1.0000 0.91910  0.75310  0.82888  Biso   1.000  O
  O22      1.0000 0.41910  0.25310  0.82888  Biso   1.000  O
  O23      1.0000 0.08090  0.75310  0.67112  Biso   1.000  O
  O24      1.0000 0.58090  0.25310  0.67112  Biso   1.000  O
  O25      1.0000 0.86720  0.24260  0.12932  Biso   1.000  O
  O26      1.0000 0.36720  0.74260  0.12932  Biso   1.000  O
  O27      1.0000 0.13280  0.24260  0.37068  Biso   1.000  O
  O28      1.0000 0.63280  0.74260  0.37068  Biso   1.000  O
  O29      1.0000 0.13280  0.75740  0.87068  Biso   1.000  O
  O30      1.0000 0.63280  0.25740  0.87068  Biso   1.000  O
  O31      1.0000 0.86720  0.75740  0.62932  Biso   1.000  O
  O32      1.0000 0.36720  0.25740  0.62932  Biso   1.000  O
  O33      1.0000 0.88660  0.17670  0.88935  Biso   1.000  O
  O34      1.0000 0.38660  0.67670  0.88935  Biso   1.000  O
  O35      1.0000 0.11340  0.17670  0.61065  Biso   1.000  O
  O36      1.0000 0.61340  0.67670  0.61065  Biso   1.000  O
  O37      1.0000 0.11340  0.82330  0.11065  Biso   1.000  O
  O38      1.0000 0.61340  0.32330  0.11065  Biso   1.000  O
  O39      1.0000 0.88660  0.82330  0.38935  Biso   1.000  O
  O40      1.0000 0.38660  0.32330  0.38935  Biso   1.000  O
  H9       1.0000 0.81700  0.20600  0.89200  Biso   1.000  H
  H10      1.0000 0.31700  0.70600  0.89200  Biso   1.000  H
  H11      1.0000 0.18300  0.20600  0.60800  Biso   1.000  H
  H12      1.0000 0.68300  0.70600  0.60800  Biso   1.000  H
  H13      1.0000 0.18300  0.79400  0.10800  Biso   1.000  H
  H14      1.0000 0.68300  0.29400  0.10800  Biso   1.000  H
  H15      1.0000 0.81700  0.79400  0.39200  Biso   1.000  H
  H16      1.0000 0.31700  0.29400  0.39200  Biso   1.000  H
  N1       1.0000 0.00000  0.07440  0.25000  Biso   1.000  N
  N2       1.0000 0.50000  0.57440  0.25000  Biso   1.000  N
  N3       1.0000 0.00000  0.92560  0.75000  Biso   1.000  N
  N4       1.0000 0.50000  0.42560  0.75000  Biso   1.000  N
  N5       1.0000 0.00000  0.43640  0.25000  Biso   1.000  N
  N6       1.0000 0.50000  0.93640  0.25000  Biso   1.000  N
  N7       1.0000 0.00000  0.56360  0.75000  Biso   1.000  N
  N8       1.0000 0.50000  0.06360  0.75000  Biso   1.000  N
  C1       1.0000 0.95180  0.49960  0.19760  Biso   1.000  C
  C2       1.0000 0.45180  0.99960  0.19760  Biso   1.000  C
  C3       1.0000 0.04820  0.49960  0.30240  Biso   1.000  C
  C4       1.0000 0.54820  0.99960  0.30240  Biso   1.000  C
  C5       1.0000 0.04820  0.50040  0.80240  Biso   1.000  C
  C6       1.0000 0.54820  0.00040  0.80240  Biso   1.000  C
  C7       1.0000 0.95180  0.50040  0.69760  Biso   1.000  C
  C8       1.0000 0.45180  0.00040  0.69760  Biso   1.000  C
  H17      1.0000 0.91750  0.45750  0.16040  Biso   1.000  H
  H18      1.0000 0.41750  0.95750  0.16040  Biso   1.000  H
  H19      1.0000 0.08250  0.45750  0.33960  Biso   1.000  H
  H20      1.0000 0.58250  0.95750  0.33960  Biso   1.000  H
  H21      1.0000 0.08250  0.54250  0.83960  Biso   1.000  H
  H22      1.0000 0.58250  0.04250  0.83960  Biso   1.000  H
  H23      1.0000 0.91750  0.54250  0.66040  Biso   1.000  H
  H24      1.0000 0.41750  0.04250  0.66040  Biso   1.000  H
  C9       1.0000 0.95050  0.62380  0.19571  Biso   1.000  C
  C10      1.0000 0.45050  0.12380  0.19571  Biso   1.000  C
  C11      1.0000 0.04950  0.62380  0.30429  Biso   1.000  C
  C12      1.0000 0.54950  0.12380  0.30429  Biso   1.000  C
  C13      1.0000 0.04950  0.37620  0.80429  Biso   1.000  C
  C14      1.0000 0.54950  0.87620  0.80429  Biso   1.000  C
  C15      1.0000 0.95050  0.37620  0.69571  Biso   1.000  C
  C16      1.0000 0.45050  0.87620  0.69571  Biso   1.000  C
  H25      1.0000 0.91610  0.66390  0.15790  Biso   1.000  H
  H26      1.0000 0.41610  0.16390  0.15790  Biso   1.000  H
  H27      1.0000 0.08390  0.66390  0.34210  Biso   1.000  H
  H28      1.0000 0.58390  0.16390  0.34210  Biso   1.000  H
  H29      1.0000 0.08390  0.33610  0.84210  Biso   1.000  H
  H30      1.0000 0.58390  0.83610  0.84210  Biso   1.000  H
  H31      1.0000 0.91610  0.33610  0.65790  Biso   1.000  H
  H32      1.0000 0.41610  0.83610  0.65790  Biso   1.000  H
  C17      1.0000 0.00000  0.68880  0.25000  Biso   1.000  C
  C18      1.0000 0.50000  0.18880  0.25000  Biso   1.000  C
  C19      1.0000 0.00000  0.31120  0.75000  Biso   1.000  C
  C20      1.0000 0.50000  0.81120  0.75000  Biso   1.000  C
  C21      1.0000 0.00000  0.82360  0.25000  Biso   1.000  C
  C22      1.0000 0.50000  0.32360  0.25000  Biso   1.000  C
  C23      1.0000 0.00000  0.17640  0.75000  Biso   1.000  C
  C24      1.0000 0.50000  0.67640  0.75000  Biso   1.000  C
  C25      1.0000 0.88490  0.88840  0.22745  Biso   1.000  C
  C26      1.0000 0.38490  0.38840  0.22745  Biso   1.000  C
  C27      1.0000 0.11510  0.88840  0.27255  Biso   1.000  C
  C28      1.0000 0.61510  0.38840  0.27255  Biso   1.000  C
  C29      1.0000 0.11510  0.11160  0.77255  Biso   1.000  C
  C30      1.0000 0.61510  0.61160  0.77255  Biso   1.000  C
  C31      1.0000 0.88490  0.11160  0.72745  Biso   1.000  C
  C32      1.0000 0.38490  0.61160  0.72745  Biso   1.000  C
  H33      1.0000 0.80580  0.84830  0.21150  Biso   1.000  H
  H34      1.0000 0.30580  0.34830  0.21150  Biso   1.000  H
  H35      1.0000 0.19420  0.84830  0.28850  Biso   1.000  H
  H36      1.0000 0.69420  0.34830  0.28850  Biso   1.000  H
  H37      1.0000 0.19420  0.15170  0.78850  Biso   1.000  H
  H38      1.0000 0.69420  0.65170  0.78850  Biso   1.000  H
  H39      1.0000 0.80580  0.15170  0.71150  Biso   1.000  H
  H40      1.0000 0.30580  0.65170  0.71150  Biso   1.000  H
  C33      1.0000 0.88890  0.01220  0.22892  Biso   1.000  C
  C34      1.0000 0.38890  0.51220  0.22892  Biso   1.000  C
  C35      1.0000 0.11110  0.01220  0.27108  Biso   1.000  C
  C36      1.0000 0.61110  0.51220  0.27108  Biso   1.000  C
  C37      1.0000 0.11110  0.98780  0.77108  Biso   1.000  C
  C38      1.0000 0.61110  0.48780  0.77108  Biso   1.000  C
  C39      1.0000 0.88890  0.98780  0.72892  Biso   1.000  C
  C40      1.0000 0.38890  0.48780  0.72892  Biso   1.000  C
  H41      1.0000 0.81060  0.05480  0.21460  Biso   1.000  H
  H42      1.0000 0.31060  0.55480  0.21460  Biso   1.000  H
  H43      1.0000 0.18940  0.05480  0.28540  Biso   1.000  H
  H44      1.0000 0.68940  0.55480  0.28540  Biso   1.000  H
  H45      1.0000 0.18940  0.94520  0.78540  Biso   1.000  H
  H46      1.0000 0.68940  0.44520  0.78540  Biso   1.000  H
  H47      1.0000 0.81060  0.94520  0.71460  Biso   1.000  H
  H48      1.0000 0.31060  0.44520  0.71460  Biso   1.000  H
  C41      1.0000 0.96970  0.16690  0.94650  Biso   1.000  C
  C42      1.0000 0.46970  0.66690  0.94650  Biso   1.000  C
  C43      1.0000 0.03030  0.16690  0.55350  Biso   1.000  C
  C44      1.0000 0.53030  0.66690  0.55350  Biso   1.000  C
  C45      1.0000 0.03030  0.83310  0.05350  Biso   1.000  C
  C46      1.0000 0.53030  0.33310  0.05350  Biso   1.000  C
  C47      1.0000 0.96970  0.83310  0.44650  Biso   1.000  C
  C48      1.0000 0.46970  0.33310  0.44650  Biso   1.000  C
  C49      1.0000 0.93700  0.20640  0.00448  Biso   1.000  C
  C50      1.0000 0.43700  0.70640  0.00448  Biso   1.000  C
  C51      1.0000 0.06300  0.20640  0.49552  Biso   1.000  C
  C52      1.0000 0.56300  0.70640  0.49552  Biso   1.000  C
  C53      1.0000 0.06300  0.79360  0.99552  Biso   1.000  C
  C54      1.0000 0.56300  0.29360  0.99552  Biso   1.000  C
  C55      1.0000 0.93700  0.79360  0.50448  Biso   1.000  C
  C56      1.0000 0.43700  0.29360  0.50448  Biso   1.000  C
  H49      1.0000 0.85420  0.24230  0.00560  Biso   1.000  H
  H50      1.0000 0.35420  0.74230  0.00560  Biso   1.000  H
  H51      1.0000 0.14580  0.24230  0.49440  Biso   1.000  H
  H52      1.0000 0.64580  0.74230  0.49440  Biso   1.000  H
  H53      1.0000 0.14580  0.75770  0.99440  Biso   1.000  H
  H54      1.0000 0.64580  0.25770  0.99440  Biso   1.000  H
  H55      1.0000 0.85420  0.75770  0.50560  Biso   1.000  H
  H56      1.0000 0.35420  0.25770  0.50560  Biso   1.000  H
  C57      1.0000 0.02680  0.19270  0.06100  Biso   1.000  C
  C58      1.0000 0.52680  0.69270  0.06100  Biso   1.000  C
  C59      1.0000 0.97320  0.19270  0.43900  Biso   1.000  C
  C60      1.0000 0.47320  0.69270  0.43900  Biso   1.000  C
  C61      1.0000 0.97320  0.80730  0.93900  Biso   1.000  C
  C62      1.0000 0.47320  0.30730  0.93900  Biso   1.000  C
  C63      1.0000 0.02680  0.80730  0.56100  Biso   1.000  C
  C64      1.0000 0.52680  0.30730  0.56100  Biso   1.000  C
  C65      1.0000 0.15000  0.14140  0.05934  Biso   1.000  C
  C66      1.0000 0.65000  0.64140  0.05934  Biso   1.000  C
  C67      1.0000 0.85000  0.14140  0.44066  Biso   1.000  C
  C68      1.0000 0.35000  0.64140  0.44066  Biso   1.000  C
  C69      1.0000 0.85000  0.85860  0.94066  Biso   1.000  C
  C70      1.0000 0.35000  0.35860  0.94066  Biso   1.000  C
  C71      1.0000 0.15000  0.85860  0.55934  Biso   1.000  C
  C72      1.0000 0.65000  0.35860  0.55934  Biso   1.000  C
  H57      1.0000 0.21110  0.13310  0.09700  Biso   1.000  H
  H58      1.0000 0.71110  0.63310  0.09700  Biso   1.000  H
  H59      1.0000 0.78890  0.13310  0.40300  Biso   1.000  H
  H60      1.0000 0.28890  0.63310  0.40300  Biso   1.000  H
  H61      1.0000 0.78890  0.86690  0.90300  Biso   1.000  H
  H62      1.0000 0.28890  0.36690  0.90300  Biso   1.000  H
  H63      1.0000 0.21110  0.86690  0.59700  Biso   1.000  H
  H64      1.0000 0.71110  0.36690  0.59700  Biso   1.000  H
  C73      1.0000 0.18300  0.10190  0.00108  Biso   1.000  C
  C74      1.0000 0.68300  0.60190  0.00108  Biso   1.000  C
  C75      1.0000 0.81700  0.10190  0.49892  Biso   1.000  C
  C76      1.0000 0.31700  0.60190  0.49892  Biso   1.000  C
  C77      1.0000 0.81700  0.89810  0.99892  Biso   1.000  C
  C78      1.0000 0.31700  0.39810  0.99892  Biso   1.000  C
  C79      1.0000 0.18300  0.89810  0.50108  Biso   1.000  C
  C80      1.0000 0.68300  0.39810  0.50108  Biso   1.000  C
  C81      1.0000 0.09310  0.11370  0.94511  Biso   1.000  C
  C82      1.0000 0.59310  0.61370  0.94511  Biso   1.000  C
  C83      1.0000 0.90690  0.11370  0.55489  Biso   1.000  C
  C84      1.0000 0.40690  0.61370  0.55489  Biso   1.000  C
  C85      1.0000 0.90690  0.88630  0.05489  Biso   1.000  C
  C86      1.0000 0.40690  0.38630  0.05489  Biso   1.000  C
  C87      1.0000 0.09310  0.88630  0.44511  Biso   1.000  C
  C88      1.0000 0.59310  0.38630  0.44511  Biso   1.000  C
  H65      1.0000 0.11520  0.08590  0.90640  Biso   1.000  H
  H66      1.0000 0.61520  0.58590  0.90640  Biso   1.000  H
  H67      1.0000 0.88480  0.08590  0.59360  Biso   1.000  H
  H68      1.0000 0.38480  0.58590  0.59360  Biso   1.000  H
  H69      1.0000 0.88480  0.91410  0.09360  Biso   1.000  H
  H70      1.0000 0.38480  0.41410  0.09360  Biso   1.000  H
  H71      1.0000 0.11520  0.91410  0.40640  Biso   1.000  H
  H72      1.0000 0.61520  0.41410  0.40640  Biso   1.000  H
  C89      1.0000 0.31790  0.05060  0.00031  Biso   1.000  C
  C90      1.0000 0.81790  0.55060  0.00031  Biso   1.000  C
  C91      1.0000 0.68210  0.05060  0.49969  Biso   1.000  C
  C92      1.0000 0.18210  0.55060  0.49969  Biso   1.000  C
  C93      1.0000 0.68210  0.94940  0.99969  Biso   1.000  C
  C94      1.0000 0.18210  0.44940  0.99969  Biso   1.000  C
  C95      1.0000 0.31790  0.94940  0.50031  Biso   1.000  C
  C96      1.0000 0.81790  0.44940  0.50031  Biso   1.000  C
  C97      1.0000 0.98710  0.23150  0.12390  Biso   1.000  C
  C98      1.0000 0.48710  0.73150  0.12390  Biso   1.000  C
  C99      1.0000 0.01290  0.23150  0.37610  Biso   1.000  C
  C100     1.0000 0.51290  0.73150  0.37610  Biso   1.000  C
  C101     1.0000 0.01290  0.76850  0.87610  Biso   1.000  C
  C102     1.0000 0.51290  0.26850  0.87610  Biso   1.000  C
  C103     1.0000 0.98710  0.76850  0.62390  Biso   1.000  C
  C104     1.0000 0.48710  0.26850  0.62390  Biso   1.000  C
