data_image0
_cell_length_a       7.9852
_cell_length_b       24.5926
_cell_length_c       9.3471
_cell_angle_alpha    90
_cell_angle_beta     100.87
_cell_angle_gamma    90

_symmetry_space_group_name_H-M    "P 1"
_symmetry_int_tables_number       1

loop_
  _symmetry_equiv_pos_as_xyz
  'x, y, z'

loop_
  _atom_site_label
  _atom_site_occupancy
  _atom_site_fract_x
  _atom_site_fract_y
  _atom_site_fract_z
  _atom_site_thermal_displace_type
  _atom_site_B_iso_or_equiv
  _atom_site_type_symbol
  Cu1      1.0000 0.12142  0.12863  0.92503  Biso   1.000  Cu
  Cu2      1.0000 0.37858  0.62863  0.57497  Biso   1.000  Cu
  Cu3      1.0000 0.87858  0.87137  0.07497  Biso   1.000  Cu
  Cu4      1.0000 0.62142  0.37137  0.42503  Biso   1.000  Cu
  O1       1.0000 0.06580  0.15481  0.72260  Biso   1.000  O
  O2       1.0000 0.43420  0.65481  0.77740  Biso   1.000  O
  O3       1.0000 0.93420  0.84519  0.27740  Biso   1.000  O
  O4       1.0000 0.56580  0.34519  0.22260  Biso   1.000  O
  O5       1.0000 0.98230  0.18732  0.96760  Biso   1.000  O
  O6       1.0000 0.51770  0.68732  0.53240  Biso   1.000  O
  O7       1.0000 0.01770  0.81268  0.03240  Biso   1.000  O
  O8       1.0000 0.48230  0.31268  0.46760  Biso   1.000  O
  N1       1.0000 0.11620  0.08999  0.11230  Biso   1.000  N
  N2       1.0000 0.38380  0.58999  0.38770  Biso   1.000  N
  N3       1.0000 0.88380  0.91001  0.88770  Biso   1.000  N
  N4       1.0000 0.61620  0.41001  0.61230  Biso   1.000  N
  N5       1.0000 0.23050  0.05964  0.87690  Biso   1.000  N
  N6       1.0000 0.26950  0.55964  0.62310  Biso   1.000  N
  N7       1.0000 0.76950  0.94036  0.12310  Biso   1.000  N
  N8       1.0000 0.73050  0.44036  0.37690  Biso   1.000  N
  N9       1.0000 0.85190  0.31587  0.46560  Biso   1.000  N
  N10      1.0000 0.64810  0.81587  0.03440  Biso   1.000  N
  N11      1.0000 0.14810  0.68413  0.53440  Biso   1.000  N
  N12      1.0000 0.35190  0.18413  0.96560  Biso   1.000  N
  N13      1.0000 0.96460  0.22047  0.84900  Biso   1.000  N
  N14      1.0000 0.53540  0.72047  0.65100  Biso   1.000  N
  N15      1.0000 0.03540  0.77953  0.15100  Biso   1.000  N
  N16      1.0000 0.46460  0.27953  0.34900  Biso   1.000  N
  H1       1.0000 0.94440  0.25350  0.86370  Biso   1.000  H
  H2       1.0000 0.55560  0.75350  0.63630  Biso   1.000  H
  H3       1.0000 0.05560  0.74650  0.13630  Biso   1.000  H
  H4       1.0000 0.44440  0.24650  0.36370  Biso   1.000  H
  C1       1.0000 0.05860  0.10710  0.22890  Biso   1.000  C
  C2       1.0000 0.44140  0.60710  0.27110  Biso   1.000  C
  C3       1.0000 0.94140  0.89290  0.77110  Biso   1.000  C
  C4       1.0000 0.55860  0.39290  0.72890  Biso   1.000  C
  H5       1.0000 0.01680  0.14320  0.23100  Biso   1.000  H
  H6       1.0000 0.48320  0.64320  0.26900  Biso   1.000  H
  H7       1.0000 0.98320  0.85680  0.76900  Biso   1.000  H
  H8       1.0000 0.51680  0.35680  0.73100  Biso   1.000  H
  C5       1.0000 0.05800  0.07280  0.34940  Biso   1.000  C
  C6       1.0000 0.44200  0.57280  0.15060  Biso   1.000  C
  C7       1.0000 0.94200  0.92720  0.65060  Biso   1.000  C
  C8       1.0000 0.55800  0.42720  0.84940  Biso   1.000  C
  H9       1.0000 0.01920  0.08600  0.43300  Biso   1.000  H
  H10      1.0000 0.48080  0.58600  0.06700  Biso   1.000  H
  H11      1.0000 0.98080  0.91400  0.56700  Biso   1.000  H
  H12      1.0000 0.51920  0.41400  0.93300  Biso   1.000  H
  C9       1.0000 0.11450  0.02010  0.34460  Biso   1.000  C
  C10      1.0000 0.38550  0.52010  0.15540  Biso   1.000  C
  C11      1.0000 0.88550  0.97990  0.65540  Biso   1.000  C
  C12      1.0000 0.61450  0.47990  0.84460  Biso   1.000  C
  H13      1.0000 0.11520  0.99690  0.42590  Biso   1.000  H
  H14      1.0000 0.38480  0.49690  0.07410  Biso   1.000  H
  H15      1.0000 0.88480  0.00310  0.57410  Biso   1.000  H
  H16      1.0000 0.61520  0.50310  0.92590  Biso   1.000  H
  C13      1.0000 0.17050  0.00040  0.22230  Biso   1.000  C
  C14      1.0000 0.32950  0.50040  0.27770  Biso   1.000  C
  C15      1.0000 0.82950  0.99960  0.77770  Biso   1.000  C
  C16      1.0000 0.67050  0.49960  0.72230  Biso   1.000  C
  C17      1.0000 0.22650  0.94560  0.20260  Biso   1.000  C
  C18      1.0000 0.27350  0.44560  0.29740  Biso   1.000  C
  C19      1.0000 0.77350  0.05440  0.79740  Biso   1.000  C
  C20      1.0000 0.72650  0.55440  0.70260  Biso   1.000  C
  H17      1.0000 0.22340  0.91960  0.27710  Biso   1.000  H
  H18      1.0000 0.27660  0.41960  0.22290  Biso   1.000  H
  H19      1.0000 0.77660  0.08040  0.72290  Biso   1.000  H
  H20      1.0000 0.72340  0.58040  0.77710  Biso   1.000  H
  C21      1.0000 0.28280  0.93040  0.08260  Biso   1.000  C
  C22      1.0000 0.21720  0.43040  0.41740  Biso   1.000  C
  C23      1.0000 0.71720  0.06960  0.91740  Biso   1.000  C
  C24      1.0000 0.78280  0.56960  0.58260  Biso   1.000  C
  H21      1.0000 0.31760  0.89380  0.07350  Biso   1.000  H
  H22      1.0000 0.18240  0.39380  0.42650  Biso   1.000  H
  H23      1.0000 0.68240  0.10620  0.92650  Biso   1.000  H
  H24      1.0000 0.81760  0.60620  0.57350  Biso   1.000  H
  C25      1.0000 0.29160  0.96795  0.96810  Biso   1.000  C
  C26      1.0000 0.20840  0.46795  0.53190  Biso   1.000  C
  C27      1.0000 0.70840  0.03205  0.03190  Biso   1.000  C
  C28      1.0000 0.79160  0.53205  0.46810  Biso   1.000  C
  C29      1.0000 0.35690  0.95600  0.84190  Biso   1.000  C
  C30      1.0000 0.14310  0.45600  0.65810  Biso   1.000  C
  C31      1.0000 0.64310  0.04400  0.15810  Biso   1.000  C
  C32      1.0000 0.85690  0.54400  0.34190  Biso   1.000  C
  H25      1.0000 0.39980  0.92070  0.82820  Biso   1.000  H
  H26      1.0000 0.10020  0.42070  0.67180  Biso   1.000  H
  H27      1.0000 0.60020  0.07930  0.17180  Biso   1.000  H
  H28      1.0000 0.89980  0.57930  0.32820  Biso   1.000  H
  C33      1.0000 0.35790  0.99540  0.73940  Biso   1.000  C
  C34      1.0000 0.14210  0.49540  0.76060  Biso   1.000  C
  C35      1.0000 0.64210  0.00460  0.26060  Biso   1.000  C
  C36      1.0000 0.85790  0.50460  0.23940  Biso   1.000  C
  H29      1.0000 0.40370  0.98780  0.65480  Biso   1.000  H
  H30      1.0000 0.09630  0.48780  0.84520  Biso   1.000  H
  H31      1.0000 0.59630  0.01220  0.34520  Biso   1.000  H
  H32      1.0000 0.90370  0.51220  0.15480  Biso   1.000  H
  C37      1.0000 0.29170  0.04698  0.75850  Biso   1.000  C
  C38      1.0000 0.20830  0.54698  0.74150  Biso   1.000  C
  C39      1.0000 0.70830  0.95302  0.24150  Biso   1.000  C
  C40      1.0000 0.79170  0.45302  0.25850  Biso   1.000  C
  H33      1.0000 0.29040  0.07370  0.68480  Biso   1.000  H
  H34      1.0000 0.20960  0.57370  0.81520  Biso   1.000  H
  H35      1.0000 0.70960  0.92630  0.31520  Biso   1.000  H
  H36      1.0000 0.79040  0.42630  0.18480  Biso   1.000  H
  C41      1.0000 0.23210  0.02161  0.98120  Biso   1.000  C
  C42      1.0000 0.26790  0.52161  0.51880  Biso   1.000  C
  C43      1.0000 0.76790  0.97839  0.01880  Biso   1.000  C
  C44      1.0000 0.73210  0.47839  0.48120  Biso   1.000  C
  C45      1.0000 0.17190  0.03762  0.10880  Biso   1.000  C
  C46      1.0000 0.32810  0.53762  0.39120  Biso   1.000  C
  C47      1.0000 0.82810  0.96238  0.89120  Biso   1.000  C
  C48      1.0000 0.67190  0.46238  0.60880  Biso   1.000  C
  C49      1.0000 0.93560  0.30382  0.35880  Biso   1.000  C
  C50      1.0000 0.56440  0.80382  0.14120  Biso   1.000  C
  C51      1.0000 0.06440  0.69618  0.64120  Biso   1.000  C
  C52      1.0000 0.43560  0.19618  0.85880  Biso   1.000  C
  H37      1.0000 0.92170  0.32680  0.27570  Biso   1.000  H
  H38      1.0000 0.57830  0.82680  0.22430  Biso   1.000  H
  H39      1.0000 0.07830  0.67320  0.72430  Biso   1.000  H
  H40      1.0000 0.42170  0.17320  0.77570  Biso   1.000  H
  C53      1.0000 0.87450  0.28357  0.58170  Biso   1.000  C
  C54      1.0000 0.62550  0.78357  0.91830  Biso   1.000  C
  C55      1.0000 0.12550  0.71643  0.41830  Biso   1.000  C
  C56      1.0000 0.37450  0.21643  0.08170  Biso   1.000  C
  H41      1.0000 0.81520  0.29180  0.65810  Biso   1.000  H
  H42      1.0000 0.68480  0.79180  0.84190  Biso   1.000  H
  H43      1.0000 0.18480  0.70820  0.34190  Biso   1.000  H
  H44      1.0000 0.31520  0.20820  0.15810  Biso   1.000  H
  C57      1.0000 0.00410  0.20280  0.72750  Biso   1.000  C
  C58      1.0000 0.49590  0.70280  0.77250  Biso   1.000  C
  C59      1.0000 0.99590  0.79720  0.27250  Biso   1.000  C
  C60      1.0000 0.50410  0.29720  0.22750  Biso   1.000  C
  C61      1.0000 0.98080  0.23833  0.59690  Biso   1.000  C
  C62      1.0000 0.51920  0.73833  0.90310  Biso   1.000  C
  C63      1.0000 0.01920  0.76167  0.40310  Biso   1.000  C
  C64      1.0000 0.48080  0.26167  0.09690  Biso   1.000  C
  C65      1.0000 0.06610  0.22610  0.48530  Biso   1.000  C
  C66      1.0000 0.43390  0.72610  0.01470  Biso   1.000  C
  C67      1.0000 0.93390  0.77390  0.51470  Biso   1.000  C
  C68      1.0000 0.56610  0.27390  0.98530  Biso   1.000  C
  H45      1.0000 0.13980  0.19550  0.49200  Biso   1.000  H
  H46      1.0000 0.36020  0.69550  0.00800  Biso   1.000  H
  H47      1.0000 0.86020  0.80450  0.50800  Biso   1.000  H
  H48      1.0000 0.63980  0.30450  0.99200  Biso   1.000  H
  C69      1.0000 0.04230  0.25890  0.36500  Biso   1.000  C
  C70      1.0000 0.45770  0.75890  0.13500  Biso   1.000  C
  C71      1.0000 0.95770  0.74110  0.63500  Biso   1.000  C
  C72      1.0000 0.54230  0.24110  0.86500  Biso   1.000  C
  H49      1.0000 0.09820  0.25110  0.28630  Biso   1.000  H
  H50      1.0000 0.40180  0.75110  0.21370  Biso   1.000  H
  H51      1.0000 0.90180  0.74890  0.71370  Biso   1.000  H
  H52      1.0000 0.59820  0.24890  0.78630  Biso   1.000  H
  Cl1      1.0000 0.54995  0.13847  0.47111  Biso   1.000  Cl
  Cl2      1.0000 0.95005  0.63847  0.02889  Biso   1.000  Cl
  Cl3      1.0000 0.45005  0.86153  0.52889  Biso   1.000  Cl
  Cl4      1.0000 0.04995  0.36153  0.97111  Biso   1.000  Cl
  O9       1.0000 0.62750  0.16371  0.60410  Biso   1.000  O
  O10      1.0000 0.87250  0.66371  0.89590  Biso   1.000  O
  O11      1.0000 0.37250  0.83629  0.39590  Biso   1.000  O
  O12      1.0000 0.12750  0.33629  0.10410  Biso   1.000  O
  O13      1.0000 0.39790  0.16700  0.41550  Biso   1.000  O
  O14      1.0000 0.10210  0.66700  0.08450  Biso   1.000  O
  O15      1.0000 0.60210  0.83300  0.58450  Biso   1.000  O
  O16      1.0000 0.89790  0.33300  0.91550  Biso   1.000  O
  O17      1.0000 0.66350  0.14230  0.37360  Biso   1.000  O
  O18      1.0000 0.83650  0.64230  0.12640  Biso   1.000  O
  O19      1.0000 0.33650  0.85770  0.62640  Biso   1.000  O
  O20      1.0000 0.16350  0.35770  0.87360  Biso   1.000  O
  O21      1.0000 0.50470  0.08345  0.49290  Biso   1.000  O
  O22      1.0000 0.99530  0.58345  0.00710  Biso   1.000  O
  O23      1.0000 0.49530  0.91655  0.50710  Biso   1.000  O
  O24      1.0000 0.00470  0.41655  0.99290  Biso   1.000  O
