data_image0
_cell_length_a       8.7094
_cell_length_b       9.5978
_cell_length_c       10.6996
_cell_angle_alpha    96.294
_cell_angle_beta     102.423
_cell_angle_gamma    95.889

_symmetry_space_group_name_H-M    "P 1"
_symmetry_int_tables_number       1

loop_
  _symmetry_equiv_pos_as_xyz
  'x, y, z'

loop_
  _atom_site_label
  _atom_site_occupancy
  _atom_site_fract_x
  _atom_site_fract_y
  _atom_site_fract_z
  _atom_site_thermal_displace_type
  _atom_site_B_iso_or_equiv
  _atom_site_type_symbol
  Cu1      1.0000 0.87214  0.03691  0.85283  Biso   1.000  Cu
  Cu2      1.0000 0.12786  0.96309  0.14717  Biso   1.000  Cu
  S1       1.0000 0.89200  0.72515  0.76737  Biso   1.000  S
  S2       1.0000 0.10800  0.27485  0.23263  Biso   1.000  S
  S3       1.0000 0.74851  0.08802  0.52019  Biso   1.000  S
  S4       1.0000 0.25149  0.91198  0.47981  Biso   1.000  S
  O1       1.0000 0.95650  0.23580  0.86708  Biso   1.000  O
  O2       1.0000 0.04350  0.76420  0.13292  Biso   1.000  O
  O3       1.0000 0.09060  0.00583  0.87545  Biso   1.000  O
  O4       1.0000 0.90940  0.99417  0.12455  Biso   1.000  O
  O5       1.0000 0.81100  0.82932  0.84275  Biso   1.000  O
  O6       1.0000 0.18900  0.17068  0.15725  Biso   1.000  O
  O7       1.0000 0.79640  0.99600  0.62382  Biso   1.000  O
  O8       1.0000 0.20360  0.00400  0.37618  Biso   1.000  O
  N1       1.0000 0.65580  0.07530  0.86470  Biso   1.000  N
  N2       1.0000 0.34420  0.92470  0.13530  Biso   1.000  N
  N3       1.0000 0.11570  0.23930  0.87000  Biso   1.000  N
  N4       1.0000 0.88430  0.76070  0.13000  Biso   1.000  N
  H1       1.0000 0.16400  0.32100  0.86500  Biso   1.000  H
  H2       1.0000 0.83600  0.67900  0.13500  Biso   1.000  H
  C1       1.0000 0.17750  0.12100  0.87510  Biso   1.000  C
  C2       1.0000 0.82250  0.87900  0.12490  Biso   1.000  C
  C3       1.0000 0.34730  0.11510  0.87410  Biso   1.000  C
  C4       1.0000 0.65270  0.88490  0.12590  Biso   1.000  C
  C5       1.0000 0.38150  0.98550  0.82250  Biso   1.000  C
  C6       1.0000 0.61850  0.01450  0.17750  Biso   1.000  C
  H3       1.0000 0.29950  0.90860  0.79070  Biso   1.000  H
  H4       1.0000 0.70050  0.09140  0.20930  Biso   1.000  H
  C7       1.0000 0.53600  0.97010  0.81810  Biso   1.000  C
  C8       1.0000 0.46400  0.02990  0.18190  Biso   1.000  C
  H5       1.0000 0.55850  0.88220  0.78090  Biso   1.000  H
  H6       1.0000 0.44150  0.11780  0.21910  Biso   1.000  H
  C9       1.0000 0.62320  0.19980  0.91610  Biso   1.000  C
  C10      1.0000 0.37680  0.80020  0.08390  Biso   1.000  C
  H7       1.0000 0.70800  0.27390  0.94990  Biso   1.000  H
  H8       1.0000 0.29200  0.72610  0.05010  Biso   1.000  H
  C11      1.0000 0.46980  0.22450  0.92170  Biso   1.000  C
  C12      1.0000 0.53020  0.77550  0.07830  Biso   1.000  C
  H9       1.0000 0.44970  0.31400  0.95730  Biso   1.000  H
  H10      1.0000 0.55030  0.68600  0.04270  Biso   1.000  H
  C13      1.0000 0.92400  0.19760  0.51450  Biso   1.000  C
  C14      1.0000 0.07600  0.80240  0.48550  Biso   1.000  C
  H11      1.0000 0.97650  0.24360  0.60180  Biso   1.000  H
  H12      1.0000 0.02350  0.75640  0.39820  Biso   1.000  H
  H13      1.0000 0.89630  0.26980  0.45860  Biso   1.000  H
  H14      1.0000 0.10370  0.73020  0.54140  Biso   1.000  H
  H15      1.0000 0.99580  0.13980  0.48010  Biso   1.000  H
  H16      1.0000 0.00420  0.86020  0.51990  Biso   1.000  H
  C15      1.0000 0.64960  0.22200  0.58510  Biso   1.000  C
  C16      1.0000 0.35040  0.77800  0.41490  Biso   1.000  C
  H17      1.0000 0.55010  0.17890  0.60130  Biso   1.000  H
  H18      1.0000 0.44990  0.82110  0.39870  Biso   1.000  H
  H19      1.0000 0.62680  0.28960  0.52330  Biso   1.000  H
  H20      1.0000 0.37320  0.71040  0.47670  Biso   1.000  H
  H21      1.0000 0.71750  0.27140  0.66630  Biso   1.000  H
  H22      1.0000 0.28250  0.72860  0.33370  Biso   1.000  H
  C17      1.0000 0.88580  0.57350  0.84920  Biso   1.000  C
  C18      1.0000 0.11420  0.42650  0.15080  Biso   1.000  C
  H23      1.0000 0.95600  0.59560  0.93550  Biso   1.000  H
  H24      1.0000 0.04400  0.40440  0.06450  Biso   1.000  H
  H25      1.0000 0.92100  0.49540  0.80020  Biso   1.000  H
  H26      1.0000 0.07900  0.50460  0.19980  Biso   1.000  H
  H27      1.0000 0.77710  0.54590  0.85680  Biso   1.000  H
  H28      1.0000 0.22290  0.45410  0.14320  Biso   1.000  H
  C19      1.0000 0.74640  0.65530  0.62410  Biso   1.000  C
  C20      1.0000 0.25360  0.34470  0.37590  Biso   1.000  C
  H29      1.0000 0.65070  0.61330  0.64720  Biso   1.000  H
  H30      1.0000 0.34930  0.38670  0.35280  Biso   1.000  H
  H31      1.0000 0.78810  0.58270  0.57390  Biso   1.000  H
  H32      1.0000 0.21190  0.41730  0.42610  Biso   1.000  H
  H33      1.0000 0.72040  0.73140  0.57240  Biso   1.000  H
  H34      1.0000 0.27960  0.26860  0.42760  Biso   1.000  H
  Cl1      1.0000 0.29936  0.52520  0.73335  Biso   1.000  Cl
  Cl2      1.0000 0.70064  0.47480  0.26665  Biso   1.000  Cl
  O9       1.0000 0.37260  0.66210  0.72600  Biso   1.000  O
  O10      1.0000 0.62740  0.33790  0.27400  Biso   1.000  O
  O11      1.0000 0.38480  0.41860  0.69290  Biso   1.000  O
  O12      1.0000 0.61520  0.58140  0.30710  Biso   1.000  O
  O13      1.0000 0.28000  0.51480  0.86367  Biso   1.000  O
  O14      1.0000 0.72000  0.48520  0.13633  Biso   1.000  O
  O15      1.0000 0.14240  0.50470  0.64780  Biso   1.000  O
  O16      1.0000 0.85760  0.49530  0.35220  Biso   1.000  O
