data_image0
_cell_length_a       7.417
_cell_length_b       9.686
_cell_length_c       13.661
_cell_angle_alpha    90
_cell_angle_beta     93.3
_cell_angle_gamma    90

_symmetry_space_group_name_H-M    "P 1"
_symmetry_int_tables_number       1

loop_
  _symmetry_equiv_pos_as_xyz
  'x, y, z'

loop_
  _atom_site_label
  _atom_site_occupancy
  _atom_site_fract_x
  _atom_site_fract_y
  _atom_site_fract_z
  _atom_site_thermal_displace_type
  _atom_site_B_iso_or_equiv
  _atom_site_type_symbol
  Cu1      1.0000 0.18241  0.33683  0.34760  Biso   1.000  Cu
  Cu2      1.0000 0.68241  0.16317  0.84760  Biso   1.000  Cu
  Cu3      1.0000 0.81759  0.66317  0.65240  Biso   1.000  Cu
  Cu4      1.0000 0.31759  0.83683  0.15240  Biso   1.000  Cu
  N1       1.0000 0.37600  0.43340  0.43710  Biso   1.000  N
  N2       1.0000 0.87600  0.06660  0.93710  Biso   1.000  N
  N3       1.0000 0.62400  0.56660  0.56290  Biso   1.000  N
  N4       1.0000 0.12400  0.93340  0.06290  Biso   1.000  N
  N5       1.0000 0.10210  0.24200  0.46590  Biso   1.000  N
  N6       1.0000 0.60210  0.25800  0.96590  Biso   1.000  N
  N7       1.0000 0.89790  0.75800  0.53410  Biso   1.000  N
  N8       1.0000 0.39790  0.74200  0.03410  Biso   1.000  N
  N9       1.0000 0.01620  0.22160  0.26650  Biso   1.000  N
  N10      1.0000 0.51620  0.27840  0.76650  Biso   1.000  N
  N11      1.0000 0.98380  0.77840  0.73350  Biso   1.000  N
  N12      1.0000 0.48380  0.72160  0.23350  Biso   1.000  N
  N13      1.0000 0.80660  0.08590  0.16750  Biso   1.000  N
  N14      1.0000 0.30660  0.41410  0.66750  Biso   1.000  N
  N15      1.0000 0.19340  0.91410  0.83250  Biso   1.000  N
  N16      1.0000 0.69340  0.58590  0.33250  Biso   1.000  N
  N17      1.0000 0.49660  0.01480  0.16480  Biso   1.000  N
  N18      1.0000 0.99660  0.48520  0.66480  Biso   1.000  N
  N19      1.0000 0.50340  0.98520  0.83520  Biso   1.000  N
  N20      1.0000 0.00340  0.51480  0.33520  Biso   1.000  N
  N21      1.0000 0.83630  0.13570  0.73580  Biso   1.000  N
  N22      1.0000 0.33630  0.36430  0.23580  Biso   1.000  N
  N23      1.0000 0.16370  0.86430  0.26420  Biso   1.000  N
  N24      1.0000 0.66370  0.63570  0.76420  Biso   1.000  N
  N25      1.0000 0.02860  0.09870  0.60240  Biso   1.000  N
  N26      1.0000 0.52860  0.40130  0.10240  Biso   1.000  N
  N27      1.0000 0.97140  0.90130  0.39760  Biso   1.000  N
  N28      1.0000 0.47140  0.59870  0.89760  Biso   1.000  N
  C1       1.0000 0.35250  0.56400  0.46470  Biso   1.000  C
  C2       1.0000 0.85250  0.93600  0.96470  Biso   1.000  C
  C3       1.0000 0.64750  0.43600  0.53530  Biso   1.000  C
  C4       1.0000 0.14750  0.06400  0.03530  Biso   1.000  C
  C5       1.0000 0.52490  0.36720  0.47220  Biso   1.000  C
  C6       1.0000 0.02490  0.13280  0.97220  Biso   1.000  C
  C7       1.0000 0.47510  0.63280  0.52780  Biso   1.000  C
  C8       1.0000 0.97510  0.86720  0.02780  Biso   1.000  C
  C9       1.0000 0.55690  0.22080  0.44280  Biso   1.000  C
  C10      1.0000 0.05690  0.27920  0.94280  Biso   1.000  C
  C11      1.0000 0.44310  0.77920  0.55720  Biso   1.000  C
  C12      1.0000 0.94310  0.72080  0.05720  Biso   1.000  C
  C13      1.0000 0.06180  0.18030  0.53040  Biso   1.000  C
  C14      1.0000 0.56180  0.31970  0.03040  Biso   1.000  C
  C15      1.0000 0.93820  0.81970  0.46960  Biso   1.000  C
  C16      1.0000 0.43820  0.68030  0.96960  Biso   1.000  C
  C17      1.0000 0.90620  0.16140  0.22530  Biso   1.000  C
  C18      1.0000 0.40620  0.33860  0.72530  Biso   1.000  C
  C19      1.0000 0.09380  0.83860  0.77470  Biso   1.000  C
  C20      1.0000 0.59380  0.66140  0.27470  Biso   1.000  C
  C21      1.0000 0.63970  0.05300  0.17340  Biso   1.000  C
  C22      1.0000 0.13970  0.44700  0.67340  Biso   1.000  C
  C23      1.0000 0.36030  0.94700  0.82660  Biso   1.000  C
  C24      1.0000 0.86030  0.55300  0.32660  Biso   1.000  C
  C25      1.0000 0.92320  0.12460  0.67140  Biso   1.000  C
  C26      1.0000 0.42320  0.37540  0.17140  Biso   1.000  C
  C27      1.0000 0.07680  0.87540  0.32860  Biso   1.000  C
  C28      1.0000 0.57680  0.62460  0.82860  Biso   1.000  C
  H1       1.0000 0.24750  0.61180  0.44020  Biso   1.000  H
  H2       1.0000 0.74750  0.88820  0.94020  Biso   1.000  H
  H3       1.0000 0.75250  0.38820  0.55980  Biso   1.000  H
  H4       1.0000 0.25250  0.11180  0.05980  Biso   1.000  H
  H5       1.0000 0.66770  0.18940  0.47320  Biso   1.000  H
  H6       1.0000 0.16770  0.31060  0.97320  Biso   1.000  H
  H7       1.0000 0.33230  0.81060  0.52680  Biso   1.000  H
  H8       1.0000 0.83230  0.68940  0.02680  Biso   1.000  H
  H9       1.0000 0.46090  0.16450  0.46290  Biso   1.000  H
  H10      1.0000 0.96090  0.33550  0.96290  Biso   1.000  H
  H11      1.0000 0.53910  0.83550  0.53710  Biso   1.000  H
  H12      1.0000 0.03910  0.66450  0.03710  Biso   1.000  H
  H13      1.0000 0.56220  0.21570  0.37350  Biso   1.000  H
  H14      1.0000 0.06220  0.28430  0.87350  Biso   1.000  H
  H15      1.0000 0.43780  0.78430  0.62650  Biso   1.000  H
  H16      1.0000 0.93780  0.71570  0.12650  Biso   1.000  H
