data_image0
_cell_length_a       31.299
_cell_length_b       11.9822
_cell_length_c       19.7406
_cell_angle_alpha    90
_cell_angle_beta     122.827
_cell_angle_gamma    90

_symmetry_space_group_name_H-M    "P 1"
_symmetry_int_tables_number       1

loop_
  _symmetry_equiv_pos_as_xyz
  'x, y, z'

loop_
  _atom_site_label
  _atom_site_occupancy
  _atom_site_fract_x
  _atom_site_fract_y
  _atom_site_fract_z
  _atom_site_thermal_displace_type
  _atom_site_B_iso_or_equiv
  _atom_site_type_symbol
  Cu1      1.0000 0.24368  0.83922  0.40505  Biso   1.000  Cu
  Cu2      1.0000 0.75632  0.83922  0.09495  Biso   1.000  Cu
  Cu3      1.0000 0.74368  0.33922  0.40505  Biso   1.000  Cu
  Cu4      1.0000 0.25632  0.33922  0.09495  Biso   1.000  Cu
  Cu5      1.0000 0.75632  0.16078  0.59495  Biso   1.000  Cu
  Cu6      1.0000 0.24368  0.16078  0.90505  Biso   1.000  Cu
  Cu7      1.0000 0.25632  0.66078  0.59495  Biso   1.000  Cu
  Cu8      1.0000 0.74368  0.66078  0.90505  Biso   1.000  Cu
  O1       1.0000 0.23502  0.95013  0.46902  Biso   1.000  O
  O2       1.0000 0.76498  0.95013  0.03098  Biso   1.000  O
  O3       1.0000 0.73502  0.45013  0.46902  Biso   1.000  O
  O4       1.0000 0.26498  0.45013  0.03098  Biso   1.000  O
  O5       1.0000 0.76498  0.04987  0.53098  Biso   1.000  O
  O6       1.0000 0.23502  0.04987  0.96902  Biso   1.000  O
  O7       1.0000 0.26498  0.54987  0.53098  Biso   1.000  O
  O8       1.0000 0.73502  0.54987  0.96902  Biso   1.000  O
  O9       1.0000 0.25364  0.84186  0.57292  Biso   1.000  O
  O10      1.0000 0.74636  0.84186  0.92708  Biso   1.000  O
  O11      1.0000 0.75364  0.34186  0.57292  Biso   1.000  O
  O12      1.0000 0.24636  0.34186  0.92708  Biso   1.000  O
  O13      1.0000 0.74636  0.15814  0.42708  Biso   1.000  O
  O14      1.0000 0.25364  0.15814  0.07292  Biso   1.000  O
  O15      1.0000 0.24636  0.65814  0.42708  Biso   1.000  O
  O16      1.0000 0.75364  0.65814  0.07292  Biso   1.000  O
  O17      1.0000 0.23843  0.00146  0.79527  Biso   1.000  O
  O18      1.0000 0.76157  0.00146  0.70473  Biso   1.000  O
  O19      1.0000 0.73843  0.50146  0.79527  Biso   1.000  O
  O20      1.0000 0.26157  0.50146  0.70473  Biso   1.000  O
  O21      1.0000 0.76157  0.99854  0.20473  Biso   1.000  O
  O22      1.0000 0.23843  0.99854  0.29527  Biso   1.000  O
  O23      1.0000 0.26157  0.49854  0.20473  Biso   1.000  O
  O24      1.0000 0.73843  0.49854  0.29527  Biso   1.000  O
  O25      1.0000 0.24786  0.18528  0.80894  Biso   1.000  O
  O26      1.0000 0.75214  0.18528  0.69106  Biso   1.000  O
  O27      1.0000 0.74786  0.68528  0.80894  Biso   1.000  O
  O28      1.0000 0.25214  0.68528  0.69106  Biso   1.000  O
  O29      1.0000 0.75214  0.81472  0.19106  Biso   1.000  O
  O30      1.0000 0.24786  0.81472  0.30894  Biso   1.000  O
  O31      1.0000 0.25214  0.31472  0.19106  Biso   1.000  O
  O32      1.0000 0.74786  0.31472  0.30894  Biso   1.000  O
  O33      1.0000 0.05966  0.56100  0.61991  Biso   1.000  O
  O34      1.0000 0.94034  0.56100  0.88009  Biso   1.000  O
  O35      1.0000 0.55966  0.06100  0.61991  Biso   1.000  O
  O36      1.0000 0.44034  0.06100  0.88009  Biso   1.000  O
  O37      1.0000 0.94034  0.43900  0.38009  Biso   1.000  O
  O38      1.0000 0.05966  0.43900  0.11991  Biso   1.000  O
  O39      1.0000 0.44034  0.93900  0.38009  Biso   1.000  O
  O40      1.0000 0.55966  0.93900  0.11991  Biso   1.000  O
  O41      1.0000 0.14295  0.56990  0.68686  Biso   1.000  O
  O42      1.0000 0.85705  0.56990  0.81314  Biso   1.000  O
  O43      1.0000 0.64295  0.06990  0.68686  Biso   1.000  O
  O44      1.0000 0.35705  0.06990  0.81314  Biso   1.000  O
  O45      1.0000 0.85705  0.43010  0.31314  Biso   1.000  O
  O46      1.0000 0.14295  0.43010  0.18686  Biso   1.000  O
  O47      1.0000 0.35705  0.93010  0.31314  Biso   1.000  O
  O48      1.0000 0.64295  0.93010  0.18686  Biso   1.000  O
  N1       1.0000 0.14726  0.36940  0.52299  Biso   1.000  N
  N2       1.0000 0.85274  0.36940  0.97701  Biso   1.000  N
  N3       1.0000 0.64726  0.86940  0.52299  Biso   1.000  N
  N4       1.0000 0.35274  0.86940  0.97701  Biso   1.000  N
  N5       1.0000 0.85274  0.63060  0.47701  Biso   1.000  N
  N6       1.0000 0.14726  0.63060  0.02299  Biso   1.000  N
  N7       1.0000 0.35274  0.13060  0.47701  Biso   1.000  N
  N8       1.0000 0.64726  0.13060  0.02299  Biso   1.000  N
  N9       1.0000 0.16703  0.82546  0.32917  Biso   1.000  N
  N10      1.0000 0.83297  0.82546  0.17083  Biso   1.000  N
  N11      1.0000 0.66703  0.32546  0.32917  Biso   1.000  N
  N12      1.0000 0.33297  0.32546  0.17083  Biso   1.000  N
  N13      1.0000 0.83297  0.17454  0.67083  Biso   1.000  N
  N14      1.0000 0.16703  0.17454  0.82917  Biso   1.000  N
  N15      1.0000 0.33297  0.67454  0.67083  Biso   1.000  N
  N16      1.0000 0.66703  0.67454  0.82917  Biso   1.000  N
  N17      1.0000 0.82095  0.66610  0.97860  Biso   1.000  N
  N18      1.0000 0.17905  0.66610  0.52140  Biso   1.000  N
  N19      1.0000 0.32095  0.16610  0.97860  Biso   1.000  N
  N20      1.0000 0.67905  0.16610  0.52140  Biso   1.000  N
  N21      1.0000 0.17905  0.33390  0.02140  Biso   1.000  N
  N22      1.0000 0.82095  0.33390  0.47860  Biso   1.000  N
  N23      1.0000 0.67905  0.83390  0.02140  Biso   1.000  N
  N24      1.0000 0.32095  0.83390  0.47860  Biso   1.000  N
  C1       1.0000 0.23117  0.02910  0.57506  Biso   1.000  C
  C2       1.0000 0.76883  0.02910  0.92494  Biso   1.000  C
  C3       1.0000 0.73117  0.52910  0.57506  Biso   1.000  C
  C4       1.0000 0.26883  0.52910  0.92494  Biso   1.000  C
  C5       1.0000 0.76883  0.97090  0.42494  Biso   1.000  C
  C6       1.0000 0.23117  0.97090  0.07506  Biso   1.000  C
  C7       1.0000 0.26883  0.47090  0.42494  Biso   1.000  C
  C8       1.0000 0.73117  0.47090  0.07506  Biso   1.000  C
  C9       1.0000 0.21731  0.13252  0.53718  Biso   1.000  C
  C10      1.0000 0.78269  0.13252  0.96282  Biso   1.000  C
  C11      1.0000 0.71731  0.63252  0.53718  Biso   1.000  C
  C12      1.0000 0.28269  0.63252  0.96282  Biso   1.000  C
  C13      1.0000 0.78269  0.86748  0.46282  Biso   1.000  C
  C14      1.0000 0.21731  0.86748  0.03718  Biso   1.000  C
  C15      1.0000 0.28269  0.36748  0.46282  Biso   1.000  C
  C16      1.0000 0.71731  0.36748  0.03718  Biso   1.000  C
  H1       1.0000 0.21120  0.14040  0.48580  Biso   1.000  H
  H2       1.0000 0.78880  0.14040  0.01420  Biso   1.000  H
  H3       1.0000 0.71120  0.64040  0.48580  Biso   1.000  H
  H4       1.0000 0.28880  0.64040  0.01420  Biso   1.000  H
  H5       1.0000 0.78880  0.85960  0.51420  Biso   1.000  H
  H6       1.0000 0.21120  0.85960  0.98580  Biso   1.000  H
  H7       1.0000 0.28880  0.35960  0.51420  Biso   1.000  H
  H8       1.0000 0.71120  0.35960  0.98580  Biso   1.000  H
  C17      1.0000 0.21257  0.22412  0.57578  Biso   1.000  C
  C18      1.0000 0.78743  0.22412  0.92422  Biso   1.000  C
  C19      1.0000 0.71257  0.72412  0.57578  Biso   1.000  C
  C20      1.0000 0.28743  0.72412  0.92422  Biso   1.000  C
  C21      1.0000 0.78743  0.77588  0.42422  Biso   1.000  C
  C22      1.0000 0.21257  0.77588  0.07578  Biso   1.000  C
  C23      1.0000 0.28743  0.27588  0.42422  Biso   1.000  C
  C24      1.0000 0.71257  0.27588  0.07578  Biso   1.000  C
  C25      1.0000 0.22129  0.21120  0.65228  Biso   1.000  C
  C26      1.0000 0.77871  0.21120  0.84772  Biso   1.000  C
  C27      1.0000 0.72129  0.71120  0.65228  Biso   1.000  C
  C28      1.0000 0.27871  0.71120  0.84772  Biso   1.000  C
  C29      1.0000 0.77871  0.78880  0.34772  Biso   1.000  C
  C30      1.0000 0.22129  0.78880  0.15228  Biso   1.000  C
  C31      1.0000 0.27871  0.28880  0.34772  Biso   1.000  C
  C32      1.0000 0.72129  0.28880  0.15228  Biso   1.000  C
  H9       1.0000 0.21930  0.27280  0.67900  Biso   1.000  H
  H10      1.0000 0.78070  0.27280  0.82100  Biso   1.000  H
  H11      1.0000 0.71930  0.77280  0.67900  Biso   1.000  H
  H12      1.0000 0.28070  0.77280  0.82100  Biso   1.000  H
  H13      1.0000 0.78070  0.72720  0.32100  Biso   1.000  H
  H14      1.0000 0.21930  0.72720  0.17900  Biso   1.000  H
  H15      1.0000 0.28070  0.22720  0.32100  Biso   1.000  H
  H16      1.0000 0.71930  0.22720  0.17900  Biso   1.000  H
  C33      1.0000 0.23303  0.10704  0.68920  Biso   1.000  C
  C34      1.0000 0.76697  0.10704  0.81080  Biso   1.000  C
  C35      1.0000 0.73303  0.60704  0.68920  Biso   1.000  C
  C36      1.0000 0.26697  0.60704  0.81080  Biso   1.000  C
  C37      1.0000 0.76697  0.89296  0.31080  Biso   1.000  C
  C38      1.0000 0.23303  0.89296  0.18920  Biso   1.000  C
  C39      1.0000 0.26697  0.39296  0.31080  Biso   1.000  C
  C40      1.0000 0.73303  0.39296  0.18920  Biso   1.000  C
  C41      1.0000 0.23788  0.01578  0.65010  Biso   1.000  C
  C42      1.0000 0.76212  0.01578  0.84990  Biso   1.000  C
  C43      1.0000 0.73788  0.51578  0.65010  Biso   1.000  C
  C44      1.0000 0.26212  0.51578  0.84990  Biso   1.000  C
  C45      1.0000 0.76212  0.98422  0.34990  Biso   1.000  C
  C46      1.0000 0.23788  0.98422  0.15010  Biso   1.000  C
  C47      1.0000 0.26212  0.48422  0.34990  Biso   1.000  C
  C48      1.0000 0.73788  0.48422  0.15010  Biso   1.000  C
  H17      1.0000 0.24560  0.94580  0.67430  Biso   1.000  H
  H18      1.0000 0.75440  0.94580  0.82570  Biso   1.000  H
  H19      1.0000 0.74560  0.44580  0.67430  Biso   1.000  H
  H20      1.0000 0.25440  0.44580  0.82570  Biso   1.000  H
  H21      1.0000 0.75440  0.05420  0.32570  Biso   1.000  H
  H22      1.0000 0.24560  0.05420  0.17430  Biso   1.000  H
  H23      1.0000 0.25440  0.55420  0.32570  Biso   1.000  H
  H24      1.0000 0.74560  0.55420  0.17430  Biso   1.000  H
  C49      1.0000 0.24023  0.93099  0.53657  Biso   1.000  C
  C50      1.0000 0.75977  0.93099  0.96343  Biso   1.000  C
  C51      1.0000 0.74023  0.43099  0.53657  Biso   1.000  C
  C52      1.0000 0.25977  0.43099  0.96343  Biso   1.000  C
  C53      1.0000 0.75977  0.06901  0.46343  Biso   1.000  C
  C54      1.0000 0.24023  0.06901  0.03657  Biso   1.000  C
  C55      1.0000 0.25977  0.56901  0.46343  Biso   1.000  C
  C56      1.0000 0.74023  0.56901  0.03657  Biso   1.000  C
  C57      1.0000 0.24055  0.09493  0.77050  Biso   1.000  C
  C58      1.0000 0.75945  0.09493  0.72950  Biso   1.000  C
  C59      1.0000 0.74055  0.59493  0.77050  Biso   1.000  C
  C60      1.0000 0.25945  0.59493  0.72950  Biso   1.000  C
  C61      1.0000 0.75945  0.90507  0.22950  Biso   1.000  C
  C62      1.0000 0.24055  0.90507  0.27050  Biso   1.000  C
  C63      1.0000 0.25945  0.40507  0.22950  Biso   1.000  C
  C64      1.0000 0.74055  0.40507  0.27050  Biso   1.000  C
  C65      1.0000 0.19722  0.33714  0.53558  Biso   1.000  C
  C66      1.0000 0.80278  0.33714  0.96442  Biso   1.000  C
  C67      1.0000 0.69722  0.83714  0.53558  Biso   1.000  C
  C68      1.0000 0.30278  0.83714  0.96442  Biso   1.000  C
  C69      1.0000 0.80278  0.66286  0.46442  Biso   1.000  C
  C70      1.0000 0.19722  0.66286  0.03558  Biso   1.000  C
  C71      1.0000 0.30278  0.16286  0.46442  Biso   1.000  C
  C72      1.0000 0.69722  0.16286  0.03558  Biso   1.000  C
  H25      1.0000 0.22280  0.39210  0.56920  Biso   1.000  H
  H26      1.0000 0.77720  0.39210  0.93080  Biso   1.000  H
  H27      1.0000 0.72280  0.89210  0.56920  Biso   1.000  H
  H28      1.0000 0.27720  0.89210  0.93080  Biso   1.000  H
  H29      1.0000 0.77720  0.60790  0.43080  Biso   1.000  H
  H30      1.0000 0.22280  0.60790  0.06920  Biso   1.000  H
  H31      1.0000 0.27720  0.10790  0.43080  Biso   1.000  H
  H32      1.0000 0.72280  0.10790  0.06920  Biso   1.000  H
  H33      1.0000 0.19430  0.33420  0.48420  Biso   1.000  H
  H34      1.0000 0.80570  0.33420  0.01580  Biso   1.000  H
  H35      1.0000 0.69430  0.83420  0.48420  Biso   1.000  H
  H36      1.0000 0.30570  0.83420  0.01580  Biso   1.000  H
  H37      1.0000 0.80570  0.66580  0.51580  Biso   1.000  H
  H38      1.0000 0.19430  0.66580  0.98420  Biso   1.000  H
  H39      1.0000 0.30570  0.16580  0.51580  Biso   1.000  H
  H40      1.0000 0.69430  0.16580  0.98420  Biso   1.000  H
  C73      1.0000 0.14616  0.43633  0.57671  Biso   1.000  C
  C74      1.0000 0.85384  0.43633  0.92329  Biso   1.000  C
  C75      1.0000 0.64616  0.93633  0.57671  Biso   1.000  C
  C76      1.0000 0.35384  0.93633  0.92329  Biso   1.000  C
  C77      1.0000 0.85384  0.56367  0.42329  Biso   1.000  C
  C78      1.0000 0.14616  0.56367  0.07671  Biso   1.000  C
  C79      1.0000 0.35384  0.06367  0.42329  Biso   1.000  C
  C80      1.0000 0.64616  0.06367  0.07671  Biso   1.000  C
  H41      1.0000 0.17640  0.46560  0.61940  Biso   1.000  H
  H42      1.0000 0.82360  0.46560  0.88060  Biso   1.000  H
  H43      1.0000 0.67640  0.96560  0.61940  Biso   1.000  H
  H44      1.0000 0.32360  0.96560  0.88060  Biso   1.000  H
  H45      1.0000 0.82360  0.53440  0.38060  Biso   1.000  H
  H46      1.0000 0.17640  0.53440  0.11940  Biso   1.000  H
  H47      1.0000 0.32360  0.03440  0.38060  Biso   1.000  H
  H48      1.0000 0.67640  0.03440  0.11940  Biso   1.000  H
  C81      1.0000 0.10121  0.46209  0.56955  Biso   1.000  C
  C82      1.0000 0.89879  0.46209  0.93045  Biso   1.000  C
  C83      1.0000 0.60121  0.96209  0.56955  Biso   1.000  C
  C84      1.0000 0.39879  0.96209  0.93045  Biso   1.000  C
  C85      1.0000 0.89879  0.53791  0.43045  Biso   1.000  C
  C86      1.0000 0.10121  0.53791  0.06955  Biso   1.000  C
  C87      1.0000 0.39879  0.03791  0.43045  Biso   1.000  C
  C88      1.0000 0.60121  0.03791  0.06955  Biso   1.000  C
  C89      1.0000 0.05701  0.41650  0.50500  Biso   1.000  C
  C90      1.0000 0.94299  0.41650  0.99500  Biso   1.000  C
  C91      1.0000 0.55701  0.91650  0.50500  Biso   1.000  C
  C92      1.0000 0.44299  0.91650  0.99500  Biso   1.000  C
  C93      1.0000 0.94299  0.58350  0.49500  Biso   1.000  C
  C94      1.0000 0.05701  0.58350  0.00500  Biso   1.000  C
  C95      1.0000 0.44299  0.08350  0.49500  Biso   1.000  C
  C96      1.0000 0.55701  0.08350  0.00500  Biso   1.000  C
  H49      1.0000 0.02590  0.43240  0.49830  Biso   1.000  H
  H50      1.0000 0.97410  0.43240  0.00170  Biso   1.000  H
  H51      1.0000 0.52590  0.93240  0.49830  Biso   1.000  H
  H52      1.0000 0.47410  0.93240  0.00170  Biso   1.000  H
  H53      1.0000 0.97410  0.56760  0.50170  Biso   1.000  H
  H54      1.0000 0.02590  0.56760  0.99830  Biso   1.000  H
  H55      1.0000 0.47410  0.06760  0.50170  Biso   1.000  H
  H56      1.0000 0.52590  0.06760  0.99830  Biso   1.000  H
  C97      1.0000 0.05895  0.34800  0.45090  Biso   1.000  C
  C98      1.0000 0.94105  0.34800  0.04910  Biso   1.000  C
  C99      1.0000 0.55895  0.84800  0.45090  Biso   1.000  C
  C100     1.0000 0.44105  0.84800  0.04910  Biso   1.000  C
  C101     1.0000 0.94105  0.65200  0.54910  Biso   1.000  C
  C102     1.0000 0.05895  0.65200  0.95090  Biso   1.000  C
  C103     1.0000 0.44105  0.15200  0.54910  Biso   1.000  C
  C104     1.0000 0.55895  0.15200  0.95090  Biso   1.000  C
  H57      1.0000 0.02920  0.31780  0.40770  Biso   1.000  H
  H58      1.0000 0.97080  0.31780  0.09230  Biso   1.000  H
  H59      1.0000 0.52920  0.81780  0.40770  Biso   1.000  H
  H60      1.0000 0.47080  0.81780  0.09230  Biso   1.000  H
  H61      1.0000 0.97080  0.68220  0.59230  Biso   1.000  H
  H62      1.0000 0.02920  0.68220  0.90770  Biso   1.000  H
  H63      1.0000 0.47080  0.18220  0.59230  Biso   1.000  H
  H64      1.0000 0.52920  0.18220  0.90770  Biso   1.000  H
  C105     1.0000 0.10493  0.32460  0.46122  Biso   1.000  C
  C106     1.0000 0.89507  0.32460  0.03878  Biso   1.000  C
  C107     1.0000 0.60493  0.82460  0.46122  Biso   1.000  C
  C108     1.0000 0.39507  0.82460  0.03878  Biso   1.000  C
  C109     1.0000 0.89507  0.67540  0.53878  Biso   1.000  C
  C110     1.0000 0.10493  0.67540  0.96122  Biso   1.000  C
  C111     1.0000 0.39507  0.17540  0.53878  Biso   1.000  C
  C112     1.0000 0.60493  0.17540  0.96122  Biso   1.000  C
  H65      1.0000 0.10660  0.27760  0.42530  Biso   1.000  H
  H66      1.0000 0.89340  0.27760  0.07470  Biso   1.000  H
  H67      1.0000 0.60660  0.77760  0.42530  Biso   1.000  H
  H68      1.0000 0.39340  0.77760  0.07470  Biso   1.000  H
  H69      1.0000 0.89340  0.72240  0.57470  Biso   1.000  H
  H70      1.0000 0.10660  0.72240  0.92530  Biso   1.000  H
  H71      1.0000 0.39340  0.22240  0.57470  Biso   1.000  H
  H72      1.0000 0.60660  0.22240  0.92530  Biso   1.000  H
  C113     1.0000 0.10133  0.53780  0.63132  Biso   1.000  C
  C114     1.0000 0.89867  0.53780  0.86868  Biso   1.000  C
  C115     1.0000 0.60133  0.03780  0.63132  Biso   1.000  C
  C116     1.0000 0.39867  0.03780  0.86868  Biso   1.000  C
  C117     1.0000 0.89867  0.46220  0.36868  Biso   1.000  C
  C118     1.0000 0.10133  0.46220  0.13132  Biso   1.000  C
  C119     1.0000 0.39867  0.96220  0.36868  Biso   1.000  C
  C120     1.0000 0.60133  0.96220  0.13132  Biso   1.000  C
  C121     1.0000 0.13428  0.90530  0.31912  Biso   1.000  C
  C122     1.0000 0.86572  0.90530  0.18088  Biso   1.000  C
  C123     1.0000 0.63428  0.40530  0.31912  Biso   1.000  C
  C124     1.0000 0.36572  0.40530  0.18088  Biso   1.000  C
  C125     1.0000 0.86572  0.09470  0.68088  Biso   1.000  C
  C126     1.0000 0.13428  0.09470  0.81912  Biso   1.000  C
  C127     1.0000 0.36572  0.59470  0.68088  Biso   1.000  C
  C128     1.0000 0.63428  0.59470  0.81912  Biso   1.000  C
  H73      1.0000 0.14690  0.96900  0.35100  Biso   1.000  H
  H74      1.0000 0.85310  0.96900  0.14900  Biso   1.000  H
  H75      1.0000 0.64690  0.46900  0.35100  Biso   1.000  H
  H76      1.0000 0.35310  0.46900  0.14900  Biso   1.000  H
  H77      1.0000 0.85310  0.03100  0.64900  Biso   1.000  H
  H78      1.0000 0.14690  0.03100  0.85100  Biso   1.000  H
  H79      1.0000 0.35310  0.53100  0.64900  Biso   1.000  H
  H80      1.0000 0.64690  0.53100  0.85100  Biso   1.000  H
  C129     1.0000 0.08292  0.89750  0.26390  Biso   1.000  C
  C130     1.0000 0.91708  0.89750  0.23610  Biso   1.000  C
  C131     1.0000 0.58292  0.39750  0.26390  Biso   1.000  C
  C132     1.0000 0.41708  0.39750  0.23610  Biso   1.000  C
  C133     1.0000 0.91708  0.10250  0.73610  Biso   1.000  C
  C134     1.0000 0.08292  0.10250  0.76390  Biso   1.000  C
  C135     1.0000 0.41708  0.60250  0.73610  Biso   1.000  C
  C136     1.0000 0.58292  0.60250  0.76390  Biso   1.000  C
  H81      1.0000 0.06170  0.95490  0.26010  Biso   1.000  H
  H82      1.0000 0.93830  0.95490  0.23990  Biso   1.000  H
  H83      1.0000 0.56170  0.45490  0.26010  Biso   1.000  H
  H84      1.0000 0.43830  0.45490  0.23990  Biso   1.000  H
  H85      1.0000 0.93830  0.04510  0.73990  Biso   1.000  H
  H86      1.0000 0.06170  0.04510  0.76010  Biso   1.000  H
  H87      1.0000 0.43830  0.54510  0.73990  Biso   1.000  H
  H88      1.0000 0.56170  0.54510  0.76010  Biso   1.000  H
  C137     1.0000 0.06221  0.80640  0.21430  Biso   1.000  C
  C138     1.0000 0.93779  0.80640  0.28570  Biso   1.000  C
  C139     1.0000 0.56221  0.30640  0.21430  Biso   1.000  C
  C140     1.0000 0.43779  0.30640  0.28570  Biso   1.000  C
  C141     1.0000 0.93779  0.19360  0.78570  Biso   1.000  C
  C142     1.0000 0.06221  0.19360  0.71430  Biso   1.000  C
  C143     1.0000 0.43779  0.69360  0.78570  Biso   1.000  C
  C144     1.0000 0.56221  0.69360  0.71430  Biso   1.000  C
  C145     1.0000 0.09631  0.72310  0.22510  Biso   1.000  C
  C146     1.0000 0.90369  0.72310  0.27490  Biso   1.000  C
  C147     1.0000 0.59631  0.22310  0.22510  Biso   1.000  C
  C148     1.0000 0.40369  0.22310  0.27490  Biso   1.000  C
  C149     1.0000 0.90369  0.27690  0.77490  Biso   1.000  C
  C150     1.0000 0.09631  0.27690  0.72510  Biso   1.000  C
  C151     1.0000 0.40369  0.77690  0.77490  Biso   1.000  C
  C152     1.0000 0.59631  0.77690  0.72510  Biso   1.000  C
  H89      1.0000 0.08460  0.65860  0.19400  Biso   1.000  H
  H90      1.0000 0.91540  0.65860  0.30600  Biso   1.000  H
  H91      1.0000 0.58460  0.15860  0.19400  Biso   1.000  H
  H92      1.0000 0.41540  0.15860  0.30600  Biso   1.000  H
  H93      1.0000 0.91540  0.34140  0.80600  Biso   1.000  H
  H94      1.0000 0.08460  0.34140  0.69400  Biso   1.000  H
  H95      1.0000 0.41540  0.84140  0.80600  Biso   1.000  H
  H96      1.0000 0.58460  0.84140  0.69400  Biso   1.000  H
  C153     1.0000 0.14741  0.73618  0.28176  Biso   1.000  C
  C154     1.0000 0.85259  0.73618  0.21824  Biso   1.000  C
  C155     1.0000 0.64741  0.23618  0.28176  Biso   1.000  C
  C156     1.0000 0.35259  0.23618  0.21824  Biso   1.000  C
  C157     1.0000 0.85259  0.26382  0.71824  Biso   1.000  C
  C158     1.0000 0.14741  0.26382  0.78176  Biso   1.000  C
  C159     1.0000 0.35259  0.76382  0.71824  Biso   1.000  C
  C160     1.0000 0.64741  0.76382  0.78176  Biso   1.000  C
  H97      1.0000 0.16940  0.67960  0.28720  Biso   1.000  H
  H98      1.0000 0.83060  0.67960  0.21280  Biso   1.000  H
  H99      1.0000 0.66940  0.17960  0.28720  Biso   1.000  H
  H100     1.0000 0.33060  0.17960  0.21280  Biso   1.000  H
  H101     1.0000 0.83060  0.32040  0.71280  Biso   1.000  H
  H102     1.0000 0.16940  0.32040  0.78720  Biso   1.000  H
  H103     1.0000 0.33060  0.82040  0.71280  Biso   1.000  H
  H104     1.0000 0.66940  0.82040  0.78720  Biso   1.000  H
  C161     1.0000 0.00595  0.80060  0.15190  Biso   1.000  C
  C162     1.0000 0.99405  0.80060  0.34810  Biso   1.000  C
  C163     1.0000 0.50595  0.30060  0.15190  Biso   1.000  C
  C164     1.0000 0.49405  0.30060  0.34810  Biso   1.000  C
  C165     1.0000 0.99405  0.19940  0.84810  Biso   1.000  C
  C166     1.0000 0.00595  0.19940  0.65190  Biso   1.000  C
  C167     1.0000 0.49405  0.69940  0.84810  Biso   1.000  C
  C168     1.0000 0.50595  0.69940  0.65190  Biso   1.000  C
  H105     1.0000 0.98820  0.83650  0.17380  Biso   1.000  H
  H106     1.0000 0.01180  0.83650  0.32620  Biso   1.000  H
  H107     1.0000 0.48820  0.33650  0.17380  Biso   1.000  H
  H108     1.0000 0.51180  0.33650  0.32620  Biso   1.000  H
  H109     1.0000 0.01180  0.16350  0.82620  Biso   1.000  H
  H110     1.0000 0.98820  0.16350  0.67380  Biso   1.000  H
  H111     1.0000 0.51180  0.66350  0.82620  Biso   1.000  H
  H112     1.0000 0.48820  0.66350  0.67380  Biso   1.000  H
  H113     1.0000 0.99910  0.84390  0.10540  Biso   1.000  H
  H114     1.0000 0.00090  0.84390  0.39460  Biso   1.000  H
  H115     1.0000 0.49910  0.34390  0.10540  Biso   1.000  H
  H116     1.0000 0.50090  0.34390  0.39460  Biso   1.000  H
  H117     1.0000 0.00090  0.15610  0.89460  Biso   1.000  H
  H118     1.0000 0.99910  0.15610  0.60540  Biso   1.000  H
  H119     1.0000 0.50090  0.65610  0.89460  Biso   1.000  H
  H120     1.0000 0.49910  0.65610  0.60540  Biso   1.000  H
  C169     1.0000 0.98418  0.68900  0.12380  Biso   1.000  C
  C170     1.0000 0.01582  0.68900  0.37620  Biso   1.000  C
  C171     1.0000 0.48418  0.18900  0.12380  Biso   1.000  C
  C172     1.0000 0.51582  0.18900  0.37620  Biso   1.000  C
  C173     1.0000 0.01582  0.31100  0.87620  Biso   1.000  C
  C174     1.0000 0.98418  0.31100  0.62380  Biso   1.000  C
  C175     1.0000 0.51582  0.81100  0.87620  Biso   1.000  C
  C176     1.0000 0.48418  0.81100  0.62380  Biso   1.000  C
  H121     1.0000 0.99620  0.64130  0.17050  Biso   1.000  H
  H122     1.0000 0.00380  0.64130  0.32950  Biso   1.000  H
  H123     1.0000 0.49620  0.14130  0.17050  Biso   1.000  H
  H124     1.0000 0.50380  0.14130  0.32950  Biso   1.000  H
  H125     1.0000 0.00380  0.35870  0.82950  Biso   1.000  H
  H126     1.0000 0.99620  0.35870  0.67050  Biso   1.000  H
  H127     1.0000 0.50380  0.85870  0.82950  Biso   1.000  H
  H128     1.0000 0.49620  0.85870  0.67050  Biso   1.000  H
  H129     1.0000 0.99680  0.65850  0.09240  Biso   1.000  H
  H130     1.0000 0.00320  0.65850  0.40760  Biso   1.000  H
  H131     1.0000 0.49680  0.15850  0.09240  Biso   1.000  H
  H132     1.0000 0.50320  0.15850  0.40760  Biso   1.000  H
  H133     1.0000 0.00320  0.34150  0.90760  Biso   1.000  H
  H134     1.0000 0.99680  0.34150  0.59240  Biso   1.000  H
  H135     1.0000 0.50320  0.84150  0.90760  Biso   1.000  H
  H136     1.0000 0.49680  0.84150  0.59240  Biso   1.000  H
  C177     1.0000 0.92712  0.68510  0.07377  Biso   1.000  C
  C178     1.0000 0.07288  0.68510  0.42623  Biso   1.000  C
  C179     1.0000 0.42712  0.18510  0.07377  Biso   1.000  C
  C180     1.0000 0.57288  0.18510  0.42623  Biso   1.000  C
  C181     1.0000 0.07288  0.31490  0.92623  Biso   1.000  C
  C182     1.0000 0.92712  0.31490  0.57377  Biso   1.000  C
  C183     1.0000 0.57288  0.81490  0.92623  Biso   1.000  C
  C184     1.0000 0.42712  0.81490  0.57377  Biso   1.000  C
  C185     1.0000 0.89812  0.74360  0.00244  Biso   1.000  C
  C186     1.0000 0.10188  0.74360  0.49756  Biso   1.000  C
  C187     1.0000 0.39812  0.24360  0.00244  Biso   1.000  C
  C188     1.0000 0.60188  0.24360  0.49756  Biso   1.000  C
  C189     1.0000 0.10188  0.25640  0.99756  Biso   1.000  C
  C190     1.0000 0.89812  0.25640  0.50244  Biso   1.000  C
  C191     1.0000 0.60188  0.75640  0.99756  Biso   1.000  C
  C192     1.0000 0.39812  0.75640  0.50244  Biso   1.000  C
  H137     1.0000 0.91390  0.79030  0.98480  Biso   1.000  H
  H138     1.0000 0.08610  0.79030  0.51520  Biso   1.000  H
  H139     1.0000 0.41390  0.29030  0.98480  Biso   1.000  H
  H140     1.0000 0.58610  0.29030  0.51520  Biso   1.000  H
  H141     1.0000 0.08610  0.20970  0.01520  Biso   1.000  H
  H142     1.0000 0.91390  0.20970  0.48480  Biso   1.000  H
  H143     1.0000 0.58610  0.70970  0.01520  Biso   1.000  H
  H144     1.0000 0.41390  0.70970  0.48480  Biso   1.000  H
  C193     1.0000 0.84617  0.73320  0.95750  Biso   1.000  C
  C194     1.0000 0.15383  0.73320  0.54250  Biso   1.000  C
  C195     1.0000 0.34617  0.23320  0.95750  Biso   1.000  C
  C196     1.0000 0.65383  0.23320  0.54250  Biso   1.000  C
  C197     1.0000 0.15383  0.26680  0.04250  Biso   1.000  C
  C198     1.0000 0.84617  0.26680  0.45750  Biso   1.000  C
  C199     1.0000 0.65383  0.76680  0.04250  Biso   1.000  C
  C200     1.0000 0.34617  0.76680  0.45750  Biso   1.000  C
  H145     1.0000 0.82760  0.77440  0.91020  Biso   1.000  H
  H146     1.0000 0.17240  0.77440  0.58980  Biso   1.000  H
  H147     1.0000 0.32760  0.27440  0.91020  Biso   1.000  H
  H148     1.0000 0.67240  0.27440  0.58980  Biso   1.000  H
  H149     1.0000 0.17240  0.22560  0.08980  Biso   1.000  H
  H150     1.0000 0.82760  0.22560  0.41020  Biso   1.000  H
  H151     1.0000 0.67240  0.72560  0.08980  Biso   1.000  H
  H152     1.0000 0.32760  0.72560  0.41020  Biso   1.000  H
  C201     1.0000 0.84879  0.61126  0.04856  Biso   1.000  C
  C202     1.0000 0.15121  0.61126  0.45144  Biso   1.000  C
  C203     1.0000 0.34879  0.11126  0.04856  Biso   1.000  C
  C204     1.0000 0.65121  0.11126  0.45144  Biso   1.000  C
  C205     1.0000 0.15121  0.38874  0.95144  Biso   1.000  C
  C206     1.0000 0.84879  0.38874  0.54856  Biso   1.000  C
  C207     1.0000 0.65121  0.88874  0.95144  Biso   1.000  C
  C208     1.0000 0.34879  0.88874  0.54856  Biso   1.000  C
  H153     1.0000 0.83210  0.56570  0.06530  Biso   1.000  H
  H154     1.0000 0.16790  0.56570  0.43470  Biso   1.000  H
  H155     1.0000 0.33210  0.06570  0.06530  Biso   1.000  H
  H156     1.0000 0.66790  0.06570  0.43470  Biso   1.000  H
  H157     1.0000 0.16790  0.43430  0.93470  Biso   1.000  H
  H158     1.0000 0.83210  0.43430  0.56530  Biso   1.000  H
  H159     1.0000 0.66790  0.93430  0.93470  Biso   1.000  H
  H160     1.0000 0.33210  0.93430  0.56530  Biso   1.000  H
  C209     1.0000 0.90070  0.61930  0.09661  Biso   1.000  C
  C210     1.0000 0.09930  0.61930  0.40339  Biso   1.000  C
  C211     1.0000 0.40070  0.11930  0.09661  Biso   1.000  C
  C212     1.0000 0.59930  0.11930  0.40339  Biso   1.000  C
  C213     1.0000 0.09930  0.38070  0.90339  Biso   1.000  C
  C214     1.0000 0.90070  0.38070  0.59661  Biso   1.000  C
  C215     1.0000 0.59930  0.88070  0.90339  Biso   1.000  C
  C216     1.0000 0.40070  0.88070  0.59661  Biso   1.000  C
  H161     1.0000 0.91830  0.58010  0.14500  Biso   1.000  H
  H162     1.0000 0.08170  0.58010  0.35500  Biso   1.000  H
  H163     1.0000 0.41830  0.08010  0.14500  Biso   1.000  H
  H164     1.0000 0.58170  0.08010  0.35500  Biso   1.000  H
  H165     1.0000 0.08170  0.41990  0.85500  Biso   1.000  H
  H166     1.0000 0.91830  0.41990  0.64500  Biso   1.000  H
  H167     1.0000 0.58170  0.91990  0.85500  Biso   1.000  H
  H168     1.0000 0.41830  0.91990  0.64500  Biso   1.000  H
