data_image0
_cell_length_a       4.9036
_cell_length_b       30.794
_cell_length_c       15.978
_cell_angle_alpha    90
_cell_angle_beta     98.541
_cell_angle_gamma    90

_symmetry_space_group_name_H-M    "P 1"
_symmetry_int_tables_number       1

loop_
  _symmetry_equiv_pos_as_xyz
  'x, y, z'

loop_
  _atom_site_label
  _atom_site_occupancy
  _atom_site_fract_x
  _atom_site_fract_y
  _atom_site_fract_z
  _atom_site_thermal_displace_type
  _atom_site_B_iso_or_equiv
  _atom_site_type_symbol
  Cu1      1.0000 0.20216  0.22953  0.33335  Biso   1.000  Cu
  Cu2      1.0000 0.29784  0.72953  0.16665  Biso   1.000  Cu
  Cu3      1.0000 0.79784  0.77047  0.66665  Biso   1.000  Cu
  Cu4      1.0000 0.70216  0.27047  0.83335  Biso   1.000  Cu
  O1       1.0000 0.39520  0.20431  0.43645  Biso   1.000  O
  O2       1.0000 0.10480  0.70431  0.06355  Biso   1.000  O
  O3       1.0000 0.60480  0.79569  0.56355  Biso   1.000  O
  O4       1.0000 0.89520  0.29569  0.93645  Biso   1.000  O
  O5       1.0000 0.04500  0.16040  0.45107  Biso   1.000  O
  O6       1.0000 0.45500  0.66040  0.04893  Biso   1.000  O
  O7       1.0000 0.95500  0.83960  0.54893  Biso   1.000  O
  O8       1.0000 0.54500  0.33960  0.95107  Biso   1.000  O
  O9       1.0000 0.48880  0.24316  0.73407  Biso   1.000  O
  O10      1.0000 0.01120  0.74316  0.76593  Biso   1.000  O
  O11      1.0000 0.51120  0.75684  0.26593  Biso   1.000  O
  O12      1.0000 0.98880  0.25684  0.23407  Biso   1.000  O
  O13      1.0000 0.11110  0.24805  0.79399  Biso   1.000  O
  O14      1.0000 0.38890  0.74805  0.70601  Biso   1.000  O
  O15      1.0000 0.88890  0.75195  0.20601  Biso   1.000  O
  O16      1.0000 0.61110  0.25195  0.29399  Biso   1.000  O
  O17      1.0000 0.65080  0.03203  0.27680  Biso   1.000  O
  O18      1.0000 0.84920  0.53203  0.22320  Biso   1.000  O
  O19      1.0000 0.34920  0.96797  0.72320  Biso   1.000  O
  O20      1.0000 0.15080  0.46797  0.77680  Biso   1.000  O
  O21      1.0000 0.44400  0.40572  0.44000  Biso   1.000  O
  O22      1.0000 0.05600  0.90572  0.06000  Biso   1.000  O
  O23      1.0000 0.55600  0.59428  0.56000  Biso   1.000  O
  O24      1.0000 0.94400  0.09428  0.94000  Biso   1.000  O
  N1       1.0000 0.23900  0.17219  0.27080  Biso   1.000  N
  N2       1.0000 0.26100  0.67219  0.22920  Biso   1.000  N
  N3       1.0000 0.76100  0.82781  0.72920  Biso   1.000  N
  N4       1.0000 0.73900  0.32781  0.77080  Biso   1.000  N
  N5       1.0000 0.83560  0.07870  0.37790  Biso   1.000  N
  N6       1.0000 0.66440  0.57870  0.12210  Biso   1.000  N
  N7       1.0000 0.16440  0.92130  0.62210  Biso   1.000  N
  N8       1.0000 0.33560  0.42130  0.87790  Biso   1.000  N
  H1       1.0000 0.83630  0.10530  0.39830  Biso   1.000  H
  H2       1.0000 0.66370  0.60530  0.10170  Biso   1.000  H
  H3       1.0000 0.16370  0.89470  0.60170  Biso   1.000  H
  H4       1.0000 0.33630  0.39470  0.89830  Biso   1.000  H
  N9       1.0000 0.10120  0.27768  0.40940  Biso   1.000  N
  N10      1.0000 0.39880  0.77768  0.09060  Biso   1.000  N
  N11      1.0000 0.89880  0.72232  0.59060  Biso   1.000  N
  N12      1.0000 0.60120  0.22232  0.90940  Biso   1.000  N
  N13      1.0000 0.99750  0.42630  0.41540  Biso   1.000  N
  N14      1.0000 0.50250  0.92630  0.08460  Biso   1.000  N
  N15      1.0000 0.00250  0.57370  0.58460  Biso   1.000  N
  N16      1.0000 0.49750  0.07370  0.91540  Biso   1.000  N
  H5       1.0000 0.82550  0.41790  0.41430  Biso   1.000  H
  H6       1.0000 0.67450  0.91790  0.08570  Biso   1.000  H
  H7       1.0000 0.17450  0.58210  0.58570  Biso   1.000  H
  H8       1.0000 0.32550  0.08210  0.91430  Biso   1.000  H
  C1       1.0000 0.27450  0.17581  0.47600  Biso   1.000  C
  C2       1.0000 0.22550  0.67581  0.02400  Biso   1.000  C
  C3       1.0000 0.72550  0.82419  0.52400  Biso   1.000  C
  C4       1.0000 0.77450  0.32419  0.97600  Biso   1.000  C
  C5       1.0000 0.44520  0.16154  0.55850  Biso   1.000  C
  C6       1.0000 0.05480  0.66154  0.94150  Biso   1.000  C
  C7       1.0000 0.55480  0.83846  0.44150  Biso   1.000  C
  C8       1.0000 0.94520  0.33846  0.05850  Biso   1.000  C
  H9       1.0000 0.59120  0.14160  0.54490  Biso   1.000  H
  H10      1.0000 0.90880  0.64160  0.95510  Biso   1.000  H
  H11      1.0000 0.40880  0.85840  0.45510  Biso   1.000  H
  H12      1.0000 0.09120  0.35840  0.04490  Biso   1.000  H
  H13      1.0000 0.53780  0.18750  0.58620  Biso   1.000  H
  H14      1.0000 0.96220  0.68750  0.91380  Biso   1.000  H
  H15      1.0000 0.46220  0.81250  0.41380  Biso   1.000  H
  H16      1.0000 0.03780  0.31250  0.08620  Biso   1.000  H
  C9       1.0000 0.29220  0.13938  0.62050  Biso   1.000  C
  C10      1.0000 0.20780  0.63938  0.87950  Biso   1.000  C
  C11      1.0000 0.70780  0.86062  0.37950  Biso   1.000  C
  C12      1.0000 0.79220  0.36062  0.12050  Biso   1.000  C
  C13      1.0000 0.31100  0.09456  0.63210  Biso   1.000  C
  C14      1.0000 0.18900  0.59456  0.86790  Biso   1.000  C
  C15      1.0000 0.68900  0.90544  0.36790  Biso   1.000  C
  C16      1.0000 0.81100  0.40544  0.13210  Biso   1.000  C
  H17      1.0000 0.42820  0.07840  0.60140  Biso   1.000  H
  H18      1.0000 0.07180  0.57840  0.89860  Biso   1.000  H
  H19      1.0000 0.57180  0.92160  0.39860  Biso   1.000  H
  H20      1.0000 0.92820  0.42160  0.10140  Biso   1.000  H
  C17      1.0000 0.16490  0.07284  0.68670  Biso   1.000  C
  C18      1.0000 0.33510  0.57284  0.81330  Biso   1.000  C
  C19      1.0000 0.83510  0.92716  0.31330  Biso   1.000  C
  C20      1.0000 0.66490  0.42716  0.18670  Biso   1.000  C
  H21      1.0000 0.18680  0.04240  0.69520  Biso   1.000  H
  H22      1.0000 0.31320  0.54240  0.80480  Biso   1.000  H
  H23      1.0000 0.81320  0.95760  0.30480  Biso   1.000  H
  H24      1.0000 0.68680  0.45760  0.19520  Biso   1.000  H
  C21      1.0000 0.98740  0.09598  0.72860  Biso   1.000  C
  C22      1.0000 0.51260  0.59598  0.77140  Biso   1.000  C
  C23      1.0000 0.01260  0.90402  0.27140  Biso   1.000  C
  C24      1.0000 0.48740  0.40402  0.22860  Biso   1.000  C
  H25      1.0000 0.87970  0.08130  0.76450  Biso   1.000  H
  H26      1.0000 0.62030  0.58130  0.73550  Biso   1.000  H
  H27      1.0000 0.12030  0.91870  0.23550  Biso   1.000  H
  H28      1.0000 0.37970  0.41870  0.26450  Biso   1.000  H
  C25      1.0000 0.96480  0.13989  0.71880  Biso   1.000  C
  C26      1.0000 0.53520  0.63989  0.78120  Biso   1.000  C
  C27      1.0000 0.03520  0.86011  0.28120  Biso   1.000  C
  C28      1.0000 0.46480  0.36011  0.21880  Biso   1.000  C
  H29      1.0000 0.84120  0.15540  0.74830  Biso   1.000  H
  H30      1.0000 0.65880  0.65540  0.75170  Biso   1.000  H
  H31      1.0000 0.15880  0.84460  0.25170  Biso   1.000  H
  H32      1.0000 0.34120  0.34460  0.24830  Biso   1.000  H
  C29      1.0000 0.11750  0.16233  0.66710  Biso   1.000  C
  C30      1.0000 0.38250  0.66233  0.83290  Biso   1.000  C
  C31      1.0000 0.88250  0.83767  0.33290  Biso   1.000  C
  C32      1.0000 0.61750  0.33767  0.16710  Biso   1.000  C
  C33      1.0000 0.08120  0.21105  0.66030  Biso   1.000  C
  C34      1.0000 0.41880  0.71105  0.83970  Biso   1.000  C
  C35      1.0000 0.91880  0.78895  0.33970  Biso   1.000  C
  C36      1.0000 0.58120  0.28895  0.16030  Biso   1.000  C
  H33      1.0000 0.88210  0.21800  0.65470  Biso   1.000  H
  H34      1.0000 0.61790  0.71800  0.84530  Biso   1.000  H
  H35      1.0000 0.11790  0.78200  0.34530  Biso   1.000  H
  H36      1.0000 0.38210  0.28200  0.15470  Biso   1.000  H
  H37      1.0000 0.14880  0.22120  0.60830  Biso   1.000  H
  H38      1.0000 0.35120  0.72120  0.89170  Biso   1.000  H
  H39      1.0000 0.85120  0.77880  0.39170  Biso   1.000  H
  H40      1.0000 0.64880  0.27880  0.10830  Biso   1.000  H
  C37      1.0000 0.23270  0.23563  0.73590  Biso   1.000  C
  C38      1.0000 0.26730  0.73563  0.76410  Biso   1.000  C
  C39      1.0000 0.76730  0.76437  0.26410  Biso   1.000  C
  C40      1.0000 0.73270  0.26437  0.23590  Biso   1.000  C
  C41      1.0000 0.04470  0.15888  0.20850  Biso   1.000  C
  C42      1.0000 0.45530  0.65888  0.29150  Biso   1.000  C
  C43      1.0000 0.95530  0.84112  0.79150  Biso   1.000  C
  C44      1.0000 0.54470  0.34112  0.70850  Biso   1.000  C
  H41      1.0000 0.90420  0.17870  0.18590  Biso   1.000  H
  H42      1.0000 0.59580  0.67870  0.31410  Biso   1.000  H
  H43      1.0000 0.09580  0.82130  0.81410  Biso   1.000  H
  H44      1.0000 0.40420  0.32130  0.68590  Biso   1.000  H
  C45      1.0000 0.04100  0.11724  0.17560  Biso   1.000  C
  C46      1.0000 0.45900  0.61724  0.32440  Biso   1.000  C
  C47      1.0000 0.95900  0.88276  0.82440  Biso   1.000  C
  C48      1.0000 0.54100  0.38276  0.67560  Biso   1.000  C
  H45      1.0000 0.90170  0.10880  0.13070  Biso   1.000  H
  H46      1.0000 0.59830  0.60880  0.36930  Biso   1.000  H
  H47      1.0000 0.09830  0.89120  0.86930  Biso   1.000  H
  H48      1.0000 0.40170  0.39120  0.63070  Biso   1.000  H
  C49      1.0000 0.24150  0.08820  0.20870  Biso   1.000  C
  C50      1.0000 0.25850  0.58820  0.29130  Biso   1.000  C
  C51      1.0000 0.75850  0.91180  0.79130  Biso   1.000  C
  C52      1.0000 0.74150  0.41180  0.70870  Biso   1.000  C
  H49      1.0000 0.23960  0.05930  0.18800  Biso   1.000  H
  H50      1.0000 0.26040  0.55930  0.31200  Biso   1.000  H
  H51      1.0000 0.76040  0.94070  0.81200  Biso   1.000  H
  H52      1.0000 0.73960  0.44070  0.68800  Biso   1.000  H
  C53      1.0000 0.44650  0.10166  0.27290  Biso   1.000  C
  C54      1.0000 0.05350  0.60166  0.22710  Biso   1.000  C
  C55      1.0000 0.55350  0.89834  0.72710  Biso   1.000  C
  C56      1.0000 0.94650  0.39834  0.77290  Biso   1.000  C
  C57      1.0000 0.44080  0.14410  0.30130  Biso   1.000  C
  C58      1.0000 0.05920  0.64410  0.19870  Biso   1.000  C
  C59      1.0000 0.55920  0.85590  0.69870  Biso   1.000  C
  C60      1.0000 0.94080  0.35590  0.80130  Biso   1.000  C
  H53      1.0000 0.58420  0.15380  0.34380  Biso   1.000  H
  H54      1.0000 0.91580  0.65380  0.15620  Biso   1.000  H
  H55      1.0000 0.41580  0.84620  0.65620  Biso   1.000  H
  H56      1.0000 0.08420  0.34620  0.84380  Biso   1.000  H
  C61      1.0000 0.65680  0.06815  0.30920  Biso   1.000  C
  C62      1.0000 0.84320  0.56815  0.19080  Biso   1.000  C
  C63      1.0000 0.34320  0.93185  0.69080  Biso   1.000  C
  C64      1.0000 0.15680  0.43185  0.80920  Biso   1.000  C
  C65      1.0000 0.03050  0.04632  0.41960  Biso   1.000  C
  C66      1.0000 0.46950  0.54632  0.08040  Biso   1.000  C
  C67      1.0000 0.96950  0.95368  0.58040  Biso   1.000  C
  C68      1.0000 0.53050  0.45368  0.91960  Biso   1.000  C
  H57      1.0000 0.19130  0.06140  0.45150  Biso   1.000  H
  H58      1.0000 0.30870  0.56140  0.04850  Biso   1.000  H
  H59      1.0000 0.80870  0.93860  0.54850  Biso   1.000  H
  H60      1.0000 0.69130  0.43860  0.95150  Biso   1.000  H
  H61      1.0000 0.09780  0.02810  0.37590  Biso   1.000  H
  H62      1.0000 0.40220  0.52810  0.12410  Biso   1.000  H
  H63      1.0000 0.90220  0.97190  0.62410  Biso   1.000  H
  H64      1.0000 0.59780  0.47190  0.87590  Biso   1.000  H
  C69      1.0000 0.89940  0.01738  0.47970  Biso   1.000  C
  C70      1.0000 0.60060  0.51738  0.02030  Biso   1.000  C
  C71      1.0000 0.10060  0.98262  0.52030  Biso   1.000  C
  C72      1.0000 0.39940  0.48262  0.97970  Biso   1.000  C
  H65      1.0000 0.73450  0.00310  0.44830  Biso   1.000  H
  H66      1.0000 0.76550  0.50310  0.05170  Biso   1.000  H
  H67      1.0000 0.26550  0.99690  0.55170  Biso   1.000  H
  H68      1.0000 0.23450  0.49690  0.94830  Biso   1.000  H
  H69      1.0000 0.83870  0.03550  0.52470  Biso   1.000  H
  H70      1.0000 0.66130  0.53550  0.97530  Biso   1.000  H
  H71      1.0000 0.16130  0.96450  0.47530  Biso   1.000  H
  H72      1.0000 0.33870  0.46450  0.02470  Biso   1.000  H
  C73      1.0000 0.91840  0.26905  0.46370  Biso   1.000  C
  C74      1.0000 0.58160  0.76905  0.03630  Biso   1.000  C
  C75      1.0000 0.08160  0.73095  0.53630  Biso   1.000  C
  C76      1.0000 0.41840  0.23095  0.96370  Biso   1.000  C
  H73      1.0000 0.85170  0.24020  0.46720  Biso   1.000  H
  H74      1.0000 0.64830  0.74020  0.03280  Biso   1.000  H
  H75      1.0000 0.14830  0.75980  0.53280  Biso   1.000  H
  H76      1.0000 0.35170  0.25980  0.96720  Biso   1.000  H
  C77      1.0000 0.82810  0.30050  0.51320  Biso   1.000  C
  C78      1.0000 0.67190  0.80050  0.98680  Biso   1.000  C
  C79      1.0000 0.17190  0.69950  0.48680  Biso   1.000  C
  C80      1.0000 0.32810  0.19950  0.01320  Biso   1.000  C
  H77      1.0000 0.70660  0.29340  0.55230  Biso   1.000  H
  H78      1.0000 0.79340  0.79340  0.94770  Biso   1.000  H
  H79      1.0000 0.29340  0.70660  0.44770  Biso   1.000  H
  H80      1.0000 0.20660  0.20660  0.05230  Biso   1.000  H
  C81      1.0000 0.91520  0.34280  0.50600  Biso   1.000  C
  C82      1.0000 0.58480  0.84280  0.99400  Biso   1.000  C
  C83      1.0000 0.08480  0.65720  0.49400  Biso   1.000  C
  C84      1.0000 0.41520  0.15720  0.00600  Biso   1.000  C
  H81      1.0000 0.84960  0.36520  0.53880  Biso   1.000  H
  H82      1.0000 0.65040  0.86520  0.96120  Biso   1.000  H
  H83      1.0000 0.15040  0.63480  0.46120  Biso   1.000  H
  H84      1.0000 0.34960  0.13480  0.03880  Biso   1.000  H
  C85      1.0000 0.09890  0.35238  0.45060  Biso   1.000  C
  C86      1.0000 0.40110  0.85238  0.04940  Biso   1.000  C
  C87      1.0000 0.90110  0.64762  0.54940  Biso   1.000  C
  C88      1.0000 0.59890  0.14762  0.95060  Biso   1.000  C
  C89      1.0000 0.19230  0.31833  0.40580  Biso   1.000  C
  C90      1.0000 0.30770  0.81833  0.09420  Biso   1.000  C
  C91      1.0000 0.80770  0.68167  0.59420  Biso   1.000  C
  C92      1.0000 0.69230  0.18167  0.90580  Biso   1.000  C
  H85      1.0000 0.32820  0.32430  0.37070  Biso   1.000  H
  H86      1.0000 0.17180  0.82430  0.12930  Biso   1.000  H
  H87      1.0000 0.67180  0.67570  0.62930  Biso   1.000  H
  H88      1.0000 0.82820  0.17570  0.87070  Biso   1.000  H
  C93      1.0000 0.19860  0.39740  0.43570  Biso   1.000  C
  C94      1.0000 0.30140  0.89740  0.06430  Biso   1.000  C
  C95      1.0000 0.80140  0.60260  0.56430  Biso   1.000  C
  C96      1.0000 0.69860  0.10260  0.93570  Biso   1.000  C
  C97      1.0000 0.05190  0.47149  0.39470  Biso   1.000  C
  C98      1.0000 0.44810  0.97149  0.10530  Biso   1.000  C
  C99      1.0000 0.94810  0.52851  0.60530  Biso   1.000  C
  C100     1.0000 0.55190  0.02851  0.89470  Biso   1.000  C
  H89      1.0000 0.88940  0.48390  0.35830  Biso   1.000  H
  H90      1.0000 0.61060  0.98390  0.14170  Biso   1.000  H
  H91      1.0000 0.11060  0.51610  0.64170  Biso   1.000  H
  H92      1.0000 0.38940  0.01610  0.85830  Biso   1.000  H
  H93      1.0000 0.21170  0.47300  0.36350  Biso   1.000  H
  H94      1.0000 0.28830  0.97300  0.13650  Biso   1.000  H
  H95      1.0000 0.78830  0.52700  0.63650  Biso   1.000  H
  H96      1.0000 0.71170  0.02700  0.86350  Biso   1.000  H
  C101     1.0000 0.11500  0.49830  0.47990  Biso   1.000  C
  C102     1.0000 0.38500  0.99830  0.02010  Biso   1.000  C
  C103     1.0000 0.88500  0.50170  0.52010  Biso   1.000  C
  C104     1.0000 0.61500  0.00170  0.97990  Biso   1.000  C
  H97      1.0000 0.26470  0.48380  0.51820  Biso   1.000  H
  H98      1.0000 0.23530  0.98380  0.98180  Biso   1.000  H
  H99      1.0000 0.73530  0.51620  0.48180  Biso   1.000  H
  H100     1.0000 0.76470  0.01620  0.01820  Biso   1.000  H
  H101     1.0000 0.17900  0.52770  0.46730  Biso   1.000  H
  H102     1.0000 0.32100  0.02770  0.03270  Biso   1.000  H
  H103     1.0000 0.82100  0.47230  0.53270  Biso   1.000  H
  H104     1.0000 0.67900  0.97230  0.96730  Biso   1.000  H
  H105     1.0000 0.97220  0.47740  0.33520  Biso   1.000  H
  H106     1.0000 0.52780  0.97740  0.16480  Biso   1.000  H
  H107     1.0000 0.02780  0.52260  0.66480  Biso   1.000  H
  H108     1.0000 0.47220  0.02260  0.83520  Biso   1.000  H
  H109     1.0000 0.25350  0.47620  0.40050  Biso   1.000  H
  H110     1.0000 0.24650  0.97620  0.09950  Biso   1.000  H
  H111     1.0000 0.74650  0.52380  0.59950  Biso   1.000  H
  H112     1.0000 0.75350  0.02380  0.90050  Biso   1.000  H
  C105     1.0000 0.92900  0.50250  0.45210  Biso   1.000  C
  C106     1.0000 0.57100  0.00250  0.04790  Biso   1.000  C
  C107     1.0000 0.07100  0.49750  0.54790  Biso   1.000  C
  C108     1.0000 0.42900  0.99750  0.95210  Biso   1.000  C
  H113     1.0000 0.72890  0.49690  0.44810  Biso   1.000  H
  H114     1.0000 0.77110  0.99690  0.05190  Biso   1.000  H
  H115     1.0000 0.27110  0.50310  0.55190  Biso   1.000  H
  H116     1.0000 0.22890  0.00310  0.94810  Biso   1.000  H
  H117     1.0000 0.95370  0.53270  0.43310  Biso   1.000  H
  H118     1.0000 0.54630  0.03270  0.06690  Biso   1.000  H
  H119     1.0000 0.04630  0.46730  0.56690  Biso   1.000  H
  H120     1.0000 0.45370  0.96730  0.93310  Biso   1.000  H
