data_image0
_cell_length_a       18.0023
_cell_length_b       7.8415
_cell_length_c       19.622
_cell_angle_alpha    90
_cell_angle_beta     109.199
_cell_angle_gamma    90

_symmetry_space_group_name_H-M    "P 1"
_symmetry_int_tables_number       1

loop_
  _symmetry_equiv_pos_as_xyz
  'x, y, z'

loop_
  _atom_site_label
  _atom_site_occupancy
  _atom_site_fract_x
  _atom_site_fract_y
  _atom_site_fract_z
  _atom_site_thermal_displace_type
  _atom_site_B_iso_or_equiv
  _atom_site_type_symbol
  Cu1      1.0000 0.25205  0.22393  0.25069  Biso   1.000  Cu
  Cu2      1.0000 0.74795  0.72393  0.24931  Biso   1.000  Cu
  Cu3      1.0000 0.74795  0.77607  0.74931  Biso   1.000  Cu
  Cu4      1.0000 0.25205  0.27607  0.75069  Biso   1.000  Cu
  O1       1.0000 0.19763  0.27440  0.31737  Biso   1.000  O
  O2       1.0000 0.80237  0.77440  0.18263  Biso   1.000  O
  O3       1.0000 0.80237  0.72560  0.68263  Biso   1.000  O
  O4       1.0000 0.19763  0.22560  0.81737  Biso   1.000  O
  O5       1.0000 0.28022  0.09720  0.39404  Biso   1.000  O
  O6       1.0000 0.71978  0.59720  0.10596  Biso   1.000  O
  O7       1.0000 0.71978  0.90280  0.60596  Biso   1.000  O
  O8       1.0000 0.28022  0.40280  0.89404  Biso   1.000  O
  O9       1.0000 0.23100  0.13380  0.60948  Biso   1.000  O
  O10      1.0000 0.76900  0.63380  0.89052  Biso   1.000  O
  O11      1.0000 0.76900  0.86620  0.39052  Biso   1.000  O
  O12      1.0000 0.23100  0.36620  0.10948  Biso   1.000  O
  O13      1.0000 0.30528  0.32810  0.68273  Biso   1.000  O
  O14      1.0000 0.69472  0.82810  0.81727  Biso   1.000  O
  O15      1.0000 0.69472  0.67190  0.31727  Biso   1.000  O
  O16      1.0000 0.30528  0.17190  0.18273  Biso   1.000  O
  O17      1.0000 0.52020  0.89830  0.33498  Biso   1.000  O
  O18      1.0000 0.47980  0.39830  0.16502  Biso   1.000  O
  O19      1.0000 0.47980  0.10170  0.66502  Biso   1.000  O
  O20      1.0000 0.52020  0.60170  0.83498  Biso   1.000  O
  O21      1.0000 0.98899  0.53720  0.16922  Biso   1.000  O
  O22      1.0000 0.01101  0.03720  0.33078  Biso   1.000  O
  O23      1.0000 0.01101  0.46280  0.83078  Biso   1.000  O
  O24      1.0000 0.98899  0.96280  0.66922  Biso   1.000  O
  N1       1.0000 0.31530  0.44390  0.28058  Biso   1.000  N
  N2       1.0000 0.68470  0.94390  0.21942  Biso   1.000  N
  N3       1.0000 0.68470  0.55610  0.71942  Biso   1.000  N
  N4       1.0000 0.31530  0.05610  0.78058  Biso   1.000  N
  N5       1.0000 0.43450  0.02240  0.38071  Biso   1.000  N
  N6       1.0000 0.56550  0.52240  0.11929  Biso   1.000  N
  N7       1.0000 0.56550  0.97760  0.61929  Biso   1.000  N
  N8       1.0000 0.43450  0.47760  0.88071  Biso   1.000  N
  H1       1.0000 0.38860  0.01880  0.38760  Biso   1.000  H
  H2       1.0000 0.61140  0.51880  0.11240  Biso   1.000  H
  H3       1.0000 0.61140  0.98120  0.61240  Biso   1.000  H
  H4       1.0000 0.38860  0.48120  0.88760  Biso   1.000  H
  N9       1.0000 0.18950  0.00100  0.22328  Biso   1.000  N
  N10      1.0000 0.81050  0.50100  0.27672  Biso   1.000  N
  N11      1.0000 0.81050  0.99900  0.77672  Biso   1.000  N
  N12      1.0000 0.18950  0.49900  0.72328  Biso   1.000  N
  N13      1.0000 0.07910  0.41870  0.12670  Biso   1.000  N
  N14      1.0000 0.92090  0.91870  0.37330  Biso   1.000  N
  N15      1.0000 0.92090  0.58130  0.87330  Biso   1.000  N
  N16      1.0000 0.07910  0.08130  0.62670  Biso   1.000  N
  H5       1.0000 0.12720  0.42470  0.12500  Biso   1.000  H
  H6       1.0000 0.87280  0.92470  0.37500  Biso   1.000  H
  H7       1.0000 0.87280  0.57530  0.87500  Biso   1.000  H
  H8       1.0000 0.12720  0.07530  0.62500  Biso   1.000  H
  C1       1.0000 0.22470  0.19900  0.37810  Biso   1.000  C
  C2       1.0000 0.77530  0.69900  0.12190  Biso   1.000  C
  C3       1.0000 0.77530  0.80100  0.62190  Biso   1.000  C
  C4       1.0000 0.22470  0.30100  0.87810  Biso   1.000  C
  C5       1.0000 0.18280  0.24370  0.43160  Biso   1.000  C
  C6       1.0000 0.81720  0.74370  0.06840  Biso   1.000  C
  C7       1.0000 0.81720  0.75630  0.56840  Biso   1.000  C
  C8       1.0000 0.18280  0.25630  0.93160  Biso   1.000  C
  H9       1.0000 0.19670  0.15980  0.47160  Biso   1.000  H
  H10      1.0000 0.80330  0.65980  0.02840  Biso   1.000  H
  H11      1.0000 0.80330  0.84020  0.52840  Biso   1.000  H
  H12      1.0000 0.19670  0.34020  0.97160  Biso   1.000  H
  H13      1.0000 0.12520  0.24030  0.40740  Biso   1.000  H
  H14      1.0000 0.87480  0.74030  0.09260  Biso   1.000  H
  H15      1.0000 0.87480  0.75970  0.59260  Biso   1.000  H
  H16      1.0000 0.12520  0.25970  0.90740  Biso   1.000  H
  C9       1.0000 0.20800  0.42200  0.46130  Biso   1.000  C
  C10      1.0000 0.79200  0.92200  0.03870  Biso   1.000  C
  C11      1.0000 0.79200  0.57800  0.53870  Biso   1.000  C
  C12      1.0000 0.20800  0.07800  0.96130  Biso   1.000  C
  C13      1.0000 0.16720  0.56240  0.42330  Biso   1.000  C
  C14      1.0000 0.83280  0.06240  0.07670  Biso   1.000  C
  C15      1.0000 0.83280  0.43760  0.57670  Biso   1.000  C
  C16      1.0000 0.16720  0.93760  0.92330  Biso   1.000  C
  H17      1.0000 0.12280  0.54540  0.38130  Biso   1.000  H
  H18      1.0000 0.87720  0.04540  0.11870  Biso   1.000  H
  H19      1.0000 0.87720  0.45460  0.61870  Biso   1.000  H
  H20      1.0000 0.12280  0.95460  0.88130  Biso   1.000  H
  C17      1.0000 0.19140  0.72840  0.44690  Biso   1.000  C
  C18      1.0000 0.80860  0.22840  0.05310  Biso   1.000  C
  C19      1.0000 0.80860  0.27160  0.55310  Biso   1.000  C
  C20      1.0000 0.19140  0.77160  0.94690  Biso   1.000  C
  H21      1.0000 0.16380  0.82360  0.42050  Biso   1.000  H
  H22      1.0000 0.83620  0.32360  0.07950  Biso   1.000  H
  H23      1.0000 0.83620  0.17640  0.57950  Biso   1.000  H
  H24      1.0000 0.16380  0.67640  0.92050  Biso   1.000  H
  C21      1.0000 0.25370  0.75310  0.50700  Biso   1.000  C
  C22      1.0000 0.74630  0.25310  0.99300  Biso   1.000  C
  C23      1.0000 0.74630  0.24690  0.49300  Biso   1.000  C
  C24      1.0000 0.25370  0.74690  0.00700  Biso   1.000  C
  H25      1.0000 0.26930  0.86600  0.52290  Biso   1.000  H
  H26      1.0000 0.73070  0.36600  0.97710  Biso   1.000  H
  H27      1.0000 0.73070  0.13400  0.47710  Biso   1.000  H
  H28      1.0000 0.26930  0.63400  0.02290  Biso   1.000  H
  C25      1.0000 0.29510  0.61620  0.54600  Biso   1.000  C
  C26      1.0000 0.70490  0.11620  0.95400  Biso   1.000  C
  C27      1.0000 0.70490  0.38380  0.45400  Biso   1.000  C
  C28      1.0000 0.29510  0.88380  0.04600  Biso   1.000  C
  H29      1.0000 0.33860  0.63610  0.58850  Biso   1.000  H
  H30      1.0000 0.66140  0.13610  0.91150  Biso   1.000  H
  H31      1.0000 0.66140  0.36390  0.41150  Biso   1.000  H
  H32      1.0000 0.33860  0.86390  0.08850  Biso   1.000  H
  C29      1.0000 0.27340  0.44730  0.52310  Biso   1.000  C
  C30      1.0000 0.72660  0.94730  0.97690  Biso   1.000  C
  C31      1.0000 0.72660  0.55270  0.47690  Biso   1.000  C
  C32      1.0000 0.27340  0.05270  0.02310  Biso   1.000  C
  C33      1.0000 0.31900  0.30040  0.56740  Biso   1.000  C
  C34      1.0000 0.68100  0.80040  0.93260  Biso   1.000  C
  C35      1.0000 0.68100  0.69960  0.43260  Biso   1.000  C
  C36      1.0000 0.31900  0.19960  0.06740  Biso   1.000  C
  H33      1.0000 0.37420  0.33540  0.59200  Biso   1.000  H
  H34      1.0000 0.62580  0.83540  0.90800  Biso   1.000  H
  H35      1.0000 0.62580  0.66460  0.40800  Biso   1.000  H
  H36      1.0000 0.37420  0.16460  0.09200  Biso   1.000  H
  H37      1.0000 0.31910  0.20280  0.53550  Biso   1.000  H
  H38      1.0000 0.68090  0.70280  0.96450  Biso   1.000  H
  H39      1.0000 0.68090  0.79720  0.46450  Biso   1.000  H
  H40      1.0000 0.31910  0.29720  0.03550  Biso   1.000  H
  C37      1.0000 0.28150  0.24760  0.62300  Biso   1.000  C
  C38      1.0000 0.71850  0.74760  0.87700  Biso   1.000  C
  C39      1.0000 0.71850  0.75240  0.37700  Biso   1.000  C
  C40      1.0000 0.28150  0.25240  0.12300  Biso   1.000  C
  C41      1.0000 0.38010  0.47380  0.26260  Biso   1.000  C
  C42      1.0000 0.61990  0.97380  0.23740  Biso   1.000  C
  C43      1.0000 0.61990  0.52620  0.73740  Biso   1.000  C
  C44      1.0000 0.38010  0.02620  0.76260  Biso   1.000  C
  H41      1.0000 0.39580  0.39060  0.23480  Biso   1.000  H
  H42      1.0000 0.60420  0.89060  0.26520  Biso   1.000  H
  H43      1.0000 0.60420  0.60940  0.76520  Biso   1.000  H
  H44      1.0000 0.39580  0.10940  0.73480  Biso   1.000  H
  C45      1.0000 0.42450  0.61800  0.28240  Biso   1.000  C
  C46      1.0000 0.57550  0.11800  0.21760  Biso   1.000  C
  C47      1.0000 0.57550  0.38200  0.71760  Biso   1.000  C
  C48      1.0000 0.42450  0.88200  0.78240  Biso   1.000  C
  H45      1.0000 0.46980  0.63330  0.26830  Biso   1.000  H
  H46      1.0000 0.53020  0.13330  0.23170  Biso   1.000  H
  H47      1.0000 0.53020  0.36670  0.73170  Biso   1.000  H
  H48      1.0000 0.46980  0.86670  0.76830  Biso   1.000  H
  C49      1.0000 0.40350  0.74280  0.32320  Biso   1.000  C
  C50      1.0000 0.59650  0.24280  0.17680  Biso   1.000  C
  C51      1.0000 0.59650  0.25720  0.67680  Biso   1.000  C
  C52      1.0000 0.40350  0.75720  0.82320  Biso   1.000  C
  C53      1.0000 0.33610  0.71380  0.34140  Biso   1.000  C
  C54      1.0000 0.66390  0.21380  0.15860  Biso   1.000  C
  C55      1.0000 0.66390  0.28620  0.65860  Biso   1.000  C
  C56      1.0000 0.33610  0.78620  0.84140  Biso   1.000  C
  H49      1.0000 0.31890  0.79590  0.36850  Biso   1.000  H
  H50      1.0000 0.68110  0.29590  0.13150  Biso   1.000  H
  H51      1.0000 0.68110  0.20410  0.63150  Biso   1.000  H
  H52      1.0000 0.31890  0.70410  0.86850  Biso   1.000  H
  C57      1.0000 0.29450  0.56470  0.31950  Biso   1.000  C
  C58      1.0000 0.70550  0.06470  0.18050  Biso   1.000  C
  C59      1.0000 0.70550  0.43530  0.68050  Biso   1.000  C
  C60      1.0000 0.29450  0.93530  0.81950  Biso   1.000  C
  H53      1.0000 0.24890  0.54630  0.33270  Biso   1.000  H
  H54      1.0000 0.75110  0.04630  0.16730  Biso   1.000  H
  H55      1.0000 0.75110  0.45370  0.66730  Biso   1.000  H
  H56      1.0000 0.24890  0.95370  0.83270  Biso   1.000  H
  C61      1.0000 0.45670  0.89520  0.34620  Biso   1.000  C
  C62      1.0000 0.54330  0.39520  0.15380  Biso   1.000  C
  C63      1.0000 0.54330  0.10480  0.65380  Biso   1.000  C
  C64      1.0000 0.45670  0.60480  0.84620  Biso   1.000  C
  C65      1.0000 0.48710  0.16700  0.40670  Biso   1.000  C
  C66      1.0000 0.51290  0.66700  0.09330  Biso   1.000  C
  C67      1.0000 0.51290  0.83300  0.59330  Biso   1.000  C
  C68      1.0000 0.48710  0.33300  0.90670  Biso   1.000  C
  H57      1.0000 0.49060  0.23310  0.36490  Biso   1.000  H
  H58      1.0000 0.50940  0.73310  0.13510  Biso   1.000  H
  H59      1.0000 0.50940  0.76690  0.63510  Biso   1.000  H
  H60      1.0000 0.49060  0.26690  0.86490  Biso   1.000  H
  H61      1.0000 0.54040  0.12440  0.43390  Biso   1.000  H
  H62      1.0000 0.45960  0.62440  0.06610  Biso   1.000  H
  H63      1.0000 0.45960  0.87560  0.56610  Biso   1.000  H
  H64      1.0000 0.54040  0.37560  0.93390  Biso   1.000  H
  C69      1.0000 0.45900  0.28310  0.45500  Biso   1.000  C
  C70      1.0000 0.54100  0.78310  0.04500  Biso   1.000  C
  C71      1.0000 0.54100  0.71690  0.54500  Biso   1.000  C
  C72      1.0000 0.45900  0.21690  0.95500  Biso   1.000  C
  H65      1.0000 0.45860  0.21990  0.49850  Biso   1.000  H
  H66      1.0000 0.54140  0.71990  0.00150  Biso   1.000  H
  H67      1.0000 0.54140  0.78010  0.50150  Biso   1.000  H
  H68      1.0000 0.45860  0.28010  0.99850  Biso   1.000  H
  H69      1.0000 0.40470  0.32170  0.42890  Biso   1.000  H
  H70      1.0000 0.59530  0.82170  0.07110  Biso   1.000  H
  H71      1.0000 0.59530  0.67830  0.57110  Biso   1.000  H
  H72      1.0000 0.40470  0.17830  0.92890  Biso   1.000  H
  C73      1.0000 0.51330  0.43720  0.47720  Biso   1.000  C
  C74      1.0000 0.48670  0.93720  0.02280  Biso   1.000  C
  C75      1.0000 0.48670  0.56280  0.52280  Biso   1.000  C
  C76      1.0000 0.51330  0.06280  0.97720  Biso   1.000  C
  H73      1.0000 0.56700  0.39760  0.50460  Biso   1.000  H
  H74      1.0000 0.43300  0.89760  0.99540  Biso   1.000  H
  H75      1.0000 0.43300  0.60240  0.49540  Biso   1.000  H
  H76      1.0000 0.56700  0.10240  0.00460  Biso   1.000  H
  H77      1.0000 0.51560  0.49590  0.43320  Biso   1.000  H
  H78      1.0000 0.48440  0.99590  0.06680  Biso   1.000  H
  H79      1.0000 0.48440  0.50410  0.56680  Biso   1.000  H
  H80      1.0000 0.51560  0.00410  0.93320  Biso   1.000  H
  C77      1.0000 0.21220  0.87840  0.18530  Biso   1.000  C
  C78      1.0000 0.78780  0.37840  0.31470  Biso   1.000  C
  C79      1.0000 0.78780  0.12160  0.81470  Biso   1.000  C
  C80      1.0000 0.21220  0.62160  0.68530  Biso   1.000  C
  H81      1.0000 0.25760  0.89760  0.17190  Biso   1.000  H
  H82      1.0000 0.74240  0.39760  0.32810  Biso   1.000  H
  H83      1.0000 0.74240  0.10240  0.82810  Biso   1.000  H
  H84      1.0000 0.25760  0.60240  0.67190  Biso   1.000  H
  C81      1.0000 0.17200  0.72760  0.16550  Biso   1.000  C
  C82      1.0000 0.82800  0.22760  0.33450  Biso   1.000  C
  C83      1.0000 0.82800  0.27240  0.83450  Biso   1.000  C
  C84      1.0000 0.17200  0.77240  0.66550  Biso   1.000  C
  H85      1.0000 0.18990  0.64470  0.13920  Biso   1.000  H
  H86      1.0000 0.81010  0.14470  0.36080  Biso   1.000  H
  H87      1.0000 0.81010  0.35530  0.86080  Biso   1.000  H
  H88      1.0000 0.18990  0.85530  0.63920  Biso   1.000  H
  C85      1.0000 0.10520  0.69710  0.18400  Biso   1.000  C
  C86      1.0000 0.89480  0.19710  0.31600  Biso   1.000  C
  C87      1.0000 0.89480  0.30290  0.81600  Biso   1.000  C
  C88      1.0000 0.10520  0.80290  0.68400  Biso   1.000  C
  C89      1.0000 0.08260  0.82140  0.22390  Biso   1.000  C
  C90      1.0000 0.91740  0.32140  0.27610  Biso   1.000  C
  C91      1.0000 0.91740  0.17860  0.77610  Biso   1.000  C
  C92      1.0000 0.08260  0.67860  0.72390  Biso   1.000  C
  H89      1.0000 0.03810  0.80370  0.23880  Biso   1.000  H
  H90      1.0000 0.96190  0.30370  0.26120  Biso   1.000  H
  H91      1.0000 0.96190  0.19630  0.76120  Biso   1.000  H
  H92      1.0000 0.03810  0.69630  0.73880  Biso   1.000  H
  C93      1.0000 0.12530  0.96990  0.24160  Biso   1.000  C
  C94      1.0000 0.87470  0.46990  0.25840  Biso   1.000  C
  C95      1.0000 0.87470  0.03010  0.75840  Biso   1.000  C
  C96      1.0000 0.12530  0.53010  0.74160  Biso   1.000  C
  H93      1.0000 0.10850  0.05440  0.26810  Biso   1.000  H
  H94      1.0000 0.89150  0.55440  0.23190  Biso   1.000  H
  H95      1.0000 0.89150  0.94560  0.73190  Biso   1.000  H
  H96      1.0000 0.10850  0.44560  0.76810  Biso   1.000  H
  C97      1.0000 0.05380  0.54060  0.16080  Biso   1.000  C
  C98      1.0000 0.94620  0.04060  0.33920  Biso   1.000  C
  C99      1.0000 0.94620  0.45940  0.83920  Biso   1.000  C
  C100     1.0000 0.05380  0.95940  0.66080  Biso   1.000  C
  C101     1.0000 0.02930  0.27540  0.09220  Biso   1.000  C
  C102     1.0000 0.97070  0.77540  0.40780  Biso   1.000  C
  C103     1.0000 0.97070  0.72460  0.90780  Biso   1.000  C
  C104     1.0000 0.02930  0.22460  0.59220  Biso   1.000  C
  H97      1.0000 0.97340  0.30600  0.08230  Biso   1.000  H
  H98      1.0000 0.02660  0.80600  0.41770  Biso   1.000  H
  H99      1.0000 0.02660  0.69400  0.91770  Biso   1.000  H
  H100     1.0000 0.97340  0.19400  0.58230  Biso   1.000  H
  H101     1.0000 0.04140  0.17590  0.12510  Biso   1.000  H
  H102     1.0000 0.95860  0.67590  0.37490  Biso   1.000  H
  H103     1.0000 0.95860  0.82410  0.87490  Biso   1.000  H
  H104     1.0000 0.04140  0.32410  0.62510  Biso   1.000  H
  C105     1.0000 0.04270  0.22940  0.02280  Biso   1.000  C
  C106     1.0000 0.95730  0.72940  0.47720  Biso   1.000  C
  C107     1.0000 0.95730  0.77060  0.97720  Biso   1.000  C
  C108     1.0000 0.04270  0.27060  0.52280  Biso   1.000  C
  H105     1.0000 0.09840  0.19570  0.03350  Biso   1.000  H
  H106     1.0000 0.90160  0.69570  0.46650  Biso   1.000  H
  H107     1.0000 0.90160  0.80430  0.96650  Biso   1.000  H
  H108     1.0000 0.09840  0.30430  0.53350  Biso   1.000  H
  H109     1.0000 0.03310  0.33140  0.99140  Biso   1.000  H
  H110     1.0000 0.96690  0.83140  0.50860  Biso   1.000  H
  H111     1.0000 0.96690  0.66860  0.00860  Biso   1.000  H
  H112     1.0000 0.03310  0.16860  0.49140  Biso   1.000  H
  C109     1.0000 0.99020  0.08510  0.98210  Biso   1.000  C
  C110     1.0000 0.00980  0.58510  0.51790  Biso   1.000  C
  C111     1.0000 0.00980  0.91490  0.01790  Biso   1.000  C
  C112     1.0000 0.99020  0.41490  0.48210  Biso   1.000  C
  H113     1.0000 0.93490  0.11300  0.97670  Biso   1.000  H
  H114     1.0000 0.06510  0.61300  0.52330  Biso   1.000  H
  H115     1.0000 0.06510  0.88700  0.02330  Biso   1.000  H
  H116     1.0000 0.93490  0.38700  0.47670  Biso   1.000  H
  H117     1.0000 0.99440  0.07760  0.93320  Biso   1.000  H
  H118     1.0000 0.00560  0.57760  0.56680  Biso   1.000  H
  H119     1.0000 0.00560  0.92240  0.06680  Biso   1.000  H
  H120     1.0000 0.99440  0.42240  0.43320  Biso   1.000  H
