data_image0
_cell_length_a       7.0072
_cell_length_b       15.8686
_cell_length_c       25.283
_cell_angle_alpha    90
_cell_angle_beta     92.757
_cell_angle_gamma    90

_symmetry_space_group_name_H-M    "P 1"
_symmetry_int_tables_number       1

loop_
  _symmetry_equiv_pos_as_xyz
  'x, y, z'

loop_
  _atom_site_label
  _atom_site_occupancy
  _atom_site_fract_x
  _atom_site_fract_y
  _atom_site_fract_z
  _atom_site_thermal_displace_type
  _atom_site_B_iso_or_equiv
  _atom_site_type_symbol
  Cu1      1.0000 0.93281  0.66569  0.19403  Biso   1.000  Cu
  Cu2      1.0000 0.56719  0.16569  0.30597  Biso   1.000  Cu
  Cu3      1.0000 0.06719  0.33431  0.80597  Biso   1.000  Cu
  Cu4      1.0000 0.43281  0.83431  0.69403  Biso   1.000  Cu
  O1       1.0000 0.22100  0.27436  0.34666  Biso   1.000  O
  O2       1.0000 0.27900  0.77436  0.15334  Biso   1.000  O
  O3       1.0000 0.77900  0.72564  0.65334  Biso   1.000  O
  O4       1.0000 0.72100  0.22564  0.84666  Biso   1.000  O
  O5       1.0000 0.65580  0.61384  0.26521  Biso   1.000  O
  O6       1.0000 0.84420  0.11384  0.23479  Biso   1.000  O
  O7       1.0000 0.34420  0.38616  0.73479  Biso   1.000  O
  O8       1.0000 0.15580  0.88616  0.76521  Biso   1.000  O
  O9       1.0000 0.18390  0.61023  0.14448  Biso   1.000  O
  O10      1.0000 0.31610  0.11023  0.35552  Biso   1.000  O
  O11      1.0000 0.81610  0.38977  0.85552  Biso   1.000  O
  O12      1.0000 0.68390  0.88977  0.64448  Biso   1.000  O
  H1       1.0000 0.23800  0.65750  0.14470  Biso   1.000  H
  H2       1.0000 0.26200  0.15750  0.35530  Biso   1.000  H
  H3       1.0000 0.76200  0.34250  0.85530  Biso   1.000  H
  H4       1.0000 0.73800  0.84250  0.64470  Biso   1.000  H
  H5       1.0000 0.25400  0.56970  0.15060  Biso   1.000  H
  H6       1.0000 0.24600  0.06970  0.34940  Biso   1.000  H
  H7       1.0000 0.74600  0.43030  0.84940  Biso   1.000  H
  H8       1.0000 0.75400  0.93030  0.65060  Biso   1.000  H
  O13      1.0000 0.70160  0.82797  0.95591  Biso   1.000  O
  O14      1.0000 0.79840  0.32797  0.54409  Biso   1.000  O
  O15      1.0000 0.29840  0.17203  0.04409  Biso   1.000  O
  O16      1.0000 0.20160  0.67203  0.45591  Biso   1.000  O
  O17      1.0000 0.55810  0.61114  0.94354  Biso   1.000  O
  O18      1.0000 0.94190  0.11114  0.55646  Biso   1.000  O
  O19      1.0000 0.44190  0.38886  0.05646  Biso   1.000  O
  O20      1.0000 0.05810  0.88886  0.44354  Biso   1.000  O
  O21      1.0000 0.51910  0.28394  0.32088  Biso   1.000  O
  O22      1.0000 0.98090  0.78394  0.17912  Biso   1.000  O
  O23      1.0000 0.48090  0.71606  0.67912  Biso   1.000  O
  O24      1.0000 0.01910  0.21606  0.82088  Biso   1.000  O
  O25      1.0000 0.86480  0.55048  0.21613  Biso   1.000  O
  O26      1.0000 0.63520  0.05048  0.28387  Biso   1.000  O
  O27      1.0000 0.13520  0.44952  0.78387  Biso   1.000  O
  O28      1.0000 0.36480  0.94952  0.71613  Biso   1.000  O
  N1       1.0000 0.99500  0.78435  0.93350  Biso   1.000  N
  N2       1.0000 0.50500  0.28435  0.56650  Biso   1.000  N
  N3       1.0000 0.00500  0.21565  0.06650  Biso   1.000  N
  N4       1.0000 0.49500  0.71565  0.43350  Biso   1.000  N
  N5       1.0000 0.28100  0.66940  0.96718  Biso   1.000  N
  N6       1.0000 0.21900  0.16940  0.53282  Biso   1.000  N
  N7       1.0000 0.71900  0.33060  0.03282  Biso   1.000  N
  N8       1.0000 0.78100  0.83060  0.46718  Biso   1.000  N
  N9       1.0000 0.75590  0.66201  0.12910  Biso   1.000  N
  N10      1.0000 0.74410  0.16201  0.37090  Biso   1.000  N
  N11      1.0000 0.24410  0.33799  0.87090  Biso   1.000  N
  N12      1.0000 0.25590  0.83799  0.62910  Biso   1.000  N
  N13      1.0000 0.57710  0.81972  0.76339  Biso   1.000  N
  N14      1.0000 0.92290  0.31972  0.73661  Biso   1.000  N
  N15      1.0000 0.42290  0.18028  0.23661  Biso   1.000  N
  N16      1.0000 0.07710  0.68028  0.26339  Biso   1.000  N
  C1       1.0000 0.86210  0.51240  0.41810  Biso   1.000  C
  C2       1.0000 0.63790  0.01240  0.08190  Biso   1.000  C
  C3       1.0000 0.13790  0.48760  0.58190  Biso   1.000  C
  C4       1.0000 0.36210  0.98760  0.91810  Biso   1.000  C
  H9       1.0000 0.97320  0.53480  0.43590  Biso   1.000  H
  H10      1.0000 0.52680  0.03480  0.06410  Biso   1.000  H
  H11      1.0000 0.02680  0.46520  0.56410  Biso   1.000  H
  H12      1.0000 0.47320  0.96520  0.93590  Biso   1.000  H
  C5       1.0000 0.85080  0.50610  0.36430  Biso   1.000  C
  C6       1.0000 0.64920  0.00610  0.13570  Biso   1.000  C
  C7       1.0000 0.14920  0.49390  0.63570  Biso   1.000  C
  C8       1.0000 0.35080  0.99390  0.86430  Biso   1.000  C
  H13      1.0000 0.95540  0.52550  0.34500  Biso   1.000  H
  H14      1.0000 0.54460  0.02550  0.15500  Biso   1.000  H
  H15      1.0000 0.04460  0.47450  0.65500  Biso   1.000  H
  H16      1.0000 0.45540  0.97450  0.84500  Biso   1.000  H
  C9       1.0000 0.14930  0.70180  0.00534  Biso   1.000  C
  C10      1.0000 0.35070  0.20180  0.49466  Biso   1.000  C
  C11      1.0000 0.85070  0.29820  0.99466  Biso   1.000  C
  C12      1.0000 0.64930  0.79820  0.50534  Biso   1.000  C
  H17      1.0000 0.21580  0.70650  0.04070  Biso   1.000  H
  H18      1.0000 0.28420  0.20650  0.45930  Biso   1.000  H
  H19      1.0000 0.78420  0.29350  0.95930  Biso   1.000  H
  H20      1.0000 0.71580  0.79350  0.54070  Biso   1.000  H
  H21      1.0000 0.04080  0.66240  0.00820  Biso   1.000  H
  H22      1.0000 0.45920  0.16240  0.49180  Biso   1.000  H
  H23      1.0000 0.95920  0.33760  0.99180  Biso   1.000  H
  H24      1.0000 0.54080  0.83760  0.50820  Biso   1.000  H
  C13      1.0000 0.35860  0.41030  0.33926  Biso   1.000  C
  C14      1.0000 0.14140  0.91030  0.16074  Biso   1.000  C
  C15      1.0000 0.64140  0.58970  0.66074  Biso   1.000  C
  C16      1.0000 0.85860  0.08970  0.83926  Biso   1.000  C
  H25      1.0000 0.24880  0.42710  0.36010  Biso   1.000  H
  H26      1.0000 0.25120  0.92710  0.13990  Biso   1.000  H
  H27      1.0000 0.75120  0.57290  0.63990  Biso   1.000  H
  H28      1.0000 0.74880  0.07290  0.86010  Biso   1.000  H
  H29      1.0000 0.33800  0.43410  0.30320  Biso   1.000  H
  H30      1.0000 0.16200  0.93410  0.19680  Biso   1.000  H
  H31      1.0000 0.66200  0.56590  0.69680  Biso   1.000  H
  H32      1.0000 0.83800  0.06590  0.80320  Biso   1.000  H
  C17      1.0000 0.69490  0.47300  0.33671  Biso   1.000  C
  C18      1.0000 0.80510  0.97300  0.16329  Biso   1.000  C
  C19      1.0000 0.30510  0.52700  0.66329  Biso   1.000  C
  C20      1.0000 0.19490  0.02700  0.83671  Biso   1.000  C
  C21      1.0000 0.60350  0.75020  0.84710  Biso   1.000  C
  C22      1.0000 0.89650  0.25020  0.65290  Biso   1.000  C
  C23      1.0000 0.39650  0.24980  0.15290  Biso   1.000  C
  C24      1.0000 0.10350  0.74980  0.34710  Biso   1.000  C
  H33      1.0000 0.56210  0.70640  0.86950  Biso   1.000  H
  H34      1.0000 0.93790  0.20640  0.63050  Biso   1.000  H
  H35      1.0000 0.43790  0.29360  0.13050  Biso   1.000  H
  H36      1.0000 0.06210  0.79360  0.36950  Biso   1.000  H
  C25      1.0000 0.69950  0.46650  0.27717  Biso   1.000  C
  C26      1.0000 0.80050  0.96650  0.22283  Biso   1.000  C
  C27      1.0000 0.30050  0.53350  0.72283  Biso   1.000  C
  C28      1.0000 0.19950  0.03350  0.77717  Biso   1.000  C
  H37      1.0000 0.57490  0.44510  0.26280  Biso   1.000  H
  H38      1.0000 0.92510  0.94510  0.23720  Biso   1.000  H
  H39      1.0000 0.42510  0.55490  0.73720  Biso   1.000  H
  H40      1.0000 0.07490  0.05490  0.76280  Biso   1.000  H
  H41      1.0000 0.79900  0.42540  0.26800  Biso   1.000  H
  H42      1.0000 0.70100  0.92540  0.23200  Biso   1.000  H
  H43      1.0000 0.20100  0.57460  0.73200  Biso   1.000  H
  H44      1.0000 0.29900  0.07460  0.76800  Biso   1.000  H
  C29      1.0000 0.62580  0.58140  0.05655  Biso   1.000  C
  C30      1.0000 0.87420  0.08140  0.44345  Biso   1.000  C
  C31      1.0000 0.37420  0.41860  0.94345  Biso   1.000  C
  C32      1.0000 0.12580  0.91860  0.55655  Biso   1.000  C
  H45      1.0000 0.60920  0.52790  0.04010  Biso   1.000  H
  H46      1.0000 0.89080  0.02790  0.45990  Biso   1.000  H
  H47      1.0000 0.39080  0.47210  0.95990  Biso   1.000  H
  H48      1.0000 0.10920  0.97210  0.54010  Biso   1.000  H
  C33      1.0000 0.12470  0.74990  0.89542  Biso   1.000  C
  C34      1.0000 0.37530  0.24990  0.60458  Biso   1.000  C
  C35      1.0000 0.87530  0.25010  0.10458  Biso   1.000  C
  C36      1.0000 0.62470  0.75010  0.39542  Biso   1.000  C
  H49      1.0000 0.23590  0.78780  0.89250  Biso   1.000  H
  H50      1.0000 0.26410  0.28780  0.60750  Biso   1.000  H
  H51      1.0000 0.76410  0.21220  0.10750  Biso   1.000  H
  H52      1.0000 0.73590  0.71220  0.39250  Biso   1.000  H
  H53      1.0000 0.05800  0.74570  0.86010  Biso   1.000  H
  H54      1.0000 0.44200  0.24570  0.63990  Biso   1.000  H
  H55      1.0000 0.94200  0.25430  0.13990  Biso   1.000  H
  H56      1.0000 0.55800  0.75430  0.36010  Biso   1.000  H
  C37      1.0000 0.54850  0.45450  0.41954  Biso   1.000  C
  C38      1.0000 0.95150  0.95450  0.08046  Biso   1.000  C
  C39      1.0000 0.45150  0.54550  0.58046  Biso   1.000  C
  C40      1.0000 0.04850  0.04550  0.91954  Biso   1.000  C
  H57      1.0000 0.44200  0.43750  0.43880  Biso   1.000  H
  H58      1.0000 0.05800  0.93750  0.06120  Biso   1.000  H
  H59      1.0000 0.55800  0.56250  0.56120  Biso   1.000  H
  H60      1.0000 0.94200  0.06250  0.93880  Biso   1.000  H
  C41      1.0000 0.80030  0.86790  0.83046  Biso   1.000  C
  C42      1.0000 0.69970  0.36790  0.66954  Biso   1.000  C
  C43      1.0000 0.19970  0.13210  0.16954  Biso   1.000  C
  C44      1.0000 0.30030  0.63210  0.33046  Biso   1.000  C
  H61      1.0000 0.89910  0.90630  0.84110  Biso   1.000  H
  H62      1.0000 0.60090  0.40630  0.65890  Biso   1.000  H
  H63      1.0000 0.10090  0.09370  0.15890  Biso   1.000  H
  H64      1.0000 0.39910  0.59370  0.34110  Biso   1.000  H
  C45      1.0000 0.70850  0.48560  0.44638  Biso   1.000  C
  C46      1.0000 0.79150  0.98560  0.05362  Biso   1.000  C
  C47      1.0000 0.29150  0.51440  0.55362  Biso   1.000  C
  C48      1.0000 0.20850  0.01440  0.94638  Biso   1.000  C
  H65      1.0000 0.71380  0.48880  0.48390  Biso   1.000  H
  H66      1.0000 0.78620  0.98880  0.01610  Biso   1.000  H
  H67      1.0000 0.28620  0.51120  0.51610  Biso   1.000  H
  H68      1.0000 0.21380  0.01120  0.98390  Biso   1.000  H
  C49      1.0000 0.07540  0.78750  0.98785  Biso   1.000  C
  C50      1.0000 0.42460  0.28750  0.51215  Biso   1.000  C
  C51      1.0000 0.92460  0.21250  0.01215  Biso   1.000  C
  C52      1.0000 0.57540  0.71250  0.48785  Biso   1.000  C
  H69      1.0000 0.97590  0.80630  0.01170  Biso   1.000  H
  H70      1.0000 0.52410  0.30630  0.48830  Biso   1.000  H
  H71      1.0000 0.02410  0.19370  0.98830  Biso   1.000  H
  H72      1.0000 0.47590  0.69370  0.51170  Biso   1.000  H
  H73      1.0000 0.18110  0.82890  0.99020  Biso   1.000  H
  H74      1.0000 0.31890  0.32890  0.50980  Biso   1.000  H
  H75      1.0000 0.81890  0.17110  0.00980  Biso   1.000  H
  H76      1.0000 0.68110  0.67110  0.49020  Biso   1.000  H
  C53      1.0000 0.55080  0.65300  0.03204  Biso   1.000  C
  C54      1.0000 0.94920  0.15300  0.46796  Biso   1.000  C
  C55      1.0000 0.44920  0.34700  0.96796  Biso   1.000  C
  C56      1.0000 0.05080  0.84700  0.53204  Biso   1.000  C
  C57      1.0000 0.57940  0.72930  0.05804  Biso   1.000  C
  C58      1.0000 0.92060  0.22930  0.44196  Biso   1.000  C
  C59      1.0000 0.42060  0.27070  0.94196  Biso   1.000  C
  C60      1.0000 0.07940  0.77070  0.55804  Biso   1.000  C
  H77      1.0000 0.52890  0.77980  0.04290  Biso   1.000  H
  H78      1.0000 0.97110  0.27980  0.45710  Biso   1.000  H
  H79      1.0000 0.47110  0.22020  0.95710  Biso   1.000  H
  H80      1.0000 0.02890  0.72020  0.54290  Biso   1.000  H
  C61      1.0000 0.53990  0.44730  0.36476  Biso   1.000  C
  C62      1.0000 0.96010  0.94730  0.13524  Biso   1.000  C
  C63      1.0000 0.46010  0.55270  0.63524  Biso   1.000  C
  C64      1.0000 0.03990  0.05270  0.86476  Biso   1.000  C
  C65      1.0000 0.81160  0.80620  0.92236  Biso   1.000  C
  C66      1.0000 0.68840  0.30620  0.57764  Biso   1.000  C
  C67      1.0000 0.18840  0.19380  0.07764  Biso   1.000  C
  C68      1.0000 0.31160  0.69380  0.42236  Biso   1.000  C
  C69      1.0000 0.72410  0.58800  0.10463  Biso   1.000  C
  C70      1.0000 0.77590  0.08800  0.39537  Biso   1.000  C
  C71      1.0000 0.27590  0.41200  0.89537  Biso   1.000  C
  C72      1.0000 0.22410  0.91200  0.60463  Biso   1.000  C
  H81      1.0000 0.77170  0.53810  0.12130  Biso   1.000  H
  H82      1.0000 0.72830  0.03810  0.37870  Biso   1.000  H
  H83      1.0000 0.22830  0.46190  0.87870  Biso   1.000  H
  H84      1.0000 0.27170  0.96190  0.62130  Biso   1.000  H
  C73      1.0000 0.19230  0.66300  0.91363  Biso   1.000  C
  C74      1.0000 0.30770  0.16300  0.58637  Biso   1.000  C
  C75      1.0000 0.80770  0.33700  0.08637  Biso   1.000  C
  C76      1.0000 0.69230  0.83700  0.41363  Biso   1.000  C
  H85      1.0000 0.08260  0.62370  0.91360  Biso   1.000  H
  H86      1.0000 0.41740  0.12370  0.58640  Biso   1.000  H
  H87      1.0000 0.91740  0.37630  0.08640  Biso   1.000  H
  H88      1.0000 0.58260  0.87630  0.41360  Biso   1.000  H
  H89      1.0000 0.28610  0.64070  0.88910  Biso   1.000  H
  H90      1.0000 0.21390  0.14070  0.61090  Biso   1.000  H
  H91      1.0000 0.71390  0.35930  0.11090  Biso   1.000  H
  H92      1.0000 0.78610  0.85930  0.38910  Biso   1.000  H
  C77      1.0000 0.52630  0.75800  0.79646  Biso   1.000  C
  C78      1.0000 0.97370  0.25800  0.70354  Biso   1.000  C
  C79      1.0000 0.47370  0.24200  0.20354  Biso   1.000  C
  C80      1.0000 0.02630  0.74200  0.29646  Biso   1.000  C
  H93      1.0000 0.43310  0.71820  0.78420  Biso   1.000  H
  H94      1.0000 0.06690  0.21820  0.71580  Biso   1.000  H
  H95      1.0000 0.56690  0.28180  0.21580  Biso   1.000  H
  H96      1.0000 0.93310  0.78180  0.28420  Biso   1.000  H
  C81      1.0000 0.36410  0.31510  0.33545  Biso   1.000  C
  C82      1.0000 0.13590  0.81510  0.16455  Biso   1.000  C
  C83      1.0000 0.63590  0.68490  0.66455  Biso   1.000  C
  C84      1.0000 0.86410  0.18490  0.83545  Biso   1.000  C
  C85      1.0000 0.74090  0.55090  0.25132  Biso   1.000  C
  C86      1.0000 0.75910  0.05090  0.24868  Biso   1.000  C
  C87      1.0000 0.25910  0.44910  0.74868  Biso   1.000  C
  C88      1.0000 0.24090  0.94910  0.75132  Biso   1.000  C
  C89      1.0000 0.74150  0.80640  0.86514  Biso   1.000  C
  C90      1.0000 0.75850  0.30640  0.63486  Biso   1.000  C
  C91      1.0000 0.25850  0.19360  0.13486  Biso   1.000  C
  C92      1.0000 0.24150  0.69360  0.36514  Biso   1.000  C
  C93      1.0000 0.68150  0.73110  0.10586  Biso   1.000  C
  C94      1.0000 0.81850  0.23110  0.39414  Biso   1.000  C
  C95      1.0000 0.31850  0.26890  0.89414  Biso   1.000  C
  C96      1.0000 0.18150  0.76890  0.60586  Biso   1.000  C
  H97      1.0000 0.70000  0.78380  0.12320  Biso   1.000  H
  H98      1.0000 0.80000  0.28380  0.37680  Biso   1.000  H
  H99      1.0000 0.30000  0.21620  0.87680  Biso   1.000  H
  H100     1.0000 0.20000  0.71620  0.62320  Biso   1.000  H
  C97      1.0000 0.46090  0.64400  0.97764  Biso   1.000  C
  C98      1.0000 0.03910  0.14400  0.52236  Biso   1.000  C
  C99      1.0000 0.53910  0.35600  0.02236  Biso   1.000  C
  C100     1.0000 0.96090  0.85600  0.47764  Biso   1.000  C
  C101     1.0000 0.71440  0.87260  0.78083  Biso   1.000  C
  C102     1.0000 0.78560  0.37260  0.71917  Biso   1.000  C
  C103     1.0000 0.28560  0.12740  0.21917  Biso   1.000  C
  C104     1.0000 0.21440  0.62740  0.28083  Biso   1.000  C
  H101     1.0000 0.75420  0.91560  0.75760  Biso   1.000  H
  H102     1.0000 0.74580  0.41560  0.74240  Biso   1.000  H
  H103     1.0000 0.24580  0.08440  0.24240  Biso   1.000  H
  H104     1.0000 0.25420  0.58440  0.25760  Biso   1.000  H
  O29      1.0000 0.09030  0.96720  0.33328  Biso   1.000  O
  O30      1.0000 0.40970  0.46720  0.16672  Biso   1.000  O
  O31      1.0000 0.90970  0.03280  0.66672  Biso   1.000  O
  O32      1.0000 0.59030  0.53280  0.83328  Biso   1.000  O
  H105     1.0000 0.08090  0.94520  0.36370  Biso   1.000  H
  H106     1.0000 0.41910  0.44520  0.13630  Biso   1.000  H
  H107     1.0000 0.91910  0.05480  0.63630  Biso   1.000  H
  H108     1.0000 0.58090  0.55480  0.86370  Biso   1.000  H
  H109     1.0000 0.19660  0.94680  0.32470  Biso   1.000  H
  H110     1.0000 0.30340  0.44680  0.17530  Biso   1.000  H
  H111     1.0000 0.80340  0.05320  0.67530  Biso   1.000  H
  H112     1.0000 0.69660  0.55320  0.82470  Biso   1.000  H
  O33      1.0000 0.37600  0.00500  0.45166  Biso   1.000  O
  O34      1.0000 0.12400  0.50500  0.04834  Biso   1.000  O
  O35      1.0000 0.62400  0.99500  0.54834  Biso   1.000  O
  O36      1.0000 0.87600  0.49500  0.95166  Biso   1.000  O
  H113     1.0000 0.27900  0.96800  0.44550  Biso   1.000  H
  H114     1.0000 0.22100  0.46800  0.05450  Biso   1.000  H
  H115     1.0000 0.72100  0.03200  0.55450  Biso   1.000  H
  H116     1.0000 0.77900  0.53200  0.94550  Biso   1.000  H
  H117     1.0000 0.39700  0.00500  0.48540  Biso   1.000  H
  H118     1.0000 0.10300  0.50500  0.01460  Biso   1.000  H
  H119     1.0000 0.60300  0.99500  0.51460  Biso   1.000  H
  H120     1.0000 0.89700  0.49500  0.98540  Biso   1.000  H
  O37      1.0000 0.43180  0.90228  0.30710  Biso   1.000  O
  O38      1.0000 0.06820  0.40228  0.19290  Biso   1.000  O
  O39      1.0000 0.56820  0.09772  0.69290  Biso   1.000  O
  O40      1.0000 0.93180  0.59772  0.80710  Biso   1.000  O
  H121     1.0000 0.46800  0.86340  0.28670  Biso   1.000  H
  H122     1.0000 0.03200  0.36340  0.21330  Biso   1.000  H
  H123     1.0000 0.53200  0.13660  0.71330  Biso   1.000  H
  H124     1.0000 0.96800  0.63660  0.78670  Biso   1.000  H
  H125     1.0000 0.49700  0.94560  0.29810  Biso   1.000  H
  H126     1.0000 0.00300  0.44560  0.20190  Biso   1.000  H
  H127     1.0000 0.50300  0.05440  0.70190  Biso   1.000  H
  H128     1.0000 0.99700  0.55440  0.79810  Biso   1.000  H
  O41      1.0000 0.55130  0.77581  0.24149  Biso   1.000  O
  O42      1.0000 0.94870  0.27581  0.25851  Biso   1.000  O
  O43      1.0000 0.44870  0.22419  0.75851  Biso   1.000  O
  O44      1.0000 0.05130  0.72419  0.74149  Biso   1.000  O
  H129     1.0000 0.48500  0.77500  0.21260  Biso   1.000  H
  H130     1.0000 0.01500  0.27500  0.28740  Biso   1.000  H
  H131     1.0000 0.51500  0.22500  0.78740  Biso   1.000  H
  H132     1.0000 0.98500  0.72500  0.71260  Biso   1.000  H
  H133     1.0000 0.58600  0.72710  0.25030  Biso   1.000  H
  H134     1.0000 0.91400  0.22710  0.24970  Biso   1.000  H
  H135     1.0000 0.41400  0.27290  0.74970  Biso   1.000  H
  H136     1.0000 0.08600  0.77290  0.75030  Biso   1.000  H
