data_image0
_cell_length_a       14.624
_cell_length_b       11.361
_cell_length_c       17.4
_cell_angle_alpha    90
_cell_angle_beta     94.216
_cell_angle_gamma    90

_symmetry_space_group_name_H-M    "P 1"
_symmetry_int_tables_number       1

loop_
  _symmetry_equiv_pos_as_xyz
  'x, y, z'

loop_
  _atom_site_label
  _atom_site_occupancy
  _atom_site_fract_x
  _atom_site_fract_y
  _atom_site_fract_z
  _atom_site_thermal_displace_type
  _atom_site_B_iso_or_equiv
  _atom_site_type_symbol
  Cu1      1.0000 0.25000  0.75000  0.50000  Biso   1.000  Cu
  Cu2      1.0000 0.75000  0.75000  0.00000  Biso   1.000  Cu
  Cu3      1.0000 0.75000  0.25000  0.50000  Biso   1.000  Cu
  Cu4      1.0000 0.25000  0.25000  0.00000  Biso   1.000  Cu
  O1       1.0000 0.29392  0.75640  0.61129  Biso   1.000  O
  O2       1.0000 0.70608  0.75640  0.88871  Biso   1.000  O
  O3       1.0000 0.79392  0.25640  0.61129  Biso   1.000  O
  O4       1.0000 0.20608  0.25640  0.88871  Biso   1.000  O
  O5       1.0000 0.70608  0.24360  0.38871  Biso   1.000  O
  O6       1.0000 0.29392  0.24360  0.11129  Biso   1.000  O
  O7       1.0000 0.20608  0.74360  0.38871  Biso   1.000  O
  O8       1.0000 0.79392  0.74360  0.11129  Biso   1.000  O
  O9       1.0000 0.44142  0.79890  0.60096  Biso   1.000  O
  O10      1.0000 0.55858  0.79890  0.89904  Biso   1.000  O
  O11      1.0000 0.94142  0.29890  0.60096  Biso   1.000  O
  O12      1.0000 0.05858  0.29890  0.89904  Biso   1.000  O
  O13      1.0000 0.55858  0.20110  0.39904  Biso   1.000  O
  O14      1.0000 0.44142  0.20110  0.10096  Biso   1.000  O
  O15      1.0000 0.05858  0.70110  0.39904  Biso   1.000  O
  O16      1.0000 0.94142  0.70110  0.10096  Biso   1.000  O
  O17      1.0000 0.26156  0.32650  0.63691  Biso   1.000  O
  O18      1.0000 0.73844  0.32650  0.86309  Biso   1.000  O
  O19      1.0000 0.76156  0.82650  0.63691  Biso   1.000  O
  O20      1.0000 0.23844  0.82650  0.86309  Biso   1.000  O
  O21      1.0000 0.73844  0.67350  0.36309  Biso   1.000  O
  O22      1.0000 0.26156  0.67350  0.13691  Biso   1.000  O
  O23      1.0000 0.23844  0.17350  0.36309  Biso   1.000  O
  O24      1.0000 0.76156  0.17350  0.13691  Biso   1.000  O
  O25      1.0000 0.10950  0.65500  0.54661  Biso   1.000  O
  O26      1.0000 0.89050  0.65500  0.95339  Biso   1.000  O
  O27      1.0000 0.60950  0.15500  0.54661  Biso   1.000  O
  O28      1.0000 0.39050  0.15500  0.95339  Biso   1.000  O
  O29      1.0000 0.89050  0.34500  0.45339  Biso   1.000  O
  O30      1.0000 0.10950  0.34500  0.04661  Biso   1.000  O
  O31      1.0000 0.39050  0.84500  0.45339  Biso   1.000  O
  O32      1.0000 0.60950  0.84500  0.04661  Biso   1.000  O
  H1       1.0000 0.08530  0.66270  0.49970  Biso   1.000  H
  H2       1.0000 0.91470  0.66270  0.00030  Biso   1.000  H
  H3       1.0000 0.58530  0.16270  0.49970  Biso   1.000  H
  H4       1.0000 0.41470  0.16270  0.00030  Biso   1.000  H
  H5       1.0000 0.91470  0.33730  0.50030  Biso   1.000  H
  H6       1.0000 0.08530  0.33730  0.99970  Biso   1.000  H
  H7       1.0000 0.41470  0.83730  0.50030  Biso   1.000  H
  H8       1.0000 0.58530  0.83730  0.99970  Biso   1.000  H
  H9       1.0000 0.10910  0.58110  0.55960  Biso   1.000  H
  H10      1.0000 0.89090  0.58110  0.94040  Biso   1.000  H
  H11      1.0000 0.60910  0.08110  0.55960  Biso   1.000  H
  H12      1.0000 0.39090  0.08110  0.94040  Biso   1.000  H
  H13      1.0000 0.89090  0.41890  0.44040  Biso   1.000  H
  H14      1.0000 0.10910  0.41890  0.05960  Biso   1.000  H
  H15      1.0000 0.39090  0.91890  0.44040  Biso   1.000  H
  H16      1.0000 0.60910  0.91890  0.05960  Biso   1.000  H
  N1       1.0000 0.31660  0.59650  0.48972  Biso   1.000  N
  N2       1.0000 0.68340  0.59650  0.01028  Biso   1.000  N
  N3       1.0000 0.81660  0.09650  0.48972  Biso   1.000  N
  N4       1.0000 0.18340  0.09650  0.01028  Biso   1.000  N
  N5       1.0000 0.68340  0.40350  0.51028  Biso   1.000  N
  N6       1.0000 0.31660  0.40350  0.98972  Biso   1.000  N
  N7       1.0000 0.18340  0.90350  0.51028  Biso   1.000  N
  N8       1.0000 0.81660  0.90350  0.98972  Biso   1.000  N
  N9       1.0000 0.35080  0.19650  0.58048  Biso   1.000  N
  N10      1.0000 0.64920  0.19650  0.91952  Biso   1.000  N
  N11      1.0000 0.85080  0.69650  0.58048  Biso   1.000  N
  N12      1.0000 0.14920  0.69650  0.91952  Biso   1.000  N
  N13      1.0000 0.64920  0.80350  0.41952  Biso   1.000  N
  N14      1.0000 0.35080  0.80350  0.08048  Biso   1.000  N
  N15      1.0000 0.14920  0.30350  0.41952  Biso   1.000  N
  N16      1.0000 0.85080  0.30350  0.08048  Biso   1.000  N
  H17      1.0000 0.39070  0.18430  0.54580  Biso   1.000  H
  H18      1.0000 0.60930  0.18430  0.95420  Biso   1.000  H
  H19      1.0000 0.89070  0.68430  0.54580  Biso   1.000  H
  H20      1.0000 0.10930  0.68430  0.95420  Biso   1.000  H
  H21      1.0000 0.60930  0.81570  0.45420  Biso   1.000  H
  H22      1.0000 0.39070  0.81570  0.04580  Biso   1.000  H
  H23      1.0000 0.10930  0.31570  0.45420  Biso   1.000  H
  H24      1.0000 0.89070  0.31570  0.04580  Biso   1.000  H
  C1       1.0000 0.37570  0.77210  0.63890  Biso   1.000  C
  C2       1.0000 0.62430  0.77210  0.86110  Biso   1.000  C
  C3       1.0000 0.87570  0.27210  0.63890  Biso   1.000  C
  C4       1.0000 0.12430  0.27210  0.86110  Biso   1.000  C
  C5       1.0000 0.62430  0.22790  0.36110  Biso   1.000  C
  C6       1.0000 0.37570  0.22790  0.13890  Biso   1.000  C
  C7       1.0000 0.12430  0.72790  0.36110  Biso   1.000  C
  C8       1.0000 0.87570  0.72790  0.13890  Biso   1.000  C
  C9       1.0000 0.39540  0.75340  0.72570  Biso   1.000  C
  C10      1.0000 0.60460  0.75340  0.77430  Biso   1.000  C
  C11      1.0000 0.89540  0.25340  0.72570  Biso   1.000  C
  C12      1.0000 0.10460  0.25340  0.77430  Biso   1.000  C
  C13      1.0000 0.60460  0.24660  0.27430  Biso   1.000  C
  C14      1.0000 0.39540  0.24660  0.22570  Biso   1.000  C
  C15      1.0000 0.10460  0.74660  0.27430  Biso   1.000  C
  C16      1.0000 0.89540  0.74660  0.22570  Biso   1.000  C
  H25      1.0000 0.42870  0.82240  0.74860  Biso   1.000  H
  H26      1.0000 0.57130  0.82240  0.75140  Biso   1.000  H
  H27      1.0000 0.92870  0.32240  0.74860  Biso   1.000  H
  H28      1.0000 0.07130  0.32240  0.75140  Biso   1.000  H
  H29      1.0000 0.57130  0.17760  0.25140  Biso   1.000  H
  H30      1.0000 0.42870  0.17760  0.24860  Biso   1.000  H
  H31      1.0000 0.07130  0.67760  0.25140  Biso   1.000  H
  H32      1.0000 0.92870  0.67760  0.24860  Biso   1.000  H
  H33      1.0000 0.33700  0.74540  0.75060  Biso   1.000  H
  H34      1.0000 0.66300  0.74540  0.74940  Biso   1.000  H
  H35      1.0000 0.83700  0.24540  0.75060  Biso   1.000  H
  H36      1.0000 0.16300  0.24540  0.74940  Biso   1.000  H
  H37      1.0000 0.66300  0.25460  0.24940  Biso   1.000  H
  H38      1.0000 0.33700  0.25460  0.25060  Biso   1.000  H
  H39      1.0000 0.16300  0.75460  0.24940  Biso   1.000  H
  H40      1.0000 0.83700  0.75460  0.25060  Biso   1.000  H
  C17      1.0000 0.45260  0.64360  0.73980  Biso   1.000  C
  C18      1.0000 0.54740  0.64360  0.76020  Biso   1.000  C
  C19      1.0000 0.95260  0.14360  0.73980  Biso   1.000  C
  C20      1.0000 0.04740  0.14360  0.76020  Biso   1.000  C
  C21      1.0000 0.54740  0.35640  0.26020  Biso   1.000  C
  C22      1.0000 0.45260  0.35640  0.23980  Biso   1.000  C
  C23      1.0000 0.04740  0.85640  0.26020  Biso   1.000  C
  C24      1.0000 0.95260  0.85640  0.23980  Biso   1.000  C
  C25      1.0000 0.40740  0.53590  0.73000  Biso   1.000  C
  C26      1.0000 0.59260  0.53590  0.77000  Biso   1.000  C
  C27      1.0000 0.90740  0.03590  0.73000  Biso   1.000  C
  C28      1.0000 0.09260  0.03590  0.77000  Biso   1.000  C
  C29      1.0000 0.59260  0.46410  0.27000  Biso   1.000  C
  C30      1.0000 0.40740  0.46410  0.23000  Biso   1.000  C
  C31      1.0000 0.09260  0.96410  0.27000  Biso   1.000  C
  C32      1.0000 0.90740  0.96410  0.23000  Biso   1.000  C
  H41      1.0000 0.34330  0.53530  0.71620  Biso   1.000  H
  H42      1.0000 0.65670  0.53530  0.78380  Biso   1.000  H
  H43      1.0000 0.84330  0.03530  0.71620  Biso   1.000  H
  H44      1.0000 0.15670  0.03530  0.78380  Biso   1.000  H
  H45      1.0000 0.65670  0.46470  0.28380  Biso   1.000  H
  H46      1.0000 0.34330  0.46470  0.21620  Biso   1.000  H
  H47      1.0000 0.15670  0.96470  0.28380  Biso   1.000  H
  H48      1.0000 0.84330  0.96470  0.21620  Biso   1.000  H
  C33      1.0000 0.45330  0.43000  0.73990  Biso   1.000  C
  C34      1.0000 0.54670  0.43000  0.76010  Biso   1.000  C
  C35      1.0000 0.95330  0.93000  0.73990  Biso   1.000  C
  C36      1.0000 0.04670  0.93000  0.76010  Biso   1.000  C
  C37      1.0000 0.54670  0.57000  0.26010  Biso   1.000  C
  C38      1.0000 0.45330  0.57000  0.23990  Biso   1.000  C
  C39      1.0000 0.04670  0.07000  0.26010  Biso   1.000  C
  C40      1.0000 0.95330  0.07000  0.23990  Biso   1.000  C
  H49      1.0000 0.42100  0.35780  0.73290  Biso   1.000  H
  H50      1.0000 0.57900  0.35780  0.76710  Biso   1.000  H
  H51      1.0000 0.92100  0.85780  0.73290  Biso   1.000  H
  H52      1.0000 0.07900  0.85780  0.76710  Biso   1.000  H
  H53      1.0000 0.57900  0.64220  0.26710  Biso   1.000  H
  H54      1.0000 0.42100  0.64220  0.23290  Biso   1.000  H
  H55      1.0000 0.07900  0.14220  0.26710  Biso   1.000  H
  H56      1.0000 0.92100  0.14220  0.23290  Biso   1.000  H
  C41      1.0000 0.30230  0.50810  0.53860  Biso   1.000  C
  C42      1.0000 0.69770  0.50810  0.96140  Biso   1.000  C
  C43      1.0000 0.80230  0.00810  0.53860  Biso   1.000  C
  C44      1.0000 0.19770  0.00810  0.96140  Biso   1.000  C
  C45      1.0000 0.69770  0.49190  0.46140  Biso   1.000  C
  C46      1.0000 0.30230  0.49190  0.03860  Biso   1.000  C
  C47      1.0000 0.19770  0.99190  0.46140  Biso   1.000  C
  C48      1.0000 0.80230  0.99190  0.03860  Biso   1.000  C
  H57      1.0000 0.26280  0.52130  0.57880  Biso   1.000  H
  H58      1.0000 0.73720  0.52130  0.92120  Biso   1.000  H
  H59      1.0000 0.76280  0.02130  0.57880  Biso   1.000  H
  H60      1.0000 0.23720  0.02130  0.92120  Biso   1.000  H
  H61      1.0000 0.73720  0.47870  0.42120  Biso   1.000  H
  H62      1.0000 0.26280  0.47870  0.07880  Biso   1.000  H
  H63      1.0000 0.23720  0.97870  0.42120  Biso   1.000  H
  H64      1.0000 0.76280  0.97870  0.07880  Biso   1.000  H
  C49      1.0000 0.34300  0.39780  0.53300  Biso   1.000  C
  C50      1.0000 0.65700  0.39780  0.96700  Biso   1.000  C
  C51      1.0000 0.84300  0.89780  0.53300  Biso   1.000  C
  C52      1.0000 0.15700  0.89780  0.96700  Biso   1.000  C
  C53      1.0000 0.65700  0.60220  0.46700  Biso   1.000  C
  C54      1.0000 0.34300  0.60220  0.03300  Biso   1.000  C
  C55      1.0000 0.15700  0.10220  0.46700  Biso   1.000  C
  C56      1.0000 0.84300  0.10220  0.03300  Biso   1.000  C
  C57      1.0000 0.40480  0.38230  0.47710  Biso   1.000  C
  C58      1.0000 0.59520  0.38230  0.02290  Biso   1.000  C
  C59      1.0000 0.90480  0.88230  0.47710  Biso   1.000  C
  C60      1.0000 0.09520  0.88230  0.02290  Biso   1.000  C
  C61      1.0000 0.59520  0.61770  0.52290  Biso   1.000  C
  C62      1.0000 0.40480  0.61770  0.97710  Biso   1.000  C
  C63      1.0000 0.09520  0.11770  0.52290  Biso   1.000  C
  C64      1.0000 0.90480  0.11770  0.97710  Biso   1.000  C
  H65      1.0000 0.43610  0.30950  0.47300  Biso   1.000  H
  H66      1.0000 0.56390  0.30950  0.02700  Biso   1.000  H
  H67      1.0000 0.93610  0.80950  0.47300  Biso   1.000  H
  H68      1.0000 0.06390  0.80950  0.02700  Biso   1.000  H
  H69      1.0000 0.56390  0.69050  0.52700  Biso   1.000  H
  H70      1.0000 0.43610  0.69050  0.97300  Biso   1.000  H
  H71      1.0000 0.06390  0.19050  0.52700  Biso   1.000  H
  H72      1.0000 0.93610  0.19050  0.97300  Biso   1.000  H
  C65      1.0000 0.42040  0.47350  0.42770  Biso   1.000  C
  C66      1.0000 0.57960  0.47350  0.07230  Biso   1.000  C
  C67      1.0000 0.92040  0.97350  0.42770  Biso   1.000  C
  C68      1.0000 0.07960  0.97350  0.07230  Biso   1.000  C
  C69      1.0000 0.57960  0.52650  0.57230  Biso   1.000  C
  C70      1.0000 0.42040  0.52650  0.92770  Biso   1.000  C
  C71      1.0000 0.07960  0.02650  0.57230  Biso   1.000  C
  C72      1.0000 0.92040  0.02650  0.92770  Biso   1.000  C
  H73      1.0000 0.46230  0.46390  0.38890  Biso   1.000  H
  H74      1.0000 0.53770  0.46390  0.11110  Biso   1.000  H
  H75      1.0000 0.96230  0.96390  0.38890  Biso   1.000  H
  H76      1.0000 0.03770  0.96390  0.11110  Biso   1.000  H
  H77      1.0000 0.53770  0.53610  0.61110  Biso   1.000  H
  H78      1.0000 0.46230  0.53610  0.88890  Biso   1.000  H
  H79      1.0000 0.03770  0.03610  0.61110  Biso   1.000  H
  H80      1.0000 0.96230  0.03610  0.88890  Biso   1.000  H
  C73      1.0000 0.37480  0.57900  0.43450  Biso   1.000  C
  C74      1.0000 0.62520  0.57900  0.06550  Biso   1.000  C
  C75      1.0000 0.87480  0.07900  0.43450  Biso   1.000  C
  C76      1.0000 0.12520  0.07900  0.06550  Biso   1.000  C
  C77      1.0000 0.62520  0.42100  0.56550  Biso   1.000  C
  C78      1.0000 0.37480  0.42100  0.93450  Biso   1.000  C
  C79      1.0000 0.12520  0.92100  0.56550  Biso   1.000  C
  C80      1.0000 0.87480  0.92100  0.93450  Biso   1.000  C
  H81      1.0000 0.38490  0.64080  0.39930  Biso   1.000  H
  H82      1.0000 0.61510  0.64080  0.10070  Biso   1.000  H
  H83      1.0000 0.88490  0.14080  0.39930  Biso   1.000  H
  H84      1.0000 0.11510  0.14080  0.10070  Biso   1.000  H
  H85      1.0000 0.61510  0.35920  0.60070  Biso   1.000  H
  H86      1.0000 0.38490  0.35920  0.89930  Biso   1.000  H
  H87      1.0000 0.11510  0.85920  0.60070  Biso   1.000  H
  H88      1.0000 0.88490  0.85920  0.89930  Biso   1.000  H
  C81      1.0000 0.31610  0.30420  0.58760  Biso   1.000  C
  C82      1.0000 0.68390  0.30420  0.91240  Biso   1.000  C
  C83      1.0000 0.81610  0.80420  0.58760  Biso   1.000  C
  C84      1.0000 0.18390  0.80420  0.91240  Biso   1.000  C
  C85      1.0000 0.68390  0.69580  0.41240  Biso   1.000  C
  C86      1.0000 0.31610  0.69580  0.08760  Biso   1.000  C
  C87      1.0000 0.18390  0.19580  0.41240  Biso   1.000  C
  C88      1.0000 0.81610  0.19580  0.08760  Biso   1.000  C
  C89      1.0000 0.32470  0.09800  0.62830  Biso   1.000  C
  C90      1.0000 0.67530  0.09800  0.87170  Biso   1.000  C
  C91      1.0000 0.82470  0.59800  0.62830  Biso   1.000  C
  C92      1.0000 0.17530  0.59800  0.87170  Biso   1.000  C
  C93      1.0000 0.67530  0.90200  0.37170  Biso   1.000  C
  C94      1.0000 0.32470  0.90200  0.12830  Biso   1.000  C
  C95      1.0000 0.17530  0.40200  0.37170  Biso   1.000  C
  C96      1.0000 0.82470  0.40200  0.12830  Biso   1.000  C
  H89      1.0000 0.33920  0.02340  0.60240  Biso   1.000  H
  H90      1.0000 0.66080  0.02340  0.89760  Biso   1.000  H
  H91      1.0000 0.83920  0.52340  0.60240  Biso   1.000  H
  H92      1.0000 0.16080  0.52340  0.89760  Biso   1.000  H
  H93      1.0000 0.66080  0.97660  0.39760  Biso   1.000  H
  H94      1.0000 0.33920  0.97660  0.10240  Biso   1.000  H
  H95      1.0000 0.16080  0.47660  0.39760  Biso   1.000  H
  H96      1.0000 0.83920  0.47660  0.10240  Biso   1.000  H
  H97      1.0000 0.25760  0.10040  0.63250  Biso   1.000  H
  H98      1.0000 0.74240  0.10040  0.86750  Biso   1.000  H
  H99      1.0000 0.75760  0.60040  0.63250  Biso   1.000  H
  H100     1.0000 0.24240  0.60040  0.86750  Biso   1.000  H
  H101     1.0000 0.74240  0.89960  0.36750  Biso   1.000  H
  H102     1.0000 0.25760  0.89960  0.13250  Biso   1.000  H
  H103     1.0000 0.24240  0.39960  0.36750  Biso   1.000  H
  H104     1.0000 0.75760  0.39960  0.13250  Biso   1.000  H
  C97      1.0000 0.37260  0.09810  0.70920  Biso   1.000  C
  C98      1.0000 0.62740  0.09810  0.79080  Biso   1.000  C
  C99      1.0000 0.87260  0.59810  0.70920  Biso   1.000  C
  C100     1.0000 0.12740  0.59810  0.79080  Biso   1.000  C
  C101     1.0000 0.62740  0.90190  0.29080  Biso   1.000  C
  C102     1.0000 0.37260  0.90190  0.20920  Biso   1.000  C
  C103     1.0000 0.12740  0.40190  0.29080  Biso   1.000  C
  C104     1.0000 0.87260  0.40190  0.20920  Biso   1.000  C
  H105     1.0000 0.35410  0.16950  0.73670  Biso   1.000  H
  H106     1.0000 0.64590  0.16950  0.76330  Biso   1.000  H
  H107     1.0000 0.85410  0.66950  0.73670  Biso   1.000  H
  H108     1.0000 0.14590  0.66950  0.76330  Biso   1.000  H
  H109     1.0000 0.64590  0.83050  0.26330  Biso   1.000  H
  H110     1.0000 0.35410  0.83050  0.23670  Biso   1.000  H
  H111     1.0000 0.14590  0.33050  0.26330  Biso   1.000  H
  H112     1.0000 0.85410  0.33050  0.23670  Biso   1.000  H
  H113     1.0000 0.35170  0.02880  0.73760  Biso   1.000  H
  H114     1.0000 0.64830  0.02880  0.76240  Biso   1.000  H
  H115     1.0000 0.85170  0.52880  0.73760  Biso   1.000  H
  H116     1.0000 0.14830  0.52880  0.76240  Biso   1.000  H
  H117     1.0000 0.64830  0.97120  0.26240  Biso   1.000  H
  H118     1.0000 0.35170  0.97120  0.23760  Biso   1.000  H
  H119     1.0000 0.14830  0.47120  0.26240  Biso   1.000  H
  H120     1.0000 0.85170  0.47120  0.23760  Biso   1.000  H
  C105     1.0000 0.47630  0.09510  0.70980  Biso   1.000  C
  C106     1.0000 0.52370  0.09510  0.79020  Biso   1.000  C
  C107     1.0000 0.97630  0.59510  0.70980  Biso   1.000  C
  C108     1.0000 0.02370  0.59510  0.79020  Biso   1.000  C
  C109     1.0000 0.52370  0.90490  0.29020  Biso   1.000  C
  C110     1.0000 0.47630  0.90490  0.20980  Biso   1.000  C
  C111     1.0000 0.02370  0.40490  0.29020  Biso   1.000  C
  C112     1.0000 0.97630  0.40490  0.20980  Biso   1.000  C
  H121     1.0000 0.49490  0.02370  0.68220  Biso   1.000  H
  H122     1.0000 0.50510  0.02370  0.81780  Biso   1.000  H
  H123     1.0000 0.99490  0.52370  0.68220  Biso   1.000  H
  H124     1.0000 0.00510  0.52370  0.81780  Biso   1.000  H
  H125     1.0000 0.50510  0.97630  0.31780  Biso   1.000  H
  H126     1.0000 0.49490  0.97630  0.18220  Biso   1.000  H
  H127     1.0000 0.00510  0.47630  0.31780  Biso   1.000  H
  H128     1.0000 0.99490  0.47630  0.18220  Biso   1.000  H
  H129     1.0000 0.49720  0.16450  0.68140  Biso   1.000  H
  H130     1.0000 0.50280  0.16450  0.81860  Biso   1.000  H
  H131     1.0000 0.99720  0.66450  0.68140  Biso   1.000  H
  H132     1.0000 0.00280  0.66450  0.81860  Biso   1.000  H
  H133     1.0000 0.50280  0.83550  0.31860  Biso   1.000  H
  H134     1.0000 0.49720  0.83550  0.18140  Biso   1.000  H
  H135     1.0000 0.00280  0.33550  0.31860  Biso   1.000  H
  H136     1.0000 0.99720  0.33550  0.18140  Biso   1.000  H
  O33      1.0000 0.59748  0.91120  0.57171  Biso   1.000  O
  O34      1.0000 0.40252  0.91120  0.92829  Biso   1.000  O
  O35      1.0000 0.09748  0.41120  0.57171  Biso   1.000  O
  O36      1.0000 0.90252  0.41120  0.92829  Biso   1.000  O
  O37      1.0000 0.40252  0.08880  0.42829  Biso   1.000  O
  O38      1.0000 0.59748  0.08880  0.07171  Biso   1.000  O
  O39      1.0000 0.90252  0.58880  0.42829  Biso   1.000  O
  O40      1.0000 0.09748  0.58880  0.07171  Biso   1.000  O
  H137     1.0000 0.54910  0.88170  0.59070  Biso   1.000  H
  H138     1.0000 0.45090  0.88170  0.90930  Biso   1.000  H
  H139     1.0000 0.04910  0.38170  0.59070  Biso   1.000  H
  H140     1.0000 0.95090  0.38170  0.90930  Biso   1.000  H
  H141     1.0000 0.45090  0.11830  0.40930  Biso   1.000  H
  H142     1.0000 0.54910  0.11830  0.09070  Biso   1.000  H
  H143     1.0000 0.95090  0.61830  0.40930  Biso   1.000  H
  H144     1.0000 0.04910  0.61830  0.09070  Biso   1.000  H
  H145     1.0000 0.64330  0.88190  0.60020  Biso   1.000  H
  H146     1.0000 0.35670  0.88190  0.89980  Biso   1.000  H
  H147     1.0000 0.14330  0.38190  0.60020  Biso   1.000  H
  H148     1.0000 0.85670  0.38190  0.89980  Biso   1.000  H
  H149     1.0000 0.35670  0.11810  0.39980  Biso   1.000  H
  H150     1.0000 0.64330  0.11810  0.10020  Biso   1.000  H
  H151     1.0000 0.85670  0.61810  0.39980  Biso   1.000  H
  H152     1.0000 0.14330  0.61810  0.10020  Biso   1.000  H
