data_image0
_cell_length_a       14.702
_cell_length_b       14.702
_cell_length_c       13.47
_cell_angle_alpha    90
_cell_angle_beta     90
_cell_angle_gamma    90

_symmetry_space_group_name_H-M    "P 1"
_symmetry_int_tables_number       1

loop_
  _symmetry_equiv_pos_as_xyz
  'x, y, z'

loop_
  _atom_site_label
  _atom_site_occupancy
  _atom_site_fract_x
  _atom_site_fract_y
  _atom_site_fract_z
  _atom_site_thermal_displace_type
  _atom_site_B_iso_or_equiv
  _atom_site_type_symbol
  Cu1      1.0000 0.57780  0.29933  0.13096  Biso   1.000  Cu
  Cu2      1.0000 0.45067  0.82780  0.38096  Biso   1.000  Cu
  Cu3      1.0000 0.92220  0.70067  0.63096  Biso   1.000  Cu
  Cu4      1.0000 0.04933  0.17220  0.88096  Biso   1.000  Cu
  Cu5      1.0000 0.07780  0.79933  0.63096  Biso   1.000  Cu
  Cu6      1.0000 0.95067  0.32780  0.88096  Biso   1.000  Cu
  Cu7      1.0000 0.42220  0.20067  0.13096  Biso   1.000  Cu
  Cu8      1.0000 0.54933  0.67220  0.38096  Biso   1.000  Cu
  Cu9      1.0000 0.42220  0.70067  0.86904  Biso   1.000  Cu
  Cu10     1.0000 0.04933  0.67220  0.11904  Biso   1.000  Cu
  Cu11     1.0000 0.07780  0.29933  0.36904  Biso   1.000  Cu
  Cu12     1.0000 0.45067  0.32780  0.61904  Biso   1.000  Cu
  Cu13     1.0000 0.92220  0.20067  0.36904  Biso   1.000  Cu
  Cu14     1.0000 0.54933  0.17220  0.61904  Biso   1.000  Cu
  Cu15     1.0000 0.57780  0.79933  0.86904  Biso   1.000  Cu
  Cu16     1.0000 0.95067  0.82780  0.11904  Biso   1.000  Cu
  O1       1.0000 0.62090  0.21630  0.23160  Biso   1.000  O
  O2       1.0000 0.53370  0.87090  0.48160  Biso   1.000  O
  O3       1.0000 0.87910  0.78370  0.73160  Biso   1.000  O
  O4       1.0000 0.96630  0.12910  0.98160  Biso   1.000  O
  O5       1.0000 0.12090  0.71630  0.73160  Biso   1.000  O
  O6       1.0000 0.03370  0.37090  0.98160  Biso   1.000  O
  O7       1.0000 0.37910  0.28370  0.23160  Biso   1.000  O
  O8       1.0000 0.46630  0.62910  0.48160  Biso   1.000  O
  O9       1.0000 0.37910  0.78370  0.76840  Biso   1.000  O
  O10      1.0000 0.96630  0.62910  0.01840  Biso   1.000  O
  O11      1.0000 0.12090  0.21630  0.26840  Biso   1.000  O
  O12      1.0000 0.53370  0.37090  0.51840  Biso   1.000  O
  O13      1.0000 0.87910  0.28370  0.26840  Biso   1.000  O
  O14      1.0000 0.46630  0.12910  0.51840  Biso   1.000  O
  O15      1.0000 0.62090  0.71630  0.76840  Biso   1.000  O
  O16      1.0000 0.03370  0.87090  0.01840  Biso   1.000  O
  O17      1.0000 0.49290  0.13150  0.23670  Biso   1.000  O
  O18      1.0000 0.61850  0.74290  0.48670  Biso   1.000  O
  O19      1.0000 0.00710  0.86850  0.73670  Biso   1.000  O
  O20      1.0000 0.88150  0.25710  0.98670  Biso   1.000  O
  O21      1.0000 0.99290  0.63150  0.73670  Biso   1.000  O
  O22      1.0000 0.11850  0.24290  0.98670  Biso   1.000  O
  O23      1.0000 0.50710  0.36850  0.23670  Biso   1.000  O
  O24      1.0000 0.38150  0.75710  0.48670  Biso   1.000  O
  O25      1.0000 0.50710  0.86850  0.76330  Biso   1.000  O
  O26      1.0000 0.88150  0.75710  0.01330  Biso   1.000  O
  O27      1.0000 0.99290  0.13150  0.26330  Biso   1.000  O
  O28      1.0000 0.61850  0.24290  0.51330  Biso   1.000  O
  O29      1.0000 0.00710  0.36850  0.26330  Biso   1.000  O
  O30      1.0000 0.38150  0.25710  0.51330  Biso   1.000  O
  O31      1.0000 0.49290  0.63150  0.76330  Biso   1.000  O
  O32      1.0000 0.11850  0.74290  0.01330  Biso   1.000  O
  N1       1.0000 0.78870  0.13220  0.36610  Biso   1.000  N
  N2       1.0000 0.61780  0.03870  0.61610  Biso   1.000  N
  N3       1.0000 0.71130  0.86780  0.86610  Biso   1.000  N
  N4       1.0000 0.88220  0.96130  0.11610  Biso   1.000  N
  N5       1.0000 0.28870  0.63220  0.86610  Biso   1.000  N
  N6       1.0000 0.11780  0.53870  0.11610  Biso   1.000  N
  N7       1.0000 0.21130  0.36780  0.36610  Biso   1.000  N
  N8       1.0000 0.38220  0.46130  0.61610  Biso   1.000  N
  N9       1.0000 0.21130  0.86780  0.63390  Biso   1.000  N
  N10      1.0000 0.88220  0.46130  0.88390  Biso   1.000  N
  N11      1.0000 0.28870  0.13220  0.13390  Biso   1.000  N
  N12      1.0000 0.61780  0.53870  0.38390  Biso   1.000  N
  N13      1.0000 0.71130  0.36780  0.13390  Biso   1.000  N
  N14      1.0000 0.38220  0.96130  0.38390  Biso   1.000  N
  N15      1.0000 0.78870  0.63220  0.63390  Biso   1.000  N
  N16      1.0000 0.11780  0.03870  0.88390  Biso   1.000  N
  C1       1.0000 0.57350  0.15120  0.26200  Biso   1.000  C
  C2       1.0000 0.59880  0.82350  0.51200  Biso   1.000  C
  C3       1.0000 0.92650  0.84880  0.76200  Biso   1.000  C
  C4       1.0000 0.90120  0.17650  0.01200  Biso   1.000  C
  C5       1.0000 0.07350  0.65120  0.76200  Biso   1.000  C
  C6       1.0000 0.09880  0.32350  0.01200  Biso   1.000  C
  C7       1.0000 0.42650  0.34880  0.26200  Biso   1.000  C
  C8       1.0000 0.40120  0.67650  0.51200  Biso   1.000  C
  C9       1.0000 0.42650  0.84880  0.73800  Biso   1.000  C
  C10      1.0000 0.90120  0.67650  0.98800  Biso   1.000  C
  C11      1.0000 0.07350  0.15120  0.23800  Biso   1.000  C
  C12      1.0000 0.59880  0.32350  0.48800  Biso   1.000  C
  C13      1.0000 0.92650  0.34880  0.23800  Biso   1.000  C
  C14      1.0000 0.40120  0.17650  0.48800  Biso   1.000  C
  C15      1.0000 0.57350  0.65120  0.73800  Biso   1.000  C
  C16      1.0000 0.09880  0.82350  0.98800  Biso   1.000  C
  C17      1.0000 0.61780  0.08960  0.33900  Biso   1.000  C
  C18      1.0000 0.66040  0.86780  0.58900  Biso   1.000  C
  C19      1.0000 0.88220  0.91040  0.83900  Biso   1.000  C
  C20      1.0000 0.83960  0.13220  0.08900  Biso   1.000  C
  C21      1.0000 0.11780  0.58960  0.83900  Biso   1.000  C
  C22      1.0000 0.16040  0.36780  0.08900  Biso   1.000  C
  C23      1.0000 0.38220  0.41040  0.33900  Biso   1.000  C
  C24      1.0000 0.33960  0.63220  0.58900  Biso   1.000  C
  C25      1.0000 0.38220  0.91040  0.66100  Biso   1.000  C
  C26      1.0000 0.83960  0.63220  0.91100  Biso   1.000  C
  C27      1.0000 0.11780  0.08960  0.16100  Biso   1.000  C
  C28      1.0000 0.66040  0.36780  0.41100  Biso   1.000  C
  C29      1.0000 0.88220  0.41040  0.16100  Biso   1.000  C
  C30      1.0000 0.33960  0.13220  0.41100  Biso   1.000  C
  C31      1.0000 0.61780  0.58960  0.66100  Biso   1.000  C
  C32      1.0000 0.16040  0.86780  0.91100  Biso   1.000  C
  H1       1.0000 0.61700  0.01900  0.32300  Biso   1.000  H
  H2       1.0000 0.73100  0.86700  0.57300  Biso   1.000  H
  H3       1.0000 0.88300  0.98100  0.82300  Biso   1.000  H
  H4       1.0000 0.76900  0.13300  0.07300  Biso   1.000  H
  H5       1.0000 0.11700  0.51900  0.82300  Biso   1.000  H
  H6       1.0000 0.23100  0.36700  0.07300  Biso   1.000  H
  H7       1.0000 0.38300  0.48100  0.32300  Biso   1.000  H
  H8       1.0000 0.26900  0.63300  0.57300  Biso   1.000  H
  H9       1.0000 0.38300  0.98100  0.67700  Biso   1.000  H
  H10      1.0000 0.76900  0.63300  0.92700  Biso   1.000  H
  H11      1.0000 0.11700  0.01900  0.17700  Biso   1.000  H
  H12      1.0000 0.73100  0.36700  0.42700  Biso   1.000  H
  H13      1.0000 0.88300  0.48100  0.17700  Biso   1.000  H
  H14      1.0000 0.26900  0.13300  0.42700  Biso   1.000  H
  H15      1.0000 0.61700  0.51900  0.67700  Biso   1.000  H
  H16      1.0000 0.23100  0.86700  0.92700  Biso   1.000  H
  H17      1.0000 0.60200  0.10200  0.38800  Biso   1.000  H
  H18      1.0000 0.64800  0.85200  0.63800  Biso   1.000  H
  H19      1.0000 0.89800  0.89800  0.88800  Biso   1.000  H
  H20      1.0000 0.85200  0.14800  0.13800  Biso   1.000  H
  H21      1.0000 0.10200  0.60200  0.88800  Biso   1.000  H
  H22      1.0000 0.14800  0.35200  0.13800  Biso   1.000  H
  H23      1.0000 0.39800  0.39800  0.38800  Biso   1.000  H
  H24      1.0000 0.35200  0.64800  0.63800  Biso   1.000  H
  H25      1.0000 0.39800  0.89800  0.61200  Biso   1.000  H
  H26      1.0000 0.85200  0.64800  0.86200  Biso   1.000  H
  H27      1.0000 0.10200  0.10200  0.11200  Biso   1.000  H
  H28      1.0000 0.64800  0.35200  0.36200  Biso   1.000  H
  H29      1.0000 0.89800  0.39800  0.11200  Biso   1.000  H
  H30      1.0000 0.35200  0.14800  0.36200  Biso   1.000  H
  H31      1.0000 0.60200  0.60200  0.61200  Biso   1.000  H
  H32      1.0000 0.14800  0.85200  0.86200  Biso   1.000  H
  C33      1.0000 0.71330  0.11360  0.35580  Biso   1.000  C
  C34      1.0000 0.63640  0.96330  0.60580  Biso   1.000  C
  C35      1.0000 0.78670  0.88640  0.85580  Biso   1.000  C
  C36      1.0000 0.86360  0.03670  0.10580  Biso   1.000  C
  C37      1.0000 0.21330  0.61360  0.85580  Biso   1.000  C
  C38      1.0000 0.13640  0.46330  0.10580  Biso   1.000  C
  C39      1.0000 0.28670  0.38640  0.35580  Biso   1.000  C
  C40      1.0000 0.36360  0.53670  0.60580  Biso   1.000  C
  C41      1.0000 0.28670  0.88640  0.64420  Biso   1.000  C
  C42      1.0000 0.86360  0.53670  0.89420  Biso   1.000  C
  C43      1.0000 0.21330  0.11360  0.14420  Biso   1.000  C
  C44      1.0000 0.63640  0.46330  0.39420  Biso   1.000  C
  C45      1.0000 0.78670  0.38640  0.14420  Biso   1.000  C
  C46      1.0000 0.36360  0.03670  0.39420  Biso   1.000  C
  C47      1.0000 0.71330  0.61360  0.64420  Biso   1.000  C
  C48      1.0000 0.13640  0.96330  0.89420  Biso   1.000  C
  O33      1.0000 0.52290  0.37310  0.02920  Biso   1.000  O
  O34      1.0000 0.37690  0.77290  0.27920  Biso   1.000  O
  O35      1.0000 0.97710  0.62690  0.52920  Biso   1.000  O
  O36      1.0000 0.12310  0.22710  0.77920  Biso   1.000  O
  O37      1.0000 0.02290  0.87310  0.52920  Biso   1.000  O
  O38      1.0000 0.87690  0.27290  0.77920  Biso   1.000  O
  O39      1.0000 0.47710  0.12690  0.02920  Biso   1.000  O
  O40      1.0000 0.62310  0.72710  0.27920  Biso   1.000  O
  O41      1.0000 0.47710  0.62690  0.97080  Biso   1.000  O
  O42      1.0000 0.12310  0.72710  0.22080  Biso   1.000  O
  O43      1.0000 0.02290  0.37310  0.47080  Biso   1.000  O
  O44      1.0000 0.37690  0.27290  0.72080  Biso   1.000  O
  O45      1.0000 0.97710  0.12690  0.47080  Biso   1.000  O
  O46      1.0000 0.62310  0.22710  0.72080  Biso   1.000  O
  O47      1.0000 0.52290  0.87310  0.97080  Biso   1.000  O
  O48      1.0000 0.87690  0.77290  0.22080  Biso   1.000  O
  O49      1.0000 0.39250  0.29310  0.02500  Biso   1.000  O
  O50      1.0000 0.45690  0.64250  0.27500  Biso   1.000  O
  O51      1.0000 0.10750  0.70690  0.52500  Biso   1.000  O
  O52      1.0000 0.04310  0.35750  0.77500  Biso   1.000  O
  O53      1.0000 0.89250  0.79310  0.52500  Biso   1.000  O
  O54      1.0000 0.95690  0.14250  0.77500  Biso   1.000  O
  O55      1.0000 0.60750  0.20690  0.02500  Biso   1.000  O
  O56      1.0000 0.54310  0.85750  0.27500  Biso   1.000  O
  O57      1.0000 0.60750  0.70690  0.97500  Biso   1.000  O
  O58      1.0000 0.04310  0.85750  0.22500  Biso   1.000  O
  O59      1.0000 0.89250  0.29310  0.47500  Biso   1.000  O
  O60      1.0000 0.45690  0.14250  0.72500  Biso   1.000  O
  O61      1.0000 0.10750  0.20690  0.47500  Biso   1.000  O
  O62      1.0000 0.54310  0.35750  0.72500  Biso   1.000  O
  O63      1.0000 0.39250  0.79310  0.97500  Biso   1.000  O
  O64      1.0000 0.95690  0.64250  0.22500  Biso   1.000  O
  N17      1.0000 0.24240  0.40330  0.87220  Biso   1.000  N
  N18      1.0000 0.34670  0.49240  0.12220  Biso   1.000  N
  N19      1.0000 0.25760  0.59670  0.37220  Biso   1.000  N
  N20      1.0000 0.15330  0.50760  0.62220  Biso   1.000  N
  N21      1.0000 0.74240  0.90330  0.37220  Biso   1.000  N
  N22      1.0000 0.84670  0.99240  0.62220  Biso   1.000  N
  N23      1.0000 0.75760  0.09670  0.87220  Biso   1.000  N
  N24      1.0000 0.65330  0.00760  0.12220  Biso   1.000  N
  N25      1.0000 0.75760  0.59670  0.12780  Biso   1.000  N
  N26      1.0000 0.15330  0.00760  0.37780  Biso   1.000  N
  N27      1.0000 0.74240  0.40330  0.62780  Biso   1.000  N
  N28      1.0000 0.34670  0.99240  0.87780  Biso   1.000  N
  N29      1.0000 0.25760  0.09670  0.62780  Biso   1.000  N
  N30      1.0000 0.65330  0.50760  0.87780  Biso   1.000  N
  N31      1.0000 0.24240  0.90330  0.12780  Biso   1.000  N
  N32      1.0000 0.84670  0.49240  0.37780  Biso   1.000  N
  C49      1.0000 0.44310  0.35640  0.99760  Biso   1.000  C
  C50      1.0000 0.39360  0.69310  0.24760  Biso   1.000  C
  C51      1.0000 0.05690  0.64360  0.49760  Biso   1.000  C
  C52      1.0000 0.10640  0.30690  0.74760  Biso   1.000  C
  C53      1.0000 0.94310  0.85640  0.49760  Biso   1.000  C
  C54      1.0000 0.89360  0.19310  0.74760  Biso   1.000  C
  C55      1.0000 0.55690  0.14360  0.99760  Biso   1.000  C
  C56      1.0000 0.60640  0.80690  0.24760  Biso   1.000  C
  C57      1.0000 0.55690  0.64360  0.00240  Biso   1.000  C
  C58      1.0000 0.10640  0.80690  0.25240  Biso   1.000  C
  C59      1.0000 0.94310  0.35640  0.50240  Biso   1.000  C
  C60      1.0000 0.39360  0.19310  0.75240  Biso   1.000  C
  C61      1.0000 0.05690  0.14360  0.50240  Biso   1.000  C
  C62      1.0000 0.60640  0.30690  0.75240  Biso   1.000  C
  C63      1.0000 0.44310  0.85640  0.00240  Biso   1.000  C
  C64      1.0000 0.89360  0.69310  0.25240  Biso   1.000  C
  C65      1.0000 0.41210  0.41930  0.91480  Biso   1.000  C
  C66      1.0000 0.33070  0.66210  0.16480  Biso   1.000  C
  C67      1.0000 0.08790  0.58070  0.41480  Biso   1.000  C
  C68      1.0000 0.16930  0.33790  0.66480  Biso   1.000  C
  C69      1.0000 0.91210  0.91930  0.41480  Biso   1.000  C
  C70      1.0000 0.83070  0.16210  0.66480  Biso   1.000  C
  C71      1.0000 0.58790  0.08070  0.91480  Biso   1.000  C
  C72      1.0000 0.66930  0.83790  0.16480  Biso   1.000  C
  C73      1.0000 0.58790  0.58070  0.08520  Biso   1.000  C
  C74      1.0000 0.16930  0.83790  0.33520  Biso   1.000  C
  C75      1.0000 0.91210  0.41930  0.58520  Biso   1.000  C
  C76      1.0000 0.33070  0.16210  0.83520  Biso   1.000  C
  C77      1.0000 0.08790  0.08070  0.58520  Biso   1.000  C
  C78      1.0000 0.66930  0.33790  0.83520  Biso   1.000  C
  C79      1.0000 0.41210  0.91930  0.08520  Biso   1.000  C
  C80      1.0000 0.83070  0.66210  0.33520  Biso   1.000  C
  H33      1.0000 0.45700  0.41800  0.86200  Biso   1.000  H
  H34      1.0000 0.33200  0.70700  0.11200  Biso   1.000  H
  H35      1.0000 0.04300  0.58200  0.36200  Biso   1.000  H
  H36      1.0000 0.16800  0.29300  0.61200  Biso   1.000  H
  H37      1.0000 0.95700  0.91800  0.36200  Biso   1.000  H
  H38      1.0000 0.83200  0.20700  0.61200  Biso   1.000  H
  H39      1.0000 0.54300  0.08200  0.86200  Biso   1.000  H
  H40      1.0000 0.66800  0.79300  0.11200  Biso   1.000  H
  H41      1.0000 0.54300  0.58200  0.13800  Biso   1.000  H
  H42      1.0000 0.16800  0.79300  0.38800  Biso   1.000  H
  H43      1.0000 0.95700  0.41800  0.63800  Biso   1.000  H
  H44      1.0000 0.33200  0.20700  0.88800  Biso   1.000  H
  H45      1.0000 0.04300  0.08200  0.63800  Biso   1.000  H
  H46      1.0000 0.66800  0.29300  0.88800  Biso   1.000  H
  H47      1.0000 0.45700  0.91800  0.13800  Biso   1.000  H
  H48      1.0000 0.83200  0.70700  0.38800  Biso   1.000  H
  H49      1.0000 0.42500  0.47900  0.93800  Biso   1.000  H
  H50      1.0000 0.27100  0.67500  0.18800  Biso   1.000  H
  H51      1.0000 0.07500  0.52100  0.43800  Biso   1.000  H
  H52      1.0000 0.22900  0.32500  0.68800  Biso   1.000  H
  H53      1.0000 0.92500  0.97900  0.43800  Biso   1.000  H
  H54      1.0000 0.77100  0.17500  0.68800  Biso   1.000  H
  H55      1.0000 0.57500  0.02100  0.93800  Biso   1.000  H
  H56      1.0000 0.72900  0.82500  0.18800  Biso   1.000  H
  H57      1.0000 0.57500  0.52100  0.06200  Biso   1.000  H
  H58      1.0000 0.22900  0.82500  0.31200  Biso   1.000  H
  H59      1.0000 0.92500  0.47900  0.56200  Biso   1.000  H
  H60      1.0000 0.27100  0.17500  0.81200  Biso   1.000  H
  H61      1.0000 0.07500  0.02100  0.56200  Biso   1.000  H
  H62      1.0000 0.72900  0.32500  0.81200  Biso   1.000  H
  H63      1.0000 0.42500  0.97900  0.06200  Biso   1.000  H
  H64      1.0000 0.77100  0.67500  0.31200  Biso   1.000  H
  C81      1.0000 0.31690  0.40900  0.89050  Biso   1.000  C
  C82      1.0000 0.34100  0.56690  0.14050  Biso   1.000  C
  C83      1.0000 0.18310  0.59100  0.39050  Biso   1.000  C
  C84      1.0000 0.15900  0.43310  0.64050  Biso   1.000  C
  C85      1.0000 0.81690  0.90900  0.39050  Biso   1.000  C
  C86      1.0000 0.84100  0.06690  0.64050  Biso   1.000  C
  C87      1.0000 0.68310  0.09100  0.89050  Biso   1.000  C
  C88      1.0000 0.65900  0.93310  0.14050  Biso   1.000  C
  C89      1.0000 0.68310  0.59100  0.10950  Biso   1.000  C
  C90      1.0000 0.15900  0.93310  0.35950  Biso   1.000  C
  C91      1.0000 0.81690  0.40900  0.60950  Biso   1.000  C
  C92      1.0000 0.34100  0.06690  0.85950  Biso   1.000  C
  C93      1.0000 0.18310  0.09100  0.60950  Biso   1.000  C
  C94      1.0000 0.65900  0.43310  0.85950  Biso   1.000  C
  C95      1.0000 0.31690  0.90900  0.10950  Biso   1.000  C
  C96      1.0000 0.84100  0.56690  0.35950  Biso   1.000  C
