data_image0
_cell_length_a       9.43
_cell_length_b       9.578
_cell_length_c       16.047
_cell_angle_alpha    91.53
_cell_angle_beta     93.61
_cell_angle_gamma    98.55

_symmetry_space_group_name_H-M    "P 1"
_symmetry_int_tables_number       1

loop_
  _symmetry_equiv_pos_as_xyz
  'x, y, z'

loop_
  _atom_site_label
  _atom_site_occupancy
  _atom_site_fract_x
  _atom_site_fract_y
  _atom_site_fract_z
  _atom_site_thermal_displace_type
  _atom_site_B_iso_or_equiv
  _atom_site_type_symbol
  Cu1      1.0000 0.00000  0.00000  0.00000  Biso   1.000  Cu
  Cu2      1.0000 0.50000  0.00000  0.50000  Biso   1.000  Cu
  O1       1.0000 0.10450  0.18300  0.04120  Biso   1.000  O
  O2       1.0000 0.89550  0.81700  0.95880  Biso   1.000  O
  O3       1.0000 0.81830  0.04480  0.03380  Biso   1.000  O
  O4       1.0000 0.18170  0.95520  0.96620  Biso   1.000  O
  C1       1.0000 0.04300  0.27450  0.07470  Biso   1.000  C
  C2       1.0000 0.95700  0.72550  0.92530  Biso   1.000  C
  C3       1.0000 0.90290  0.27200  0.09230  Biso   1.000  C
  C4       1.0000 0.09710  0.72800  0.90770  Biso   1.000  C
  C5       1.0000 0.80020  0.15590  0.06850  Biso   1.000  C
  C6       1.0000 0.19980  0.84410  0.93150  Biso   1.000  C
  C7       1.0000 0.14850  0.40470  0.10030  Biso   1.000  C
  C8       1.0000 0.85150  0.59530  0.89970  Biso   1.000  C
  F1       1.0000 0.24850  0.38930  0.14560  Biso   1.000  F
  F2       1.0000 0.75150  0.61070  0.85440  Biso   1.000  F
  F3       1.0000 0.10410  0.49610  0.13860  Biso   1.000  F
  F4       1.0000 0.89590  0.50390  0.86140  Biso   1.000  F
  F5       1.0000 0.20130  0.47100  0.04290  Biso   1.000  F
  F6       1.0000 0.79870  0.52900  0.95710  Biso   1.000  F
  C9       1.0000 0.64840  0.16390  0.08940  Biso   1.000  C
  C10      1.0000 0.35160  0.83610  0.91060  Biso   1.000  C
  F7       1.0000 0.62860  0.26240  0.14000  Biso   1.000  F
  F8       1.0000 0.37140  0.73760  0.86000  Biso   1.000  F
  F9       1.0000 0.58700  0.05470  0.11610  Biso   1.000  F
  F10      1.0000 0.41300  0.94530  0.88390  Biso   1.000  F
  F11      1.0000 0.57260  0.18340  0.02460  Biso   1.000  F
  F12      1.0000 0.42740  0.81660  0.97540  Biso   1.000  F
  O5       1.0000 0.34780  0.91890  0.56750  Biso   1.000  O
  O6       1.0000 0.65220  0.08110  0.43250  Biso   1.000  O
  O7       1.0000 0.60530  0.84400  0.51420  Biso   1.000  O
  O8       1.0000 0.39470  0.15600  0.48580  Biso   1.000  O
  C11      1.0000 0.34810  0.80430  0.60590  Biso   1.000  C
  C12      1.0000 0.65190  0.19570  0.39410  Biso   1.000  C
  C13      1.0000 0.45680  0.71770  0.60730  Biso   1.000  C
  C14      1.0000 0.54320  0.28230  0.39270  Biso   1.000  C
  C15      1.0000 0.57630  0.74260  0.56120  Biso   1.000  C
  C16      1.0000 0.42370  0.25740  0.43880  Biso   1.000  C
  C17      1.0000 0.20690  0.76480  0.64920  Biso   1.000  C
  C18      1.0000 0.79310  0.23520  0.35080  Biso   1.000  C
  F13      1.0000 0.21540  0.65500  0.69740  Biso   1.000  F
  F14      1.0000 0.78460  0.34500  0.30260  Biso   1.000  F
  F15      1.0000 0.10150  0.73150  0.59580  Biso   1.000  F
  F16      1.0000 0.89850  0.26850  0.40420  Biso   1.000  F
  F17      1.0000 0.18560  0.86630  0.69900  Biso   1.000  F
  F18      1.0000 0.81440  0.13370  0.30100  Biso   1.000  F
  C19      1.0000 0.68510  0.64400  0.56930  Biso   1.000  C
  C20      1.0000 0.31490  0.35600  0.43070  Biso   1.000  C
  F19      1.0000 0.70180  0.58670  0.50330  Biso   1.000  F
  F20      1.0000 0.29820  0.41330  0.49670  Biso   1.000  F
  F21      1.0000 0.65180  0.54740  0.61260  Biso   1.000  F
  F22      1.0000 0.34820  0.45260  0.38740  Biso   1.000  F
  F23      1.0000 0.80060  0.70110  0.59210  Biso   1.000  F
  F24      1.0000 0.19940  0.29890  0.40790  Biso   1.000  F
  O9       1.0000 0.03900  0.88710  0.12720  Biso   1.000  O
  O10      1.0000 0.96100  0.11290  0.87280  Biso   1.000  O
  N1       1.0000 0.07700  0.87510  0.20340  Biso   1.000  N
  N2       1.0000 0.92300  0.12490  0.79660  Biso   1.000  N
  O11      1.0000 0.34860  0.89680  0.36430  Biso   1.000  O
  O12      1.0000 0.65140  0.10320  0.63570  Biso   1.000  O
  N3       1.0000 0.23360  0.87950  0.31670  Biso   1.000  N
  N4       1.0000 0.76640  0.12050  0.68330  Biso   1.000  N
  C21      1.0000 0.00440  0.82110  0.26310  Biso   1.000  C
  C22      1.0000 0.99560  0.17890  0.73690  Biso   1.000  C
  C23      1.0000 0.85440  0.75410  0.25000  Biso   1.000  C
  C24      1.0000 0.14560  0.24590  0.75000  Biso   1.000  C
  C25      1.0000 0.80520  0.68990  0.17400  Biso   1.000  C
  C26      1.0000 0.19480  0.31010  0.82600  Biso   1.000  C
  C27      1.0000 0.66940  0.61840  0.16040  Biso   1.000  C
  C28      1.0000 0.33060  0.38160  0.83960  Biso   1.000  C
  C29      1.0000 0.57350  0.60710  0.22260  Biso   1.000  C
  C30      1.0000 0.42650  0.39290  0.77740  Biso   1.000  C
  C31      1.0000 0.62350  0.67590  0.29500  Biso   1.000  C
  C32      1.0000 0.37650  0.32410  0.70500  Biso   1.000  C
  C33      1.0000 0.75870  0.74840  0.31170  Biso   1.000  C
  C34      1.0000 0.24130  0.25160  0.68830  Biso   1.000  C
  C35      1.0000 0.23130  0.91890  0.22890  Biso   1.000  C
  C36      1.0000 0.76870  0.08110  0.77110  Biso   1.000  C
  C37      1.0000 0.27070  0.07730  0.22450  Biso   1.000  C
  C38      1.0000 0.72930  0.92270  0.77550  Biso   1.000  C
  C39      1.0000 0.32730  0.83790  0.18210  Biso   1.000  C
  C40      1.0000 0.67270  0.16210  0.81790  Biso   1.000  C
  C41      1.0000 0.09190  0.82010  0.34470  Biso   1.000  C
  C42      1.0000 0.90810  0.17990  0.65530  Biso   1.000  C
  C43      1.0000 0.05530  0.91810  0.41470  Biso   1.000  C
  C44      1.0000 0.94470  0.08190  0.58530  Biso   1.000  C
  C45      1.0000 0.09980  0.67080  0.37420  Biso   1.000  C
  C46      1.0000 0.90020  0.32920  0.62580  Biso   1.000  C
