data_image0
_cell_length_a       9.841
_cell_length_b       8.311
_cell_length_c       21.919
_cell_angle_alpha    90
_cell_angle_beta     101.047
_cell_angle_gamma    90

_symmetry_space_group_name_H-M    "P 1"
_symmetry_int_tables_number       1

loop_
  _symmetry_equiv_pos_as_xyz
  'x, y, z'

loop_
  _atom_site_label
  _atom_site_occupancy
  _atom_site_fract_x
  _atom_site_fract_y
  _atom_site_fract_z
  _atom_site_thermal_displace_type
  _atom_site_B_iso_or_equiv
  _atom_site_type_symbol
  Cu1      1.0000 0.32405  0.25469  0.44455  Biso   1.000  Cu
  Cu2      1.0000 0.17595  0.75469  0.05545  Biso   1.000  Cu
  Cu3      1.0000 0.67595  0.74531  0.55545  Biso   1.000  Cu
  Cu4      1.0000 0.82405  0.24531  0.94455  Biso   1.000  Cu
  N1       1.0000 0.22880  0.35680  0.50511  Biso   1.000  N
  N2       1.0000 0.27120  0.85680  0.99489  Biso   1.000  N
  N3       1.0000 0.77120  0.64320  0.49489  Biso   1.000  N
  N4       1.0000 0.72880  0.14320  0.00511  Biso   1.000  N
  C1       1.0000 0.25720  0.49870  0.53130  Biso   1.000  C
  C2       1.0000 0.24280  0.99870  0.96870  Biso   1.000  C
  C3       1.0000 0.74280  0.50130  0.46870  Biso   1.000  C
  C4       1.0000 0.75720  0.00130  0.03130  Biso   1.000  C
  H1       1.0000 0.32910  0.56730  0.52340  Biso   1.000  H
  H2       1.0000 0.17090  0.06730  0.97660  Biso   1.000  H
  H3       1.0000 0.67090  0.43270  0.47660  Biso   1.000  H
  H4       1.0000 0.82910  0.93270  0.02340  Biso   1.000  H
  N5       1.0000 0.17290  0.53430  0.57024  Biso   1.000  N
  N6       1.0000 0.32710  0.03430  0.92976  Biso   1.000  N
  N7       1.0000 0.82710  0.46570  0.42976  Biso   1.000  N
  N8       1.0000 0.67290  0.96570  0.07024  Biso   1.000  N
  C5       1.0000 0.08390  0.40740  0.57020  Biso   1.000  C
  C6       1.0000 0.41610  0.90740  0.92980  Biso   1.000  C
  C7       1.0000 0.91610  0.59260  0.42980  Biso   1.000  C
  C8       1.0000 0.58390  0.09260  0.07020  Biso   1.000  C
  H5       1.0000 0.01240  0.39760  0.59360  Biso   1.000  H
  H6       1.0000 0.48760  0.89760  0.90640  Biso   1.000  H
  H7       1.0000 0.98760  0.60240  0.40640  Biso   1.000  H
  H8       1.0000 0.51240  0.10240  0.09360  Biso   1.000  H
  C9       1.0000 0.11920  0.29920  0.52990  Biso   1.000  C
  C10      1.0000 0.38080  0.79920  0.97010  Biso   1.000  C
  C11      1.0000 0.88080  0.70080  0.47010  Biso   1.000  C
  C12      1.0000 0.61920  0.20080  0.02990  Biso   1.000  C
  H9       1.0000 0.07510  0.19820  0.52000  Biso   1.000  H
  H10      1.0000 0.42490  0.69820  0.98000  Biso   1.000  H
  H11      1.0000 0.92490  0.80180  0.48000  Biso   1.000  H
  H12      1.0000 0.57510  0.30180  0.02000  Biso   1.000  H
  C13      1.0000 0.17430  0.68170  0.60730  Biso   1.000  C
  C14      1.0000 0.32570  0.18170  0.89270  Biso   1.000  C
  C15      1.0000 0.82570  0.31830  0.39270  Biso   1.000  C
  C16      1.0000 0.67430  0.81830  0.10730  Biso   1.000  C
  H13      1.0000 0.07870  0.72360  0.60280  Biso   1.000  H
  H14      1.0000 0.42130  0.22360  0.89720  Biso   1.000  H
  H15      1.0000 0.92130  0.27640  0.39720  Biso   1.000  H
  H16      1.0000 0.57870  0.77640  0.10280  Biso   1.000  H
  H17      1.0000 0.23090  0.76450  0.59130  Biso   1.000  H
  H18      1.0000 0.26910  0.26450  0.90870  Biso   1.000  H
  H19      1.0000 0.76910  0.23550  0.40870  Biso   1.000  H
  H20      1.0000 0.73090  0.73550  0.09130  Biso   1.000  H
  C17      1.0000 0.23240  0.65180  0.67510  Biso   1.000  C
  C18      1.0000 0.26760  0.15180  0.82490  Biso   1.000  C
  C19      1.0000 0.76760  0.34820  0.32490  Biso   1.000  C
  C20      1.0000 0.73240  0.84820  0.17510  Biso   1.000  C
  C21      1.0000 0.14570  0.67300  0.71810  Biso   1.000  C
  C22      1.0000 0.35430  0.17300  0.78190  Biso   1.000  C
  C23      1.0000 0.85430  0.32700  0.28190  Biso   1.000  C
  C24      1.0000 0.64570  0.82700  0.21810  Biso   1.000  C
  H21      1.0000 0.05230  0.70580  0.70440  Biso   1.000  H
  H22      1.0000 0.44770  0.20580  0.79560  Biso   1.000  H
  H23      1.0000 0.94770  0.29420  0.29560  Biso   1.000  H
  H24      1.0000 0.55230  0.79420  0.20440  Biso   1.000  H
  C25      1.0000 0.19700  0.64550  0.78170  Biso   1.000  C
  C26      1.0000 0.30300  0.14550  0.71830  Biso   1.000  C
  C27      1.0000 0.80300  0.35450  0.21830  Biso   1.000  C
  C28      1.0000 0.69700  0.85450  0.28170  Biso   1.000  C
  C29      1.0000 0.33380  0.59930  0.80100  Biso   1.000  C
  C30      1.0000 0.16620  0.09930  0.69900  Biso   1.000  C
  C31      1.0000 0.66620  0.40070  0.19900  Biso   1.000  C
  C32      1.0000 0.83380  0.90070  0.30100  Biso   1.000  C
  H25      1.0000 0.36860  0.57880  0.84380  Biso   1.000  H
  H26      1.0000 0.13140  0.07880  0.65620  Biso   1.000  H
  H27      1.0000 0.63140  0.42120  0.15620  Biso   1.000  H
  H28      1.0000 0.86860  0.92120  0.34380  Biso   1.000  H
  C33      1.0000 0.42000  0.58290  0.75830  Biso   1.000  C
  C34      1.0000 0.08000  0.08290  0.74170  Biso   1.000  C
  C35      1.0000 0.58000  0.41710  0.24170  Biso   1.000  C
  C36      1.0000 0.92000  0.91710  0.25830  Biso   1.000  C
  H29      1.0000 0.51440  0.55400  0.77200  Biso   1.000  H
  H30      1.0000 0.98560  0.05400  0.72800  Biso   1.000  H
  H31      1.0000 0.48560  0.44600  0.22800  Biso   1.000  H
  H32      1.0000 0.01440  0.94600  0.27200  Biso   1.000  H
  C37      1.0000 0.36860  0.60850  0.69580  Biso   1.000  C
  C38      1.0000 0.13140  0.10850  0.80420  Biso   1.000  C
  C39      1.0000 0.63140  0.39150  0.30420  Biso   1.000  C
  C40      1.0000 0.86860  0.89150  0.19580  Biso   1.000  C
  H33      1.0000 0.42800  0.59620  0.66670  Biso   1.000  H
  H34      1.0000 0.07200  0.09620  0.83330  Biso   1.000  H
  H35      1.0000 0.57200  0.40380  0.33330  Biso   1.000  H
  H36      1.0000 0.92800  0.90380  0.16670  Biso   1.000  H
  C41      1.0000 0.10210  0.66930  0.82750  Biso   1.000  C
  C42      1.0000 0.39790  0.16930  0.67250  Biso   1.000  C
  C43      1.0000 0.89790  0.33070  0.17250  Biso   1.000  C
  C44      1.0000 0.60210  0.83070  0.32750  Biso   1.000  C
  H37      1.0000 0.15910  0.69260  0.86890  Biso   1.000  H
  H38      1.0000 0.34090  0.19260  0.63110  Biso   1.000  H
  H39      1.0000 0.84090  0.30740  0.13110  Biso   1.000  H
  H40      1.0000 0.65910  0.80740  0.36890  Biso   1.000  H
  H41      1.0000 0.04310  0.76450  0.81460  Biso   1.000  H
  H42      1.0000 0.45690  0.26450  0.68540  Biso   1.000  H
  H43      1.0000 0.95690  0.23550  0.18540  Biso   1.000  H
  H44      1.0000 0.54310  0.73550  0.31460  Biso   1.000  H
  N9       1.0000 0.01210  0.53090  0.83323  Biso   1.000  N
  N10      1.0000 0.48790  0.03090  0.66677  Biso   1.000  N
  N11      1.0000 0.98790  0.46910  0.16677  Biso   1.000  N
  N12      1.0000 0.51210  0.96910  0.33323  Biso   1.000  N
  C45      1.0000 0.99710  0.46200  0.88670  Biso   1.000  C
  C46      1.0000 0.50290  0.96200  0.61330  Biso   1.000  C
  C47      1.0000 0.00290  0.53800  0.11330  Biso   1.000  C
  C48      1.0000 0.49710  0.03800  0.38670  Biso   1.000  C
  H45      1.0000 0.05180  0.48760  0.92610  Biso   1.000  H
  H46      1.0000 0.44820  0.98760  0.57390  Biso   1.000  H
  H47      1.0000 0.94820  0.51240  0.07390  Biso   1.000  H
  H48      1.0000 0.55180  0.01240  0.42610  Biso   1.000  H
  N13      1.0000 0.89690  0.35420  0.87793  Biso   1.000  N
  N14      1.0000 0.60310  0.85420  0.62207  Biso   1.000  N
  N15      1.0000 0.10310  0.64580  0.12207  Biso   1.000  N
  N16      1.0000 0.39690  0.14580  0.37793  Biso   1.000  N
  C49      1.0000 0.84560  0.35480  0.81410  Biso   1.000  C
  C50      1.0000 0.65440  0.85480  0.68590  Biso   1.000  C
  C51      1.0000 0.15440  0.64520  0.18590  Biso   1.000  C
  C52      1.0000 0.34560  0.14520  0.31410  Biso   1.000  C
  H49      1.0000 0.77210  0.28920  0.79330  Biso   1.000  H
  H50      1.0000 0.72790  0.78920  0.70670  Biso   1.000  H
  H51      1.0000 0.22790  0.71080  0.20670  Biso   1.000  H
  H52      1.0000 0.27210  0.21080  0.29330  Biso   1.000  H
  C53      1.0000 0.91620  0.46270  0.78660  Biso   1.000  C
  C54      1.0000 0.58380  0.96270  0.71340  Biso   1.000  C
  C55      1.0000 0.08380  0.53730  0.21340  Biso   1.000  C
  C56      1.0000 0.41620  0.03730  0.28660  Biso   1.000  C
  H53      1.0000 0.90250  0.48690  0.74350  Biso   1.000  H
  H54      1.0000 0.59750  0.98690  0.75650  Biso   1.000  H
  H55      1.0000 0.09750  0.51310  0.25650  Biso   1.000  H
  H56      1.0000 0.40250  0.01310  0.24350  Biso   1.000  H
  N17      1.0000 0.17800  0.96790  0.44319  Biso   1.000  N
  N18      1.0000 0.32200  0.46790  0.05681  Biso   1.000  N
  N19      1.0000 0.82200  0.03210  0.55681  Biso   1.000  N
  N20      1.0000 0.67800  0.53210  0.94319  Biso   1.000  N
  O1       1.0000 0.09740  0.05510  0.40718  Biso   1.000  O
  O2       1.0000 0.40260  0.55510  0.09282  Biso   1.000  O
  O3       1.0000 0.90260  0.94490  0.59282  Biso   1.000  O
  O4       1.0000 0.59740  0.44490  0.90718  Biso   1.000  O
  O5       1.0000 0.16200  0.82290  0.44846  Biso   1.000  O
  O6       1.0000 0.33800  0.32290  0.05154  Biso   1.000  O
  O7       1.0000 0.83800  0.17710  0.55154  Biso   1.000  O
  O8       1.0000 0.66200  0.67710  0.94846  Biso   1.000  O
  O9       1.0000 0.28680  0.03270  0.47660  Biso   1.000  O
  O10      1.0000 0.21320  0.53270  0.02340  Biso   1.000  O
  O11      1.0000 0.71320  0.96730  0.52340  Biso   1.000  O
  O12      1.0000 0.78680  0.46730  0.97660  Biso   1.000  O
  N21      1.0000 0.28460  0.52530  0.37183  Biso   1.000  N
  N22      1.0000 0.21540  0.02530  0.12817  Biso   1.000  N
  N23      1.0000 0.71540  0.47470  0.62817  Biso   1.000  N
  N24      1.0000 0.78460  0.97470  0.87183  Biso   1.000  N
  O13      1.0000 0.30250  0.64980  0.34488  Biso   1.000  O
  O14      1.0000 0.19750  0.14980  0.15512  Biso   1.000  O
  O15      1.0000 0.69750  0.35020  0.65512  Biso   1.000  O
  O16      1.0000 0.80250  0.85020  0.84488  Biso   1.000  O
  O17      1.0000 0.17670  0.44290  0.35939  Biso   1.000  O
  O18      1.0000 0.32330  0.94290  0.14061  Biso   1.000  O
  O19      1.0000 0.82330  0.55710  0.64061  Biso   1.000  O
  O20      1.0000 0.67670  0.05710  0.85939  Biso   1.000  O
  O21      1.0000 0.38340  0.47280  0.41584  Biso   1.000  O
  O22      1.0000 0.11660  0.97280  0.08416  Biso   1.000  O
  O23      1.0000 0.61660  0.52720  0.58416  Biso   1.000  O
  O24      1.0000 0.88340  0.02720  0.91584  Biso   1.000  O
  O25      1.0000 0.52510  0.24400  0.51521  Biso   1.000  O
  O26      1.0000 0.97490  0.74400  0.98479  Biso   1.000  O
  O27      1.0000 0.47490  0.75600  0.48479  Biso   1.000  O
  O28      1.0000 0.02510  0.25600  0.01521  Biso   1.000  O
  H57      1.0000 0.60000  0.16200  0.52100  Biso   1.000  H
  H58      1.0000 0.90000  0.66200  0.97900  Biso   1.000  H
  H59      1.0000 0.40000  0.83800  0.47900  Biso   1.000  H
  H60      1.0000 0.10000  0.33800  0.02100  Biso   1.000  H
  H61      1.0000 0.55200  0.32000  0.55010  Biso   1.000  H
  H62      1.0000 0.94800  0.82000  0.94990  Biso   1.000  H
  H63      1.0000 0.44800  0.68000  0.44990  Biso   1.000  H
  H64      1.0000 0.05200  0.18000  0.05010  Biso   1.000  H
