data_image0
_cell_length_a       11.1699
_cell_length_b       11.2842
_cell_length_c       12.1363
_cell_angle_alpha    67.434
_cell_angle_beta     84.532
_cell_angle_gamma    70.556

_symmetry_space_group_name_H-M    "P 1"
_symmetry_int_tables_number       1

loop_
  _symmetry_equiv_pos_as_xyz
  'x, y, z'

loop_
  _atom_site_label
  _atom_site_occupancy
  _atom_site_fract_x
  _atom_site_fract_y
  _atom_site_fract_z
  _atom_site_thermal_displace_type
  _atom_site_B_iso_or_equiv
  _atom_site_type_symbol
  Cu1      1.0000 0.56309  0.06885  0.39217  Biso   1.000  Cu
  Cu2      1.0000 0.43691  0.93115  0.60783  Biso   1.000  Cu
  Cu3      1.0000 0.74922  0.88569  0.61861  Biso   1.000  Cu
  Cu4      1.0000 0.25078  0.11431  0.38139  Biso   1.000  Cu
  O1       1.0000 0.60240  0.89710  0.52970  Biso   1.000  O
  O2       1.0000 0.39760  0.10290  0.47030  Biso   1.000  O
  S1       1.0000 0.42527  0.71545  0.07123  Biso   1.000  S
  S2       1.0000 0.57473  0.28455  0.92877  Biso   1.000  S
  S3       1.0000 0.14889  0.78962  0.03002  Biso   1.000  S
  S4       1.0000 0.85111  0.21038  0.96998  Biso   1.000  S
  N1       1.0000 0.52390  0.26250  0.28470  Biso   1.000  N
  N2       1.0000 0.47610  0.73750  0.71530  Biso   1.000  N
  N3       1.0000 0.86890  0.86760  0.74170  Biso   1.000  N
  N4       1.0000 0.13110  0.13240  0.25830  Biso   1.000  N
  C1       1.0000 0.43170  0.32440  0.19670  Biso   1.000  C
  C2       1.0000 0.56830  0.67560  0.80330  Biso   1.000  C
  H1       1.0000 0.39120  0.27200  0.18160  Biso   1.000  H
  H2       1.0000 0.60880  0.72800  0.81840  Biso   1.000  H
  C3       1.0000 0.39590  0.45970  0.12960  Biso   1.000  C
  C4       1.0000 0.60410  0.54030  0.87040  Biso   1.000  C
  H3       1.0000 0.33150  0.49790  0.07100  Biso   1.000  H
  H4       1.0000 0.66850  0.50210  0.92900  Biso   1.000  H
  C5       1.0000 0.45620  0.54110  0.14910  Biso   1.000  C
  C6       1.0000 0.54380  0.45890  0.85090  Biso   1.000  C
  C7       1.0000 0.55340  0.47670  0.23800  Biso   1.000  C
  C8       1.0000 0.44660  0.52330  0.76200  Biso   1.000  C
  H5       1.0000 0.59810  0.52590  0.25270  Biso   1.000  H
  H6       1.0000 0.40190  0.47410  0.74730  Biso   1.000  H
  C9       1.0000 0.58200  0.33980  0.30340  Biso   1.000  C
  C10      1.0000 0.41800  0.66020  0.69660  Biso   1.000  C
  H7       1.0000 0.64490  0.29900  0.36370  Biso   1.000  H
  H8       1.0000 0.35510  0.70100  0.63630  Biso   1.000  H
  C11      1.0000 0.30380  0.75950  0.96340  Biso   1.000  C
  C12      1.0000 0.69620  0.24050  0.03660  Biso   1.000  C
  H9       1.0000 0.31920  0.68650  0.93480  Biso   1.000  H
  H10      1.0000 0.68080  0.31350  0.06520  Biso   1.000  H
  H11      1.0000 0.30530  0.84040  0.89580  Biso   1.000  H
  H12      1.0000 0.69470  0.15960  0.10420  Biso   1.000  H
  C13      1.0000 0.04580  0.81760  0.91550  Biso   1.000  C
  C14      1.0000 0.95420  0.18240  0.08450  Biso   1.000  C
  C15      1.0000 0.08330  0.78730  0.81600  Biso   1.000  C
  C16      1.0000 0.91670  0.21270  0.18400  Biso   1.000  C
  H13      1.0000 0.16920  0.75020  0.80500  Biso   1.000  H
  H14      1.0000 0.83080  0.24980  0.19500  Biso   1.000  H
  C17      1.0000 0.99380  0.81160  0.73140  Biso   1.000  C
  C18      1.0000 0.00620  0.18840  0.26860  Biso   1.000  C
  H15      1.0000 0.02130  0.78840  0.66540  Biso   1.000  H
  H16      1.0000 0.97870  0.21160  0.33460  Biso   1.000  H
  C19      1.0000 0.83380  0.89910  0.83790  Biso   1.000  C
  C20      1.0000 0.16620  0.10090  0.16210  Biso   1.000  C
  H17      1.0000 0.74780  0.94010  0.84530  Biso   1.000  H
  H18      1.0000 0.25220  0.05990  0.15470  Biso   1.000  H
  C21      1.0000 0.91650  0.87480  0.92600  Biso   1.000  C
  C22      1.0000 0.08350  0.12520  0.07400  Biso   1.000  C
  H19      1.0000 0.88640  0.89630  0.99240  Biso   1.000  H
  H20      1.0000 0.11360  0.10370  0.00760  Biso   1.000  H
  O3       1.0000 0.81780  0.68670  0.67340  Biso   1.000  O
  O4       1.0000 0.18220  0.31330  0.32660  Biso   1.000  O
  O5       1.0000 0.74040  0.66030  0.52630  Biso   1.000  O
  O6       1.0000 0.25960  0.33970  0.47370  Biso   1.000  O
  C23      1.0000 0.81070  0.61690  0.61490  Biso   1.000  C
  C24      1.0000 0.18930  0.38310  0.38510  Biso   1.000  C
  C25      1.0000 0.89290  0.47080  0.66430  Biso   1.000  C
  C26      1.0000 0.10710  0.52920  0.33570  Biso   1.000  C
  H21      1.0000 0.84320  0.41390  0.66980  Biso   1.000  H
  H22      1.0000 0.15680  0.58610  0.33020  Biso   1.000  H
  H23      1.0000 0.92610  0.44930  0.74220  Biso   1.000  H
  H24      1.0000 0.07390  0.55070  0.25780  Biso   1.000  H
  H25      1.0000 0.96190  0.45600  0.61240  Biso   1.000  H
  H26      1.0000 0.03810  0.54400  0.38760  Biso   1.000  H
  O7       1.0000 0.71500  0.01440  0.31200  Biso   1.000  O
  O8       1.0000 0.28500  0.98560  0.68800  Biso   1.000  O
  O9       1.0000 0.86950  0.91000  0.45410  Biso   1.000  O
  O10      1.0000 0.13050  0.09000  0.54590  Biso   1.000  O
  C27      1.0000 0.82700  0.93590  0.35410  Biso   1.000  C
  C28      1.0000 0.17300  0.06410  0.64590  Biso   1.000  C
  C29      1.0000 0.90650  0.87210  0.27180  Biso   1.000  C
  C30      1.0000 0.09350  0.12790  0.72820  Biso   1.000  C
  H27      1.0000 0.99260  0.86930  0.27710  Biso   1.000  H
  H28      1.0000 0.00740  0.13070  0.72290  Biso   1.000  H
  H29      1.0000 0.87350  0.92460  0.19130  Biso   1.000  H
  H30      1.0000 0.12650  0.07540  0.80870  Biso   1.000  H
  H31      1.0000 0.90400  0.78150  0.29460  Biso   1.000  H
  H32      1.0000 0.09600  0.21850  0.70540  Biso   1.000  H
  O11      1.0000 0.67360  0.08300  0.58040  Biso   1.000  O
  O12      1.0000 0.32640  0.91700  0.41960  Biso   1.000  O
  O13      1.0000 0.53970  0.01780  0.71820  Biso   1.000  O
  O14      1.0000 0.46030  0.98220  0.28180  Biso   1.000  O
  C31      1.0000 0.58270  0.10830  0.64880  Biso   1.000  C
  C32      1.0000 0.41730  0.89170  0.35120  Biso   1.000  C
  C33      1.0000 0.52830  0.25190  0.64130  Biso   1.000  C
  C34      1.0000 0.47170  0.74810  0.35870  Biso   1.000  C
  H33      1.0000 0.51160  0.31190  0.55910  Biso   1.000  H
  H34      1.0000 0.48840  0.68810  0.44090  Biso   1.000  H
  H35      1.0000 0.58790  0.27280  0.67680  Biso   1.000  H
  H36      1.0000 0.41210  0.72720  0.32320  Biso   1.000  H
  H37      1.0000 0.45050  0.26290  0.68330  Biso   1.000  H
  H38      1.0000 0.54950  0.73710  0.31670  Biso   1.000  H
  O15      1.0000 0.14210  0.77130  0.48650  Biso   1.000  O
  O16      1.0000 0.85790  0.22870  0.51350  Biso   1.000  O
  H39      1.0000 0.08800  0.79400  0.48100  Biso   1.000  H
  H40      1.0000 0.91200  0.20600  0.51900  Biso   1.000  H
  H41      1.0000 0.18300  0.83400  0.47100  Biso   1.000  H
  H42      1.0000 0.81700  0.16600  0.52900  Biso   1.000  H
  O17      1.0000 0.77800  0.51170  0.37470  Biso   1.000  O
  O18      1.0000 0.22200  0.48830  0.62530  Biso   1.000  O
  H43      1.0000 0.76400  0.55400  0.42900  Biso   1.000  H
  H44      1.0000 0.23600  0.44600  0.57100  Biso   1.000  H
  H45      1.0000 0.78800  0.42200  0.42200  Biso   1.000  H
  H46      1.0000 0.21200  0.57800  0.57800  Biso   1.000  H
  O19      1.0000 0.61010  0.95390  0.07610  Biso   1.000  O
  O20      1.0000 0.38990  0.04610  0.92390  Biso   1.000  O
  H47      1.0000 0.58000  0.97600  0.12400  Biso   1.000  H
  H48      1.0000 0.42000  0.02400  0.87600  Biso   1.000  H
  H49      1.0000 0.62200  0.89100  0.09500  Biso   1.000  H
  H50      1.0000 0.37800  0.10900  0.90500  Biso   1.000  H
  O21      1.0000 0.13140  0.44470  0.04350  Biso   1.000  O
  O22      1.0000 0.86860  0.55530  0.95650  Biso   1.000  O
  H51      1.0000 0.07900  0.44200  0.11000  Biso   1.000  H
  H52      1.0000 0.92100  0.55800  0.89000  Biso   1.000  H
  H53      1.0000 0.08000  0.45900  0.01600  Biso   1.000  H
  H54      1.0000 0.92000  0.54100  0.98400  Biso   1.000  H
  O23      1.0000 0.76450  0.67330  0.12610  Biso   1.000  O
  O24      1.0000 0.23550  0.32670  0.87390  Biso   1.000  O
  H55      1.0000 0.77700  0.62400  0.20500  Biso   1.000  H
  H56      1.0000 0.22300  0.37600  0.79500  Biso   1.000  H
  H57      1.0000 0.74700  0.70500  0.13300  Biso   1.000  H
  H58      1.0000 0.25300  0.29500  0.86700  Biso   1.000  H
