data_image0
_cell_length_a       7.5451
_cell_length_b       10.942
_cell_length_c       6.7415
_cell_angle_alpha    98.482
_cell_angle_beta     113.109
_cell_angle_gamma    72.186

_symmetry_space_group_name_H-M    "P 1"
_symmetry_int_tables_number       1

loop_
  _symmetry_equiv_pos_as_xyz
  'x, y, z'

loop_
  _atom_site_label
  _atom_site_occupancy
  _atom_site_fract_x
  _atom_site_fract_y
  _atom_site_fract_z
  _atom_site_thermal_displace_type
  _atom_site_B_iso_or_equiv
  _atom_site_type_symbol
  Zn1      1.0000 0.00000  0.50000  0.00000  Biso   1.000  Zn
  Cu1      1.0000 0.00000  0.00000  0.00000  Biso   1.000  Cu
  O1       1.0000 0.14830  0.85410  0.88110  Biso   1.000  O
  O2       1.0000 0.85170  0.14590  0.11890  Biso   1.000  O
  O3       1.0000 0.41250  0.68450  0.96980  Biso   1.000  O
  O4       1.0000 0.58750  0.31550  0.03020  Biso   1.000  O
  O5       1.0000 0.80480  0.64440  0.78790  Biso   1.000  O
  O6       1.0000 0.19520  0.35560  0.21210  Biso   1.000  O
  O7       1.0000 0.77350  0.82740  0.98760  Biso   1.000  O
  O8       1.0000 0.22650  0.17260  0.01240  Biso   1.000  O
  O9       1.0000 0.77930  0.51600  0.12910  Biso   1.000  O
  O10      1.0000 0.22070  0.48400  0.87090  Biso   1.000  O
  O11      1.0000 0.09200  0.64730  0.21690  Biso   1.000  O
  O12      1.0000 0.90800  0.35270  0.78310  Biso   1.000  O
  N1       1.0000 0.21250  0.93710  0.27670  Biso   1.000  N
  N2       1.0000 0.78750  0.06290  0.72330  Biso   1.000  N
  C1       1.0000 0.35040  0.83040  0.25020  Biso   1.000  C
  C2       1.0000 0.64960  0.16960  0.74980  Biso   1.000  C
  C3       1.0000 0.51500  0.77170  0.42050  Biso   1.000  C
  C4       1.0000 0.48500  0.22830  0.57950  Biso   1.000  C
  C5       1.0000 0.54190  0.82440  0.62670  Biso   1.000  C
  C6       1.0000 0.45810  0.17560  0.37330  Biso   1.000  C
  C7       1.0000 0.40160  0.93490  0.65460  Biso   1.000  C
  C8       1.0000 0.59840  0.06510  0.34540  Biso   1.000  C
  C9       1.0000 0.23710  0.98840  0.47560  Biso   1.000  C
  C10      1.0000 0.76290  0.01160  0.52440  Biso   1.000  C
  C11      1.0000 0.30380  0.78440  0.01720  Biso   1.000  C
  C12      1.0000 0.69620  0.21560  0.98280  Biso   1.000  C
  C13      1.0000 0.72270  0.76070  0.81940  Biso   1.000  C
  C14      1.0000 0.27730  0.23930  0.18060  Biso   1.000  C
  C15      1.0000 0.14520  0.63940  0.44270  Biso   1.000  C
  C16      1.0000 0.85480  0.36060  0.55730  Biso   1.000  C
  H1       1.0000 0.60730  0.69360  0.39610  Biso   1.000  H
  H2       1.0000 0.39270  0.30640  0.60390  Biso   1.000  H
  H3       1.0000 0.42000  0.97330  0.79560  Biso   1.000  H
  H4       1.0000 0.58000  0.02670  0.20440  Biso   1.000  H
  H5       1.0000 0.13900  0.06330  0.49700  Biso   1.000  H
  H6       1.0000 0.86100  0.93670  0.50300  Biso   1.000  H
  H7       1.0000 0.03220  0.63390  0.47180  Biso   1.000  H
  H8       1.0000 0.96780  0.36610  0.52820  Biso   1.000  H
  H9       1.0000 0.25290  0.56600  0.49780  Biso   1.000  H
  H10      1.0000 0.74710  0.43400  0.50220  Biso   1.000  H
  H11      1.0000 0.18210  0.71460  0.51780  Biso   1.000  H
  H12      1.0000 0.81790  0.28540  0.48220  Biso   1.000  H
