data_image0
_cell_length_a       20.4434
_cell_length_b       20.4434
_cell_length_c       20.4434
_cell_angle_alpha    90
_cell_angle_beta     90
_cell_angle_gamma    90

_symmetry_space_group_name_H-M    "P 1"
_symmetry_int_tables_number       1

loop_
  _symmetry_equiv_pos_as_xyz
  'x, y, z'

loop_
  _atom_site_label
  _atom_site_occupancy
  _atom_site_fract_x
  _atom_site_fract_y
  _atom_site_fract_z
  _atom_site_thermal_displace_type
  _atom_site_B_iso_or_equiv
  _atom_site_type_symbol
  Cu1      1.0000 0.50000  0.00000  0.37630  Biso   1.000  Cu
  Cu2      1.0000 0.50000  0.00000  0.62370  Biso   1.000  Cu
  Cu3      1.0000 0.37630  0.50000  0.00000  Biso   1.000  Cu
  Cu4      1.0000 0.62370  0.50000  0.00000  Biso   1.000  Cu
  Cu5      1.0000 0.00000  0.37630  0.50000  Biso   1.000  Cu
  Cu6      1.0000 0.00000  0.62370  0.50000  Biso   1.000  Cu
  Cu7      1.0000 0.00000  0.50000  0.62370  Biso   1.000  Cu
  Cu8      1.0000 0.00000  0.50000  0.37630  Biso   1.000  Cu
  Cu9      1.0000 0.50000  0.37630  0.00000  Biso   1.000  Cu
  Cu10     1.0000 0.50000  0.62370  0.00000  Biso   1.000  Cu
  Cu11     1.0000 0.37630  0.00000  0.50000  Biso   1.000  Cu
  Cu12     1.0000 0.62370  0.00000  0.50000  Biso   1.000  Cu
  C1       1.0000 0.61265  0.91088  0.38735  Biso   1.000  C
  C2       1.0000 0.38735  0.08912  0.38735  Biso   1.000  C
  C3       1.0000 0.38735  0.91088  0.61265  Biso   1.000  C
  C4       1.0000 0.61265  0.08912  0.61265  Biso   1.000  C
  C5       1.0000 0.38735  0.61265  0.91088  Biso   1.000  C
  C6       1.0000 0.38735  0.38735  0.08912  Biso   1.000  C
  C7       1.0000 0.61265  0.38735  0.91088  Biso   1.000  C
  C8       1.0000 0.61265  0.61265  0.08912  Biso   1.000  C
  C9       1.0000 0.91088  0.38735  0.61265  Biso   1.000  C
  C10      1.0000 0.08912  0.38735  0.38735  Biso   1.000  C
  C11      1.0000 0.91088  0.61265  0.38735  Biso   1.000  C
  C12      1.0000 0.08912  0.61265  0.61265  Biso   1.000  C
  C13      1.0000 0.91088  0.61265  0.61265  Biso   1.000  C
  C14      1.0000 0.08912  0.38735  0.61265  Biso   1.000  C
  C15      1.0000 0.91088  0.38735  0.38735  Biso   1.000  C
  C16      1.0000 0.08912  0.61265  0.38735  Biso   1.000  C
  C17      1.0000 0.61265  0.38735  0.08912  Biso   1.000  C
  C18      1.0000 0.38735  0.38735  0.91088  Biso   1.000  C
  C19      1.0000 0.38735  0.61265  0.08912  Biso   1.000  C
  C20      1.0000 0.61265  0.61265  0.91088  Biso   1.000  C
  C21      1.0000 0.38735  0.91088  0.38735  Biso   1.000  C
  C22      1.0000 0.38735  0.08912  0.61265  Biso   1.000  C
  C23      1.0000 0.61265  0.91088  0.61265  Biso   1.000  C
  C24      1.0000 0.61265  0.08912  0.38735  Biso   1.000  C
  C25      1.0000 0.64230  0.85220  0.35770  Biso   1.000  C
  C26      1.0000 0.35770  0.14780  0.35770  Biso   1.000  C
  C27      1.0000 0.35770  0.85220  0.64230  Biso   1.000  C
  C28      1.0000 0.64230  0.14780  0.64230  Biso   1.000  C
  C29      1.0000 0.35770  0.64230  0.85220  Biso   1.000  C
  C30      1.0000 0.35770  0.35770  0.14780  Biso   1.000  C
  C31      1.0000 0.64230  0.35770  0.85220  Biso   1.000  C
  C32      1.0000 0.64230  0.64230  0.14780  Biso   1.000  C
  C33      1.0000 0.85220  0.35770  0.64230  Biso   1.000  C
  C34      1.0000 0.14780  0.35770  0.35770  Biso   1.000  C
  C35      1.0000 0.85220  0.64230  0.35770  Biso   1.000  C
  C36      1.0000 0.14780  0.64230  0.64230  Biso   1.000  C
  C37      1.0000 0.85220  0.64230  0.64230  Biso   1.000  C
  C38      1.0000 0.14780  0.35770  0.64230  Biso   1.000  C
  C39      1.0000 0.85220  0.35770  0.35770  Biso   1.000  C
  C40      1.0000 0.14780  0.64230  0.35770  Biso   1.000  C
  C41      1.0000 0.64230  0.35770  0.14780  Biso   1.000  C
  C42      1.0000 0.35770  0.35770  0.85220  Biso   1.000  C
  C43      1.0000 0.35770  0.64230  0.14780  Biso   1.000  C
  C44      1.0000 0.64230  0.64230  0.85220  Biso   1.000  C
  C45      1.0000 0.35770  0.85220  0.35770  Biso   1.000  C
  C46      1.0000 0.35770  0.14780  0.64230  Biso   1.000  C
  C47      1.0000 0.64230  0.85220  0.64230  Biso   1.000  C
  C48      1.0000 0.64230  0.14780  0.35770  Biso   1.000  C
  C49      1.0000 0.66358  0.76068  0.28795  Biso   1.000  C
  C50      1.0000 0.33642  0.23932  0.28795  Biso   1.000  C
  C51      1.0000 0.33642  0.76068  0.71205  Biso   1.000  C
  C52      1.0000 0.66358  0.23932  0.71205  Biso   1.000  C
  C53      1.0000 0.28795  0.66358  0.76068  Biso   1.000  C
  C54      1.0000 0.28795  0.33642  0.23932  Biso   1.000  C
  C55      1.0000 0.71205  0.33642  0.76068  Biso   1.000  C
  C56      1.0000 0.71205  0.66358  0.23932  Biso   1.000  C
  C57      1.0000 0.76068  0.28795  0.66358  Biso   1.000  C
  C58      1.0000 0.23932  0.28795  0.33642  Biso   1.000  C
  C59      1.0000 0.76068  0.71205  0.33642  Biso   1.000  C
  C60      1.0000 0.23932  0.71205  0.66358  Biso   1.000  C
  C61      1.0000 0.76068  0.66358  0.71205  Biso   1.000  C
  C62      1.0000 0.23932  0.33642  0.71205  Biso   1.000  C
  C63      1.0000 0.76068  0.33642  0.28795  Biso   1.000  C
  C64      1.0000 0.23932  0.66358  0.28795  Biso   1.000  C
  C65      1.0000 0.66358  0.28795  0.23932  Biso   1.000  C
  C66      1.0000 0.33642  0.28795  0.76068  Biso   1.000  C
  C67      1.0000 0.33642  0.71205  0.23932  Biso   1.000  C
  C68      1.0000 0.66358  0.71205  0.76068  Biso   1.000  C
  C69      1.0000 0.28795  0.76068  0.33642  Biso   1.000  C
  C70      1.0000 0.28795  0.23932  0.66358  Biso   1.000  C
  C71      1.0000 0.71205  0.76068  0.66358  Biso   1.000  C
  C72      1.0000 0.71205  0.23932  0.33642  Biso   1.000  C
  C73      1.0000 0.33642  0.23932  0.71205  Biso   1.000  C
  C74      1.0000 0.66358  0.76068  0.71205  Biso   1.000  C
  C75      1.0000 0.66358  0.23932  0.28795  Biso   1.000  C
  C76      1.0000 0.33642  0.76068  0.28795  Biso   1.000  C
  C77      1.0000 0.71205  0.33642  0.23932  Biso   1.000  C
  C78      1.0000 0.71205  0.66358  0.76068  Biso   1.000  C
  C79      1.0000 0.28795  0.66358  0.23932  Biso   1.000  C
  C80      1.0000 0.28795  0.33642  0.76068  Biso   1.000  C
  C81      1.0000 0.23932  0.71205  0.33642  Biso   1.000  C
  C82      1.0000 0.76068  0.71205  0.66358  Biso   1.000  C
  C83      1.0000 0.23932  0.28795  0.66358  Biso   1.000  C
  C84      1.0000 0.76068  0.28795  0.33642  Biso   1.000  C
  C85      1.0000 0.23932  0.33642  0.28795  Biso   1.000  C
  C86      1.0000 0.76068  0.66358  0.28795  Biso   1.000  C
  C87      1.0000 0.23932  0.66358  0.71205  Biso   1.000  C
  C88      1.0000 0.76068  0.33642  0.71205  Biso   1.000  C
  C89      1.0000 0.33642  0.71205  0.76068  Biso   1.000  C
  C90      1.0000 0.66358  0.71205  0.23932  Biso   1.000  C
  C91      1.0000 0.66358  0.28795  0.76068  Biso   1.000  C
  C92      1.0000 0.33642  0.28795  0.23932  Biso   1.000  C
  C93      1.0000 0.71205  0.23932  0.66358  Biso   1.000  C
  C94      1.0000 0.71205  0.76068  0.33642  Biso   1.000  C
  C95      1.0000 0.28795  0.23932  0.33642  Biso   1.000  C
  C96      1.0000 0.28795  0.76068  0.66358  Biso   1.000  C
  S1       1.0000 0.60383  0.81966  0.28704  Biso   1.000  S
  S2       1.0000 0.39617  0.18034  0.28704  Biso   1.000  S
  S3       1.0000 0.39617  0.81966  0.71296  Biso   1.000  S
  S4       1.0000 0.60383  0.18034  0.71296  Biso   1.000  S
  S5       1.0000 0.28704  0.60383  0.81966  Biso   1.000  S
  S6       1.0000 0.28704  0.39617  0.18034  Biso   1.000  S
  S7       1.0000 0.71296  0.39617  0.81966  Biso   1.000  S
  S8       1.0000 0.71296  0.60383  0.18034  Biso   1.000  S
  S9       1.0000 0.81966  0.28704  0.60383  Biso   1.000  S
  S10      1.0000 0.18034  0.28704  0.39617  Biso   1.000  S
  S11      1.0000 0.81966  0.71296  0.39617  Biso   1.000  S
  S12      1.0000 0.18034  0.71296  0.60383  Biso   1.000  S
  S13      1.0000 0.81966  0.60383  0.71296  Biso   1.000  S
  S14      1.0000 0.18034  0.39617  0.71296  Biso   1.000  S
  S15      1.0000 0.81966  0.39617  0.28704  Biso   1.000  S
  S16      1.0000 0.18034  0.60383  0.28704  Biso   1.000  S
  S17      1.0000 0.60383  0.28704  0.18034  Biso   1.000  S
  S18      1.0000 0.39617  0.28704  0.81966  Biso   1.000  S
  S19      1.0000 0.39617  0.71296  0.18034  Biso   1.000  S
  S20      1.0000 0.60383  0.71296  0.81966  Biso   1.000  S
  S21      1.0000 0.28704  0.81966  0.39617  Biso   1.000  S
  S22      1.0000 0.28704  0.18034  0.60383  Biso   1.000  S
  S23      1.0000 0.71296  0.81966  0.60383  Biso   1.000  S
  S24      1.0000 0.71296  0.18034  0.39617  Biso   1.000  S
  S25      1.0000 0.39617  0.18034  0.71296  Biso   1.000  S
  S26      1.0000 0.60383  0.81966  0.71296  Biso   1.000  S
  S27      1.0000 0.60383  0.18034  0.28704  Biso   1.000  S
  S28      1.0000 0.39617  0.81966  0.28704  Biso   1.000  S
  S29      1.0000 0.71296  0.39617  0.18034  Biso   1.000  S
  S30      1.0000 0.71296  0.60383  0.81966  Biso   1.000  S
  S31      1.0000 0.28704  0.60383  0.18034  Biso   1.000  S
  S32      1.0000 0.28704  0.39617  0.81966  Biso   1.000  S
  S33      1.0000 0.18034  0.71296  0.39617  Biso   1.000  S
  S34      1.0000 0.81966  0.71296  0.60383  Biso   1.000  S
  S35      1.0000 0.18034  0.28704  0.60383  Biso   1.000  S
  S36      1.0000 0.81966  0.28704  0.39617  Biso   1.000  S
  S37      1.0000 0.18034  0.39617  0.28704  Biso   1.000  S
  S38      1.0000 0.81966  0.60383  0.28704  Biso   1.000  S
  S39      1.0000 0.18034  0.60383  0.71296  Biso   1.000  S
  S40      1.0000 0.81966  0.39617  0.71296  Biso   1.000  S
  S41      1.0000 0.39617  0.71296  0.81966  Biso   1.000  S
  S42      1.0000 0.60383  0.71296  0.18034  Biso   1.000  S
  S43      1.0000 0.60383  0.28704  0.81966  Biso   1.000  S
  S44      1.0000 0.39617  0.28704  0.18034  Biso   1.000  S
  S45      1.0000 0.71296  0.18034  0.60383  Biso   1.000  S
  S46      1.0000 0.71296  0.81966  0.39617  Biso   1.000  S
  S47      1.0000 0.28704  0.18034  0.39617  Biso   1.000  S
  S48      1.0000 0.28704  0.81966  0.60383  Biso   1.000  S
  Cl1      1.0000 0.50000  0.00000  0.50000  Biso   1.000  Cl
  Cl2      1.0000 0.50000  0.50000  0.00000  Biso   1.000  Cl
  Cl3      1.0000 0.00000  0.50000  0.50000  Biso   1.000  Cl
  O1       1.0000 0.56343  0.93253  0.36031  Biso   1.000  O
  O2       1.0000 0.43657  0.06747  0.36031  Biso   1.000  O
  O3       1.0000 0.43657  0.93253  0.63969  Biso   1.000  O
  O4       1.0000 0.56343  0.06747  0.63969  Biso   1.000  O
  O5       1.0000 0.36031  0.56343  0.93253  Biso   1.000  O
  O6       1.0000 0.36031  0.43657  0.06747  Biso   1.000  O
  O7       1.0000 0.63969  0.43657  0.93253  Biso   1.000  O
  O8       1.0000 0.63969  0.56343  0.06747  Biso   1.000  O
  O9       1.0000 0.93253  0.36031  0.56343  Biso   1.000  O
  O10      1.0000 0.06747  0.36031  0.43657  Biso   1.000  O
  O11      1.0000 0.93253  0.63969  0.43657  Biso   1.000  O
  O12      1.0000 0.06747  0.63969  0.56343  Biso   1.000  O
  O13      1.0000 0.93253  0.56343  0.63969  Biso   1.000  O
  O14      1.0000 0.06747  0.43657  0.63969  Biso   1.000  O
  O15      1.0000 0.93253  0.43657  0.36031  Biso   1.000  O
  O16      1.0000 0.06747  0.56343  0.36031  Biso   1.000  O
  O17      1.0000 0.56343  0.36031  0.06747  Biso   1.000  O
  O18      1.0000 0.43657  0.36031  0.93253  Biso   1.000  O
  O19      1.0000 0.43657  0.63969  0.06747  Biso   1.000  O
  O20      1.0000 0.56343  0.63969  0.93253  Biso   1.000  O
  O21      1.0000 0.36031  0.93253  0.43657  Biso   1.000  O
  O22      1.0000 0.36031  0.06747  0.56343  Biso   1.000  O
  O23      1.0000 0.63969  0.93253  0.56343  Biso   1.000  O
  O24      1.0000 0.63969  0.06747  0.43657  Biso   1.000  O
  O25      1.0000 0.43657  0.06747  0.63969  Biso   1.000  O
  O26      1.0000 0.56343  0.93253  0.63969  Biso   1.000  O
  O27      1.0000 0.56343  0.06747  0.36031  Biso   1.000  O
  O28      1.0000 0.43657  0.93253  0.36031  Biso   1.000  O
  O29      1.0000 0.63969  0.43657  0.06747  Biso   1.000  O
  O30      1.0000 0.63969  0.56343  0.93253  Biso   1.000  O
  O31      1.0000 0.36031  0.56343  0.06747  Biso   1.000  O
  O32      1.0000 0.36031  0.43657  0.93253  Biso   1.000  O
  O33      1.0000 0.06747  0.63969  0.43657  Biso   1.000  O
  O34      1.0000 0.93253  0.63969  0.56343  Biso   1.000  O
  O35      1.0000 0.06747  0.36031  0.56343  Biso   1.000  O
  O36      1.0000 0.93253  0.36031  0.43657  Biso   1.000  O
  O37      1.0000 0.06747  0.43657  0.36031  Biso   1.000  O
  O38      1.0000 0.93253  0.56343  0.36031  Biso   1.000  O
  O39      1.0000 0.06747  0.56343  0.63969  Biso   1.000  O
  O40      1.0000 0.93253  0.43657  0.63969  Biso   1.000  O
  O41      1.0000 0.43657  0.63969  0.93253  Biso   1.000  O
  O42      1.0000 0.56343  0.63969  0.06747  Biso   1.000  O
  O43      1.0000 0.56343  0.36031  0.93253  Biso   1.000  O
  O44      1.0000 0.43657  0.36031  0.06747  Biso   1.000  O
  O45      1.0000 0.63969  0.06747  0.56343  Biso   1.000  O
  O46      1.0000 0.63969  0.93253  0.43657  Biso   1.000  O
  O47      1.0000 0.36031  0.06747  0.43657  Biso   1.000  O
  O48      1.0000 0.36031  0.93253  0.56343  Biso   1.000  O
  H1       1.0000 0.71960  0.82910  0.41190  Biso   1.000  H
  H2       1.0000 0.28040  0.17090  0.41190  Biso   1.000  H
  H3       1.0000 0.28040  0.82910  0.58810  Biso   1.000  H
  H4       1.0000 0.71960  0.17090  0.58810  Biso   1.000  H
  H5       1.0000 0.41190  0.71960  0.82910  Biso   1.000  H
  H6       1.0000 0.41190  0.28040  0.17090  Biso   1.000  H
  H7       1.0000 0.58810  0.28040  0.82910  Biso   1.000  H
  H8       1.0000 0.58810  0.71960  0.17090  Biso   1.000  H
  H9       1.0000 0.82910  0.41190  0.71960  Biso   1.000  H
  H10      1.0000 0.17090  0.41190  0.28040  Biso   1.000  H
  H11      1.0000 0.82910  0.58810  0.28040  Biso   1.000  H
  H12      1.0000 0.17090  0.58810  0.71960  Biso   1.000  H
  H13      1.0000 0.82910  0.71960  0.58810  Biso   1.000  H
  H14      1.0000 0.17090  0.28040  0.58810  Biso   1.000  H
  H15      1.0000 0.82910  0.28040  0.41190  Biso   1.000  H
  H16      1.0000 0.17090  0.71960  0.41190  Biso   1.000  H
  H17      1.0000 0.71960  0.41190  0.17090  Biso   1.000  H
  H18      1.0000 0.28040  0.41190  0.82910  Biso   1.000  H
  H19      1.0000 0.28040  0.58810  0.17090  Biso   1.000  H
  H20      1.0000 0.71960  0.58810  0.82910  Biso   1.000  H
  H21      1.0000 0.41190  0.82910  0.28040  Biso   1.000  H
  H22      1.0000 0.41190  0.17090  0.71960  Biso   1.000  H
  H23      1.0000 0.58810  0.82910  0.71960  Biso   1.000  H
  H24      1.0000 0.58810  0.17090  0.28040  Biso   1.000  H
  H25      1.0000 0.28040  0.17090  0.58810  Biso   1.000  H
  H26      1.0000 0.71960  0.82910  0.58810  Biso   1.000  H
  H27      1.0000 0.71960  0.17090  0.41190  Biso   1.000  H
  H28      1.0000 0.28040  0.82910  0.41190  Biso   1.000  H
  H29      1.0000 0.58810  0.28040  0.17090  Biso   1.000  H
  H30      1.0000 0.58810  0.71960  0.82910  Biso   1.000  H
  H31      1.0000 0.41190  0.71960  0.17090  Biso   1.000  H
  H32      1.0000 0.41190  0.28040  0.82910  Biso   1.000  H
  H33      1.0000 0.17090  0.58810  0.28040  Biso   1.000  H
  H34      1.0000 0.82910  0.58810  0.71960  Biso   1.000  H
  H35      1.0000 0.17090  0.41190  0.71960  Biso   1.000  H
  H36      1.0000 0.82910  0.41190  0.28040  Biso   1.000  H
  H37      1.0000 0.17090  0.28040  0.41190  Biso   1.000  H
  H38      1.0000 0.82910  0.71960  0.41190  Biso   1.000  H
  H39      1.0000 0.17090  0.71960  0.58810  Biso   1.000  H
  H40      1.0000 0.82910  0.28040  0.58810  Biso   1.000  H
  H41      1.0000 0.28040  0.58810  0.82910  Biso   1.000  H
  H42      1.0000 0.71960  0.58810  0.17090  Biso   1.000  H
  H43      1.0000 0.71960  0.41190  0.82910  Biso   1.000  H
  H44      1.0000 0.28040  0.41190  0.17090  Biso   1.000  H
  H45      1.0000 0.58810  0.17090  0.71960  Biso   1.000  H
  H46      1.0000 0.58810  0.82910  0.28040  Biso   1.000  H
  H47      1.0000 0.41190  0.17090  0.28040  Biso   1.000  H
  H48      1.0000 0.41190  0.82910  0.71960  Biso   1.000  H
  C97      1.0000 0.69490  0.81730  0.37550  Biso   1.000  C
  C98      1.0000 0.30510  0.18270  0.37550  Biso   1.000  C
  C99      1.0000 0.30510  0.81730  0.62450  Biso   1.000  C
  C100     1.0000 0.69490  0.18270  0.62450  Biso   1.000  C
  C101     1.0000 0.37550  0.69490  0.81730  Biso   1.000  C
  C102     1.0000 0.37550  0.30510  0.18270  Biso   1.000  C
  C103     1.0000 0.62450  0.30510  0.81730  Biso   1.000  C
  C104     1.0000 0.62450  0.69490  0.18270  Biso   1.000  C
  C105     1.0000 0.81730  0.37550  0.69490  Biso   1.000  C
  C106     1.0000 0.18270  0.37550  0.30510  Biso   1.000  C
  C107     1.0000 0.81730  0.62450  0.30510  Biso   1.000  C
  C108     1.0000 0.18270  0.62450  0.69490  Biso   1.000  C
  C109     1.0000 0.81730  0.69490  0.62450  Biso   1.000  C
  C110     1.0000 0.18270  0.30510  0.62450  Biso   1.000  C
  C111     1.0000 0.81730  0.30510  0.37550  Biso   1.000  C
  C112     1.0000 0.18270  0.69490  0.37550  Biso   1.000  C
  C113     1.0000 0.69490  0.37550  0.18270  Biso   1.000  C
  C114     1.0000 0.30510  0.37550  0.81730  Biso   1.000  C
  C115     1.0000 0.30510  0.62450  0.18270  Biso   1.000  C
  C116     1.0000 0.69490  0.62450  0.81730  Biso   1.000  C
  C117     1.0000 0.37550  0.81730  0.30510  Biso   1.000  C
  C118     1.0000 0.37550  0.18270  0.69490  Biso   1.000  C
  C119     1.0000 0.62450  0.81730  0.69490  Biso   1.000  C
  C120     1.0000 0.62450  0.18270  0.30510  Biso   1.000  C
  C121     1.0000 0.30510  0.18270  0.62450  Biso   1.000  C
  C122     1.0000 0.69490  0.81730  0.62450  Biso   1.000  C
  C123     1.0000 0.69490  0.18270  0.37550  Biso   1.000  C
  C124     1.0000 0.30510  0.81730  0.37550  Biso   1.000  C
  C125     1.0000 0.62450  0.30510  0.18270  Biso   1.000  C
  C126     1.0000 0.62450  0.69490  0.81730  Biso   1.000  C
  C127     1.0000 0.37550  0.69490  0.18270  Biso   1.000  C
  C128     1.0000 0.37550  0.30510  0.81730  Biso   1.000  C
  C129     1.0000 0.18270  0.62450  0.30510  Biso   1.000  C
  C130     1.0000 0.81730  0.62450  0.69490  Biso   1.000  C
  C131     1.0000 0.18270  0.37550  0.69490  Biso   1.000  C
  C132     1.0000 0.81730  0.37550  0.30510  Biso   1.000  C
  C133     1.0000 0.18270  0.30510  0.37550  Biso   1.000  C
  C134     1.0000 0.81730  0.69490  0.37550  Biso   1.000  C
  C135     1.0000 0.18270  0.69490  0.62450  Biso   1.000  C
  C136     1.0000 0.81730  0.30510  0.62450  Biso   1.000  C
  C137     1.0000 0.30510  0.62450  0.81730  Biso   1.000  C
  C138     1.0000 0.69490  0.62450  0.18270  Biso   1.000  C
  C139     1.0000 0.69490  0.37550  0.81730  Biso   1.000  C
  C140     1.0000 0.30510  0.37550  0.18270  Biso   1.000  C
  C141     1.0000 0.62450  0.18270  0.69490  Biso   1.000  C
  C142     1.0000 0.62450  0.81730  0.30510  Biso   1.000  C
  C143     1.0000 0.37550  0.18270  0.30510  Biso   1.000  C
  C144     1.0000 0.37550  0.81730  0.69490  Biso   1.000  C
