data_image0
_cell_length_a       6.804
_cell_length_b       7.286
_cell_length_c       9.289
_cell_angle_alpha    69.65
_cell_angle_beta     68.51
_cell_angle_gamma    67.51

_symmetry_space_group_name_H-M    "P 1"
_symmetry_int_tables_number       1

loop_
  _symmetry_equiv_pos_as_xyz
  'x, y, z'

loop_
  _atom_site_label
  _atom_site_occupancy
  _atom_site_fract_x
  _atom_site_fract_y
  _atom_site_fract_z
  _atom_site_thermal_displace_type
  _atom_site_B_iso_or_equiv
  _atom_site_type_symbol
  Cu1      1.0000 0.00000  0.00000  0.00000  Biso   1.000  Cu
  N1       1.0000 0.29810  0.99690  0.99950  Biso   1.000  N
  N2       1.0000 0.70190  0.00310  0.00050  Biso   1.000  N
  C1       1.0000 0.41510  0.11000  0.87680  Biso   1.000  C
  C2       1.0000 0.58490  0.89000  0.12320  Biso   1.000  C
  H1       1.0000 0.35840  0.18950  0.78750  Biso   1.000  H
  H2       1.0000 0.64160  0.81050  0.21250  Biso   1.000  H
  C3       1.0000 0.38390  0.88640  0.12250  Biso   1.000  C
  C4       1.0000 0.61610  0.11360  0.87750  Biso   1.000  C
  H3       1.0000 0.30530  0.80410  0.21100  Biso   1.000  H
  H4       1.0000 0.69470  0.19590  0.78900  Biso   1.000  H
  N3       1.0000 0.13580  0.91680  0.78400  Biso   1.000  N
  N4       1.0000 0.86420  0.08320  0.21600  Biso   1.000  N
  N5       1.0000 0.33110  0.79590  0.49590  Biso   1.000  N
  N6       1.0000 0.66890  0.20410  0.50410  Biso   1.000  N
  C5       1.0000 0.15930  0.05530  0.64200  Biso   1.000  C
  C6       1.0000 0.84070  0.94470  0.35800  Biso   1.000  C
  H5       1.0000 0.10830  0.19720  0.63910  Biso   1.000  H
  H6       1.0000 0.89170  0.80280  0.36090  Biso   1.000  H
  C7       1.0000 0.25690  0.99300  0.50040  Biso   1.000  C
  C8       1.0000 0.74310  0.00700  0.49960  Biso   1.000  C
  H7       1.0000 0.27170  0.09420  0.40270  Biso   1.000  H
  H8       1.0000 0.72830  0.90580  0.59730  Biso   1.000  H
  C9       1.0000 0.20660  0.71910  0.78080  Biso   1.000  C
  C10      1.0000 0.79340  0.28090  0.21920  Biso   1.000  C
  H9       1.0000 0.19070  0.61710  0.87800  Biso   1.000  H
  H10      1.0000 0.80930  0.38290  0.12200  Biso   1.000  H
  C11      1.0000 0.30300  0.66190  0.63680  Biso   1.000  C
  C12      1.0000 0.69700  0.33810  0.36320  Biso   1.000  C
  H11      1.0000 0.35130  0.52040  0.63900  Biso   1.000  H
  H12      1.0000 0.64870  0.47960  0.36100  Biso   1.000  H
  N7       1.0000 0.81810  0.50850  0.79850  Biso   1.000  N
  N8       1.0000 0.18190  0.49150  0.20150  Biso   1.000  N
  O1       1.0000 0.95380  0.34980  0.86090  Biso   1.000  O
  O2       1.0000 0.04620  0.65020  0.13910  Biso   1.000  O
  O3       1.0000 0.79000  0.51620  0.67090  Biso   1.000  O
  O4       1.0000 0.21000  0.48380  0.32910  Biso   1.000  O
  O5       1.0000 0.71840  0.65060  0.86500  Biso   1.000  O
  O6       1.0000 0.28160  0.34940  0.13500  Biso   1.000  O
