data_image0
_cell_length_a       6.8023
_cell_length_b       7.285
_cell_length_c       9.2846
_cell_angle_alpha    93.815
_cell_angle_beta     111.477
_cell_angle_gamma    112.513

_symmetry_space_group_name_H-M    "P 1"
_symmetry_int_tables_number       1

loop_
  _symmetry_equiv_pos_as_xyz
  'x, y, z'

loop_
  _atom_site_label
  _atom_site_occupancy
  _atom_site_fract_x
  _atom_site_fract_y
  _atom_site_fract_z
  _atom_site_thermal_displace_type
  _atom_site_B_iso_or_equiv
  _atom_site_type_symbol
  Cu1      1.0000 0.00000  0.50000  0.50000  Biso   1.000  Cu
  N1       1.0000 0.70290  0.49680  0.50079  Biso   1.000  N
  N2       1.0000 0.29710  0.50320  0.49921  Biso   1.000  N
  O1       1.0000 0.81445  0.14988  0.36098  Biso   1.000  O
  O2       1.0000 0.18555  0.85012  0.63902  Biso   1.000  O
  N3       1.0000 0.91990  0.58285  0.28409  Biso   1.000  N
  N4       1.0000 0.08010  0.41715  0.71591  Biso   1.000  N
  O3       1.0000 0.46210  0.98420  0.17181  Biso   1.000  O
  O4       1.0000 0.53790  0.01580  0.82819  Biso   1.000  O
  O5       1.0000 0.58370  0.84940  0.36468  Biso   1.000  O
  O6       1.0000 0.41630  0.15060  0.63532  Biso   1.000  O
  N5       1.0000 0.82690  0.70370  0.99620  Biso   1.000  N
  N6       1.0000 0.17310  0.29630  0.00380  Biso   1.000  N
  N7       1.0000 0.61640  0.99220  0.29876  Biso   1.000  N
  N8       1.0000 0.38360  0.00780  0.70124  Biso   1.000  N
  C1       1.0000 0.70860  0.61010  0.62282  Biso   1.000  C
  C2       1.0000 0.29140  0.38990  0.37718  Biso   1.000  C
  H1       1.0000 0.85170  0.68820  0.71010  Biso   1.000  H
  H2       1.0000 0.14830  0.31180  0.28990  Biso   1.000  H
  C3       1.0000 0.49390  0.38620  0.37763  Biso   1.000  C
  C4       1.0000 0.50610  0.61380  0.62237  Biso   1.000  C
  H3       1.0000 0.48420  0.30560  0.29100  Biso   1.000  H
  H4       1.0000 0.51580  0.69440  0.70900  Biso   1.000  H
  C5       1.0000 0.80230  0.44550  0.14281  Biso   1.000  C
  C6       1.0000 0.19770  0.55450  0.85719  Biso   1.000  C
  H5       1.0000 0.74950  0.30670  0.14010  Biso   1.000  H
  H6       1.0000 0.25050  0.69330  0.85990  Biso   1.000  H
  C7       1.0000 0.75830  0.50750  0.00095  Biso   1.000  C
  C8       1.0000 0.24170  0.49250  0.99905  Biso   1.000  C
  H7       1.0000 0.67790  0.40830  0.90540  Biso   1.000  H
  H8       1.0000 0.32210  0.59170  0.09460  Biso   1.000  H
  C9       1.0000 0.98750  0.78050  0.28063  Biso   1.000  C
  C10      1.0000 0.01250  0.21950  0.71937  Biso   1.000  C
  H9       1.0000 0.06720  0.88040  0.37570  Biso   1.000  H
  H10      1.0000 0.93280  0.11960  0.62430  Biso   1.000  H
  C11      1.0000 0.93970  0.83770  0.13652  Biso   1.000  C
  C12      1.0000 0.06030  0.16230  0.86348  Biso   1.000  C
  H11      1.0000 0.98910  0.97620  0.13840  Biso   1.000  H
  H12      1.0000 0.01090  0.02380  0.86160  Biso   1.000  H
