data_image0
_cell_length_a       9.0249
_cell_length_b       8.9181
_cell_length_c       9.5654
_cell_angle_alpha    90
_cell_angle_beta     115.017
_cell_angle_gamma    90

_symmetry_space_group_name_H-M    "P 1"
_symmetry_int_tables_number       1

loop_
  _symmetry_equiv_pos_as_xyz
  'x, y, z'

loop_
  _atom_site_label
  _atom_site_occupancy
  _atom_site_fract_x
  _atom_site_fract_y
  _atom_site_fract_z
  _atom_site_thermal_displace_type
  _atom_site_B_iso_or_equiv
  _atom_site_type_symbol
  Cu1      1.0000 0.00000  0.50000  0.50000  Biso   1.000  Cu
  Cu2      1.0000 0.50000  0.00000  0.00000  Biso   1.000  Cu
  N1       1.0000 0.08963  0.53440  0.72694  Biso   1.000  N
  N2       1.0000 0.41037  0.03440  0.77306  Biso   1.000  N
  N3       1.0000 0.91037  0.46560  0.27306  Biso   1.000  N
  N4       1.0000 0.58963  0.96560  0.22694  Biso   1.000  N
  C1       1.0000 0.20223  0.44372  0.82981  Biso   1.000  C
  C2       1.0000 0.29777  0.94372  0.67019  Biso   1.000  C
  C3       1.0000 0.79777  0.55628  0.17019  Biso   1.000  C
  C4       1.0000 0.70223  0.05628  0.32981  Biso   1.000  C
  C5       1.0000 0.25777  0.46682  0.98646  Biso   1.000  C
  C6       1.0000 0.24223  0.96682  0.51354  Biso   1.000  C
  C7       1.0000 0.74223  0.53318  0.01354  Biso   1.000  C
  C8       1.0000 0.75777  0.03318  0.48646  Biso   1.000  C
  C9       1.0000 0.19634  0.58512  0.04013  Biso   1.000  C
  C10      1.0000 0.30366  0.08512  0.45987  Biso   1.000  C
  C11      1.0000 0.80366  0.41488  0.95987  Biso   1.000  C
  C12      1.0000 0.69634  0.91488  0.54013  Biso   1.000  C
  C13      1.0000 0.08118  0.67870  0.93369  Biso   1.000  C
  C14      1.0000 0.41882  0.17870  0.56631  Biso   1.000  C
  C15      1.0000 0.91882  0.32130  0.06631  Biso   1.000  C
  C16      1.0000 0.58118  0.82130  0.43369  Biso   1.000  C
  C17      1.0000 0.03150  0.65026  0.77851  Biso   1.000  C
  C18      1.0000 0.46850  0.15026  0.72149  Biso   1.000  C
  C19      1.0000 0.96850  0.34974  0.22149  Biso   1.000  C
  C20      1.0000 0.53150  0.84974  0.27851  Biso   1.000  C
  S1       1.0000 0.40402  0.34577  0.12122  Biso   1.000  S
  S2       1.0000 0.09598  0.84577  0.37878  Biso   1.000  S
  S3       1.0000 0.59598  0.65423  0.87878  Biso   1.000  S
  S4       1.0000 0.90402  0.15423  0.62122  Biso   1.000  S
  O1       1.0000 0.49049  0.27343  0.04123  Biso   1.000  O
  O2       1.0000 0.00951  0.77343  0.45877  Biso   1.000  O
  O3       1.0000 0.50951  0.72657  0.95877  Biso   1.000  O
  O4       1.0000 0.99049  0.22657  0.54123  Biso   1.000  O
  O5       1.0000 0.30930  0.23984  0.16667  Biso   1.000  O
  O6       1.0000 0.19070  0.73984  0.33333  Biso   1.000  O
  O7       1.0000 0.69070  0.76016  0.83333  Biso   1.000  O
  O8       1.0000 0.80930  0.26016  0.66667  Biso   1.000  O
  O9       1.0000 0.50472  0.44299  0.24649  Biso   1.000  O
  O10      1.0000 0.99528  0.94299  0.25351  Biso   1.000  O
  O11      1.0000 0.49528  0.55701  0.75351  Biso   1.000  O
  O12      1.0000 0.00472  0.05701  0.74649  Biso   1.000  O
  O13      1.0000 0.22197  0.49310  0.50409  Biso   1.000  O
  O14      1.0000 0.27803  0.99310  0.99591  Biso   1.000  O
  O15      1.0000 0.77803  0.50690  0.49591  Biso   1.000  O
  O16      1.0000 0.72197  0.00690  0.00409  Biso   1.000  O
  H1       1.0000 0.24300  0.37000  0.79000  Biso   1.000  H
  H2       1.0000 0.25700  0.87000  0.71000  Biso   1.000  H
  H3       1.0000 0.75700  0.63000  0.21000  Biso   1.000  H
  H4       1.0000 0.74300  0.13000  0.29000  Biso   1.000  H
  H5       1.0000 0.22800  0.59700  0.14400  Biso   1.000  H
  H6       1.0000 0.27200  0.09700  0.35600  Biso   1.000  H
  H7       1.0000 0.77200  0.40300  0.85600  Biso   1.000  H
  H8       1.0000 0.72800  0.90300  0.64400  Biso   1.000  H
  H9       1.0000 0.03600  0.75900  0.96400  Biso   1.000  H
  H10      1.0000 0.46400  0.25900  0.53600  Biso   1.000  H
  H11      1.0000 0.96400  0.24100  0.03600  Biso   1.000  H
  H12      1.0000 0.53600  0.74100  0.46400  Biso   1.000  H
  H13      1.0000 0.95800  0.71400  0.70300  Biso   1.000  H
  H14      1.0000 0.54200  0.21400  0.79700  Biso   1.000  H
  H15      1.0000 0.04200  0.28600  0.29700  Biso   1.000  H
  H16      1.0000 0.45800  0.78600  0.20300  Biso   1.000  H
  H17      1.0000 0.29200  0.51100  0.57800  Biso   1.000  H
  H18      1.0000 0.20800  0.01100  0.92200  Biso   1.000  H
  H19      1.0000 0.70800  0.48900  0.42200  Biso   1.000  H
  H20      1.0000 0.79200  0.98900  0.07800  Biso   1.000  H
  H21      1.0000 0.23300  0.55100  0.44500  Biso   1.000  H
  H22      1.0000 0.26700  0.05100  0.05500  Biso   1.000  H
  H23      1.0000 0.76700  0.44900  0.55500  Biso   1.000  H
  H24      1.0000 0.73300  0.94900  0.94500  Biso   1.000  H
