data_image0
_cell_length_a       9.0443
_cell_length_b       9.0093
_cell_length_c       9.5518
_cell_angle_alpha    90
_cell_angle_beta     115.093
_cell_angle_gamma    90

_symmetry_space_group_name_H-M    "P 1"
_symmetry_int_tables_number       1

loop_
  _symmetry_equiv_pos_as_xyz
  'x, y, z'

loop_
  _atom_site_label
  _atom_site_occupancy
  _atom_site_fract_x
  _atom_site_fract_y
  _atom_site_fract_z
  _atom_site_thermal_displace_type
  _atom_site_B_iso_or_equiv
  _atom_site_type_symbol
  Cu1      1.0000 0.00000  0.50000  0.50000  Biso   1.000  Cu
  Cu2      1.0000 0.50000  0.00000  0.00000  Biso   1.000  Cu
  N1       1.0000 0.09012  0.53323  0.72816  Biso   1.000  N
  N2       1.0000 0.40988  0.03323  0.77184  Biso   1.000  N
  N3       1.0000 0.90988  0.46677  0.27184  Biso   1.000  N
  N4       1.0000 0.59012  0.96677  0.22816  Biso   1.000  N
  C1       1.0000 0.20174  0.44284  0.83030  Biso   1.000  C
  C2       1.0000 0.29826  0.94284  0.66970  Biso   1.000  C
  C3       1.0000 0.79826  0.55716  0.16970  Biso   1.000  C
  C4       1.0000 0.70174  0.05716  0.33030  Biso   1.000  C
  C5       1.0000 0.25896  0.46552  0.98778  Biso   1.000  C
  C6       1.0000 0.24104  0.96552  0.51222  Biso   1.000  C
  C7       1.0000 0.74104  0.53448  0.01222  Biso   1.000  C
  C8       1.0000 0.75896  0.03448  0.48778  Biso   1.000  C
  C9       1.0000 0.19939  0.58285  0.04187  Biso   1.000  C
  C10      1.0000 0.30061  0.08285  0.45813  Biso   1.000  C
  C11      1.0000 0.80061  0.41715  0.95813  Biso   1.000  C
  C12      1.0000 0.69939  0.91715  0.54187  Biso   1.000  C
  C13      1.0000 0.08475  0.67627  0.93613  Biso   1.000  C
  C14      1.0000 0.41525  0.17627  0.56387  Biso   1.000  C
  C15      1.0000 0.91525  0.32373  0.06387  Biso   1.000  C
  C16      1.0000 0.58475  0.82373  0.43613  Biso   1.000  C
  C17      1.0000 0.03351  0.64812  0.78038  Biso   1.000  C
  C18      1.0000 0.46649  0.14812  0.71962  Biso   1.000  C
  C19      1.0000 0.96649  0.35188  0.21962  Biso   1.000  C
  C20      1.0000 0.53351  0.85188  0.28038  Biso   1.000  C
  S1       1.0000 0.40399  0.34415  0.12153  Biso   1.000  S
  S2       1.0000 0.09601  0.84415  0.37847  Biso   1.000  S
  S3       1.0000 0.59601  0.65585  0.87847  Biso   1.000  S
  S4       1.0000 0.90399  0.15585  0.62153  Biso   1.000  S
  O1       1.0000 0.48910  0.27226  0.04078  Biso   1.000  O
  O2       1.0000 0.01090  0.77226  0.45922  Biso   1.000  O
  O3       1.0000 0.51090  0.72774  0.95922  Biso   1.000  O
  O4       1.0000 0.98910  0.22774  0.54078  Biso   1.000  O
  O5       1.0000 0.30878  0.23982  0.16643  Biso   1.000  O
  O6       1.0000 0.19122  0.73982  0.33357  Biso   1.000  O
  O7       1.0000 0.69122  0.76018  0.83357  Biso   1.000  O
  O8       1.0000 0.80878  0.26018  0.66643  Biso   1.000  O
  O9       1.0000 0.50555  0.43918  0.24751  Biso   1.000  O
  O10      1.0000 0.99445  0.93918  0.25249  Biso   1.000  O
  O11      1.0000 0.49445  0.56082  0.75249  Biso   1.000  O
  O12      1.0000 0.00555  0.06082  0.74751  Biso   1.000  O
  O13      1.0000 0.22195  0.49346  0.50395  Biso   1.000  O
  O14      1.0000 0.27805  0.99346  0.99605  Biso   1.000  O
  O15      1.0000 0.77805  0.50654  0.49605  Biso   1.000  O
  O16      1.0000 0.72195  0.00654  0.00395  Biso   1.000  O
  H1       1.0000 0.23300  0.36900  0.78900  Biso   1.000  H
  H2       1.0000 0.26700  0.86900  0.71100  Biso   1.000  H
  H3       1.0000 0.76700  0.63100  0.21100  Biso   1.000  H
  H4       1.0000 0.73300  0.13100  0.28900  Biso   1.000  H
  H5       1.0000 0.23200  0.59200  0.14600  Biso   1.000  H
  H6       1.0000 0.26800  0.09200  0.35400  Biso   1.000  H
  H7       1.0000 0.76800  0.40800  0.85400  Biso   1.000  H
  H8       1.0000 0.73200  0.90800  0.64600  Biso   1.000  H
  H9       1.0000 0.04400  0.75400  0.97500  Biso   1.000  H
  H10      1.0000 0.45600  0.25400  0.52500  Biso   1.000  H
  H11      1.0000 0.95600  0.24600  0.02500  Biso   1.000  H
  H12      1.0000 0.54400  0.74600  0.47500  Biso   1.000  H
  H13      1.0000 0.95900  0.71600  0.70400  Biso   1.000  H
  H14      1.0000 0.54100  0.21600  0.79600  Biso   1.000  H
  H15      1.0000 0.04100  0.28400  0.29600  Biso   1.000  H
  H16      1.0000 0.45900  0.78400  0.20400  Biso   1.000  H
  H17      1.0000 0.29400  0.51200  0.58400  Biso   1.000  H
  H18      1.0000 0.20600  0.01200  0.91600  Biso   1.000  H
  H19      1.0000 0.70600  0.48800  0.41600  Biso   1.000  H
  H20      1.0000 0.79400  0.98800  0.08400  Biso   1.000  H
  H21      1.0000 0.22900  0.55100  0.44500  Biso   1.000  H
  H22      1.0000 0.27100  0.05100  0.05500  Biso   1.000  H
  H23      1.0000 0.77100  0.44900  0.55500  Biso   1.000  H
  H24      1.0000 0.72900  0.94900  0.94500  Biso   1.000  H
