data_image0
_cell_length_a       9.0036
_cell_length_b       8.8584
_cell_length_c       9.5756
_cell_angle_alpha    90
_cell_angle_beta     114.931
_cell_angle_gamma    90

_symmetry_space_group_name_H-M    "P 1"
_symmetry_int_tables_number       1

loop_
  _symmetry_equiv_pos_as_xyz
  'x, y, z'

loop_
  _atom_site_label
  _atom_site_occupancy
  _atom_site_fract_x
  _atom_site_fract_y
  _atom_site_fract_z
  _atom_site_thermal_displace_type
  _atom_site_B_iso_or_equiv
  _atom_site_type_symbol
  Cu1      1.0000 0.00000  0.50000  0.50000  Biso   1.000  Cu
  Cu2      1.0000 0.50000  0.00000  0.00000  Biso   1.000  Cu
  N1       1.0000 0.08942  0.53494  0.72642  Biso   1.000  N
  N2       1.0000 0.41058  0.03494  0.77358  Biso   1.000  N
  N3       1.0000 0.91058  0.46506  0.27358  Biso   1.000  N
  N4       1.0000 0.58942  0.96506  0.22642  Biso   1.000  N
  C1       1.0000 0.20213  0.44389  0.82919  Biso   1.000  C
  C2       1.0000 0.29787  0.94389  0.67081  Biso   1.000  C
  C3       1.0000 0.79787  0.55611  0.17081  Biso   1.000  C
  C4       1.0000 0.70213  0.05611  0.32919  Biso   1.000  C
  C5       1.0000 0.25721  0.46744  0.98581  Biso   1.000  C
  C6       1.0000 0.24279  0.96744  0.51419  Biso   1.000  C
  C7       1.0000 0.74279  0.53256  0.01419  Biso   1.000  C
  C8       1.0000 0.75721  0.03256  0.48581  Biso   1.000  C
  C9       1.0000 0.19430  0.58619  0.03900  Biso   1.000  C
  C10      1.0000 0.30570  0.08619  0.46100  Biso   1.000  C
  C11      1.0000 0.80570  0.41381  0.96100  Biso   1.000  C
  C12      1.0000 0.69430  0.91381  0.53900  Biso   1.000  C
  C13      1.0000 0.07917  0.68006  0.93246  Biso   1.000  C
  C14      1.0000 0.42083  0.18006  0.56754  Biso   1.000  C
  C15      1.0000 0.92083  0.31994  0.06754  Biso   1.000  C
  C16      1.0000 0.57917  0.81994  0.43246  Biso   1.000  C
  C17      1.0000 0.03008  0.65141  0.77726  Biso   1.000  C
  C18      1.0000 0.46992  0.15141  0.72274  Biso   1.000  C
  C19      1.0000 0.96992  0.34859  0.22274  Biso   1.000  C
  C20      1.0000 0.53008  0.84859  0.27726  Biso   1.000  C
  S1       1.0000 0.40399  0.34667  0.12091  Biso   1.000  S
  S2       1.0000 0.09601  0.84667  0.37909  Biso   1.000  S
  S3       1.0000 0.59601  0.65333  0.87909  Biso   1.000  S
  S4       1.0000 0.90399  0.15333  0.62091  Biso   1.000  S
  O1       1.0000 0.49109  0.27368  0.04139  Biso   1.000  O
  O2       1.0000 0.00891  0.77368  0.45861  Biso   1.000  O
  O3       1.0000 0.50891  0.72632  0.95861  Biso   1.000  O
  O4       1.0000 0.99109  0.22632  0.54139  Biso   1.000  O
  O5       1.0000 0.30959  0.23968  0.16720  Biso   1.000  O
  O6       1.0000 0.19041  0.73968  0.33280  Biso   1.000  O
  O7       1.0000 0.69041  0.76032  0.83280  Biso   1.000  O
  O8       1.0000 0.80959  0.26032  0.66720  Biso   1.000  O
  O9       1.0000 0.50433  0.44556  0.24572  Biso   1.000  O
  O10      1.0000 0.99567  0.94556  0.25428  Biso   1.000  O
  O11      1.0000 0.49567  0.55444  0.75428  Biso   1.000  O
  O12      1.0000 0.00433  0.05444  0.74572  Biso   1.000  O
  O13      1.0000 0.22244  0.49278  0.50423  Biso   1.000  O
  O14      1.0000 0.27756  0.99278  0.99577  Biso   1.000  O
  O15      1.0000 0.77756  0.50722  0.49577  Biso   1.000  O
  O16      1.0000 0.72244  0.00722  0.00423  Biso   1.000  O
  H1       1.0000 0.24000  0.37000  0.78700  Biso   1.000  H
  H2       1.0000 0.26000  0.87000  0.71300  Biso   1.000  H
  H3       1.0000 0.76000  0.63000  0.21300  Biso   1.000  H
  H4       1.0000 0.74000  0.13000  0.28700  Biso   1.000  H
  H5       1.0000 0.22400  0.60000  0.14100  Biso   1.000  H
  H6       1.0000 0.27600  0.10000  0.35900  Biso   1.000  H
  H7       1.0000 0.77600  0.40000  0.85900  Biso   1.000  H
  H8       1.0000 0.72400  0.90000  0.64100  Biso   1.000  H
  H9       1.0000 0.03700  0.76400  0.96400  Biso   1.000  H
  H10      1.0000 0.46300  0.26400  0.53600  Biso   1.000  H
  H11      1.0000 0.96300  0.23600  0.03600  Biso   1.000  H
  H12      1.0000 0.53700  0.73600  0.46400  Biso   1.000  H
  H13      1.0000 0.95800  0.71400  0.70100  Biso   1.000  H
  H14      1.0000 0.54200  0.21400  0.79900  Biso   1.000  H
  H15      1.0000 0.04200  0.28600  0.29900  Biso   1.000  H
  H16      1.0000 0.45800  0.78600  0.20100  Biso   1.000  H
  H17      1.0000 0.29900  0.51100  0.58600  Biso   1.000  H
  H18      1.0000 0.20100  0.01100  0.91400  Biso   1.000  H
  H19      1.0000 0.70100  0.48900  0.41400  Biso   1.000  H
  H20      1.0000 0.79900  0.98900  0.08600  Biso   1.000  H
  H21      1.0000 0.23100  0.55400  0.44400  Biso   1.000  H
  H22      1.0000 0.26900  0.05400  0.05600  Biso   1.000  H
  H23      1.0000 0.76900  0.44600  0.55600  Biso   1.000  H
  H24      1.0000 0.73100  0.94600  0.94400  Biso   1.000  H
