data_image0
_cell_length_a       7.71
_cell_length_b       11
_cell_length_c       8.32
_cell_angle_alpha    90
_cell_angle_beta     97
_cell_angle_gamma    90

_symmetry_space_group_name_H-M    "P 1"
_symmetry_int_tables_number       1

loop_
  _symmetry_equiv_pos_as_xyz
  'x, y, z'

loop_
  _atom_site_label
  _atom_site_occupancy
  _atom_site_fract_x
  _atom_site_fract_y
  _atom_site_fract_z
  _atom_site_thermal_displace_type
  _atom_site_B_iso_or_equiv
  _atom_site_type_symbol
  Cu1      1.0000 0.50000  0.50000  0.50000  Biso   1.000  Cu
  Cu2      1.0000 0.00000  0.00000  0.00000  Biso   1.000  Cu
  O1       1.0000 0.62760  0.35320  0.44380  Biso   1.000  O
  O2       1.0000 0.87240  0.85320  0.05620  Biso   1.000  O
  O3       1.0000 0.37240  0.64680  0.55620  Biso   1.000  O
  O4       1.0000 0.12760  0.14680  0.94380  Biso   1.000  O
  O5       1.0000 0.52960  0.86700  0.08710  Biso   1.000  O
  O6       1.0000 0.97040  0.36700  0.41290  Biso   1.000  O
  O7       1.0000 0.47040  0.13300  0.91290  Biso   1.000  O
  O8       1.0000 0.02960  0.63300  0.58710  Biso   1.000  O
  O9       1.0000 0.23320  0.87340  0.95310  Biso   1.000  O
  O10      1.0000 0.26680  0.37340  0.54690  Biso   1.000  O
  O11      1.0000 0.76680  0.12660  0.04690  Biso   1.000  O
  O12      1.0000 0.73320  0.62660  0.45310  Biso   1.000  O
  O13      1.0000 0.46470  0.78870  0.81350  Biso   1.000  O
  O14      1.0000 0.03530  0.28870  0.68650  Biso   1.000  O
  O15      1.0000 0.53530  0.21130  0.18650  Biso   1.000  O
  O16      1.0000 0.96470  0.71130  0.31350  Biso   1.000  O
  N1       1.0000 0.39560  0.52750  0.26630  Biso   1.000  N
  N2       1.0000 0.10440  0.02750  0.23370  Biso   1.000  N
  N3       1.0000 0.60440  0.47250  0.73370  Biso   1.000  N
  N4       1.0000 0.89560  0.97250  0.76630  Biso   1.000  N
  S1       1.0000 0.40140  0.81160  0.96870  Biso   1.000  S
  S2       1.0000 0.09860  0.31160  0.53130  Biso   1.000  S
  S3       1.0000 0.59860  0.18840  0.03130  Biso   1.000  S
  S4       1.0000 0.90140  0.68840  0.46870  Biso   1.000  S
  C1       1.0000 0.41900  0.63910  0.19830  Biso   1.000  C
  C2       1.0000 0.08100  0.13910  0.30170  Biso   1.000  C
  C3       1.0000 0.58100  0.36090  0.80170  Biso   1.000  C
  C4       1.0000 0.91900  0.86090  0.69830  Biso   1.000  C
  C5       1.0000 0.35890  0.65990  0.04850  Biso   1.000  C
  C6       1.0000 0.14110  0.15990  0.45150  Biso   1.000  C
  C7       1.0000 0.64110  0.34010  0.95150  Biso   1.000  C
  C8       1.0000 0.85890  0.84010  0.54850  Biso   1.000  C
  C9       1.0000 0.24810  0.58660  0.95250  Biso   1.000  C
  C10      1.0000 0.25190  0.08660  0.54750  Biso   1.000  C
  C11      1.0000 0.75190  0.41340  0.04750  Biso   1.000  C
  C12      1.0000 0.74810  0.91340  0.45250  Biso   1.000  C
  C13      1.0000 0.22410  0.46940  0.02170  Biso   1.000  C
  C14      1.0000 0.27590  0.96940  0.47830  Biso   1.000  C
  C15      1.0000 0.77590  0.53060  0.97830  Biso   1.000  C
  C16      1.0000 0.72410  0.03060  0.52170  Biso   1.000  C
  C17      1.0000 0.29690  0.44260  0.17690  Biso   1.000  C
  C18      1.0000 0.20310  0.94260  0.32310  Biso   1.000  C
  C19      1.0000 0.70310  0.55740  0.82310  Biso   1.000  C
  C20      1.0000 0.79690  0.05740  0.67690  Biso   1.000  C
