data_image0
_cell_length_a       7.0789
_cell_length_b       21.657
_cell_length_c       10.3869
_cell_angle_alpha    90
_cell_angle_beta     97.831
_cell_angle_gamma    90

_symmetry_space_group_name_H-M    "P 1"
_symmetry_int_tables_number       1

loop_
  _symmetry_equiv_pos_as_xyz
  'x, y, z'

loop_
  _atom_site_label
  _atom_site_occupancy
  _atom_site_fract_x
  _atom_site_fract_y
  _atom_site_fract_z
  _atom_site_thermal_displace_type
  _atom_site_B_iso_or_equiv
  _atom_site_type_symbol
  Cu1      1.0000 0.19245  0.59882  0.35483  Biso   1.000  Cu
  Cu2      1.0000 0.80755  0.09882  0.14517  Biso   1.000  Cu
  Cu3      1.0000 0.80755  0.40118  0.64517  Biso   1.000  Cu
  Cu4      1.0000 0.19245  0.90118  0.85483  Biso   1.000  Cu
  O1       1.0000 0.28700  0.68413  0.38620  Biso   1.000  O
  O2       1.0000 0.71300  0.18413  0.11380  Biso   1.000  O
  O3       1.0000 0.71300  0.31587  0.61380  Biso   1.000  O
  O4       1.0000 0.28700  0.81587  0.88620  Biso   1.000  O
  O5       1.0000 0.52540  0.62395  0.35090  Biso   1.000  O
  O6       1.0000 0.47460  0.12395  0.14910  Biso   1.000  O
  O7       1.0000 0.47460  0.37605  0.64910  Biso   1.000  O
  O8       1.0000 0.52540  0.87605  0.85090  Biso   1.000  O
  O9       1.0000 0.98750  0.87832  0.72040  Biso   1.000  O
  O10      1.0000 0.01250  0.37832  0.77960  Biso   1.000  O
  O11      1.0000 0.01250  0.12168  0.27960  Biso   1.000  O
  O12      1.0000 0.98750  0.62168  0.22040  Biso   1.000  O
  O13      1.0000 0.18480  0.85294  0.57810  Biso   1.000  O
  O14      1.0000 0.81520  0.35294  0.92190  Biso   1.000  O
  O15      1.0000 0.81520  0.14706  0.42190  Biso   1.000  O
  O16      1.0000 0.18480  0.64706  0.07810  Biso   1.000  O
  N1       1.0000 0.22470  0.57897  0.54590  Biso   1.000  N
  N2       1.0000 0.77530  0.07897  0.95410  Biso   1.000  N
  N3       1.0000 0.77530  0.42103  0.45410  Biso   1.000  N
  N4       1.0000 0.22470  0.92103  0.04590  Biso   1.000  N
  N5       1.0000 0.20830  0.51216  0.30400  Biso   1.000  N
  N6       1.0000 0.79170  0.01216  0.19600  Biso   1.000  N
  N7       1.0000 0.79170  0.48784  0.69600  Biso   1.000  N
  N8       1.0000 0.20830  0.98784  0.80400  Biso   1.000  N
  N9       1.0000 0.26840  0.47171  0.51760  Biso   1.000  N
  N10      1.0000 0.73160  0.97171  0.98240  Biso   1.000  N
  N11      1.0000 0.73160  0.52829  0.48240  Biso   1.000  N
  N12      1.0000 0.26840  0.02829  0.01760  Biso   1.000  N
  C1       1.0000 0.46450  0.67510  0.38620  Biso   1.000  C
  C2       1.0000 0.53550  0.17510  0.11380  Biso   1.000  C
  C3       1.0000 0.53550  0.32490  0.61380  Biso   1.000  C
  C4       1.0000 0.46450  0.82490  0.88620  Biso   1.000  C
  C5       1.0000 0.60290  0.72449  0.43720  Biso   1.000  C
  C6       1.0000 0.39710  0.22449  0.06280  Biso   1.000  C
  C7       1.0000 0.39710  0.27551  0.56280  Biso   1.000  C
  C8       1.0000 0.60290  0.77551  0.93720  Biso   1.000  C
  C9       1.0000 0.79230  0.72030  0.41330  Biso   1.000  C
  C10      1.0000 0.20770  0.22030  0.08670  Biso   1.000  C
  C11      1.0000 0.20770  0.27970  0.58670  Biso   1.000  C
  C12      1.0000 0.79230  0.77970  0.91330  Biso   1.000  C
  C13      1.0000 0.92740  0.76159  0.47000  Biso   1.000  C
  C14      1.0000 0.07260  0.26159  0.03000  Biso   1.000  C
  C15      1.0000 0.07260  0.23841  0.53000  Biso   1.000  C
  C16      1.0000 0.92740  0.73841  0.97000  Biso   1.000  C
  C17      1.0000 0.87700  0.80668  0.55550  Biso   1.000  C
  C18      1.0000 0.12300  0.30668  0.94450  Biso   1.000  C
  C19      1.0000 0.12300  0.19332  0.44450  Biso   1.000  C
  C20      1.0000 0.87700  0.69332  0.05550  Biso   1.000  C
  C21      1.0000 0.68920  0.81095  0.57840  Biso   1.000  C
  C22      1.0000 0.31080  0.31095  0.92160  Biso   1.000  C
  C23      1.0000 0.31080  0.18905  0.42160  Biso   1.000  C
  C24      1.0000 0.68920  0.68905  0.07840  Biso   1.000  C
  C25      1.0000 0.55090  0.77088  0.51870  Biso   1.000  C
  C26      1.0000 0.44910  0.27088  0.98130  Biso   1.000  C
  C27      1.0000 0.44910  0.22912  0.48130  Biso   1.000  C
  C28      1.0000 0.55090  0.72912  0.01870  Biso   1.000  C
  C29      1.0000 0.03270  0.84908  0.62190  Biso   1.000  C
  C30      1.0000 0.96730  0.34908  0.87810  Biso   1.000  C
  C31      1.0000 0.96730  0.15092  0.37810  Biso   1.000  C
  C32      1.0000 0.03270  0.65092  0.12190  Biso   1.000  C
  C33      1.0000 0.25560  0.52230  0.59660  Biso   1.000  C
  C34      1.0000 0.74440  0.02230  0.90340  Biso   1.000  C
  C35      1.0000 0.74440  0.47770  0.40340  Biso   1.000  C
  C36      1.0000 0.25560  0.97770  0.09660  Biso   1.000  C
  C37      1.0000 0.28010  0.51200  0.73120  Biso   1.000  C
  C38      1.0000 0.71990  0.01200  0.76880  Biso   1.000  C
  C39      1.0000 0.71990  0.48800  0.26880  Biso   1.000  C
  C40      1.0000 0.28010  0.98800  0.23120  Biso   1.000  C
  C41      1.0000 0.26790  0.56080  0.81340  Biso   1.000  C
  C42      1.0000 0.73210  0.06080  0.68660  Biso   1.000  C
  C43      1.0000 0.73210  0.43920  0.18660  Biso   1.000  C
  C44      1.0000 0.26790  0.93920  0.31340  Biso   1.000  C
  C45      1.0000 0.23180  0.61970  0.76230  Biso   1.000  C
  C46      1.0000 0.76820  0.11970  0.73770  Biso   1.000  C
  C47      1.0000 0.76820  0.38030  0.23770  Biso   1.000  C
  C48      1.0000 0.23180  0.88030  0.26230  Biso   1.000  C
  C49      1.0000 0.21080  0.62650  0.63040  Biso   1.000  C
  C50      1.0000 0.78920  0.12650  0.86960  Biso   1.000  C
  C51      1.0000 0.78920  0.37350  0.36960  Biso   1.000  C
  C52      1.0000 0.21080  0.87350  0.13040  Biso   1.000  C
  C53      1.0000 0.25010  0.46448  0.38480  Biso   1.000  C
  C54      1.0000 0.74990  0.96448  0.11520  Biso   1.000  C
  C55      1.0000 0.74990  0.53552  0.61520  Biso   1.000  C
  C56      1.0000 0.25010  0.03552  0.88480  Biso   1.000  C
  C57      1.0000 0.27750  0.40470  0.33870  Biso   1.000  C
  C58      1.0000 0.72250  0.90470  0.16130  Biso   1.000  C
  C59      1.0000 0.72250  0.59530  0.66130  Biso   1.000  C
  C60      1.0000 0.27750  0.09530  0.83870  Biso   1.000  C
  C61      1.0000 0.26670  0.39540  0.20740  Biso   1.000  C
  C62      1.0000 0.73330  0.89540  0.29260  Biso   1.000  C
  C63      1.0000 0.73330  0.60460  0.79260  Biso   1.000  C
  C64      1.0000 0.26670  0.10460  0.70740  Biso   1.000  C
  C65      1.0000 0.22340  0.44460  0.12270  Biso   1.000  C
  C66      1.0000 0.77660  0.94460  0.37730  Biso   1.000  C
  C67      1.0000 0.77660  0.55540  0.87730  Biso   1.000  C
  C68      1.0000 0.22340  0.05540  0.62270  Biso   1.000  C
  C69      1.0000 0.19610  0.50090  0.17380  Biso   1.000  C
  C70      1.0000 0.80390  0.00090  0.32620  Biso   1.000  C
  C71      1.0000 0.80390  0.49910  0.82620  Biso   1.000  C
  C72      1.0000 0.19610  0.99910  0.67380  Biso   1.000  C
  H1       1.0000 0.82820  0.68890  0.35760  Biso   1.000  H
  H2       1.0000 0.17180  0.18890  0.14240  Biso   1.000  H
  H3       1.0000 0.17180  0.31110  0.64240  Biso   1.000  H
  H4       1.0000 0.82820  0.81110  0.85760  Biso   1.000  H
  H5       1.0000 0.05470  0.75930  0.45100  Biso   1.000  H
  H6       1.0000 0.94530  0.25930  0.04900  Biso   1.000  H
  H7       1.0000 0.94530  0.24070  0.54900  Biso   1.000  H
  H8       1.0000 0.05470  0.74070  0.95100  Biso   1.000  H
  H9       1.0000 0.65450  0.84180  0.63600  Biso   1.000  H
  H10      1.0000 0.34550  0.34180  0.86400  Biso   1.000  H
  H11      1.0000 0.34550  0.15820  0.36400  Biso   1.000  H
  H12      1.0000 0.65450  0.65820  0.13600  Biso   1.000  H
  H13      1.0000 0.42190  0.77510  0.53320  Biso   1.000  H
  H14      1.0000 0.57810  0.27510  0.96680  Biso   1.000  H
  H15      1.0000 0.57810  0.22490  0.46680  Biso   1.000  H
  H16      1.0000 0.42190  0.72490  0.03320  Biso   1.000  H
  H17      1.0000 0.30480  0.47160  0.76480  Biso   1.000  H
  H18      1.0000 0.69520  0.97160  0.73520  Biso   1.000  H
  H19      1.0000 0.69520  0.52840  0.23520  Biso   1.000  H
  H20      1.0000 0.30480  0.02840  0.26480  Biso   1.000  H
  H21      1.0000 0.28410  0.55450  0.90470  Biso   1.000  H
  H22      1.0000 0.71590  0.05450  0.59530  Biso   1.000  H
  H23      1.0000 0.71590  0.44550  0.09530  Biso   1.000  H
  H24      1.0000 0.28410  0.94550  0.40470  Biso   1.000  H
  H25      1.0000 0.22200  0.65420  0.81760  Biso   1.000  H
  H26      1.0000 0.77800  0.15420  0.68240  Biso   1.000  H
  H27      1.0000 0.77800  0.34580  0.18240  Biso   1.000  H
  H28      1.0000 0.22200  0.84580  0.31760  Biso   1.000  H
  H29      1.0000 0.18520  0.66670  0.59550  Biso   1.000  H
  H30      1.0000 0.81480  0.16670  0.90450  Biso   1.000  H
  H31      1.0000 0.81480  0.33330  0.40450  Biso   1.000  H
  H32      1.0000 0.18520  0.83330  0.09550  Biso   1.000  H
  H33      1.0000 0.30320  0.37120  0.39760  Biso   1.000  H
  H34      1.0000 0.69680  0.87120  0.10240  Biso   1.000  H
  H35      1.0000 0.69680  0.62880  0.60240  Biso   1.000  H
  H36      1.0000 0.30320  0.12880  0.89760  Biso   1.000  H
  H37      1.0000 0.28870  0.35550  0.17450  Biso   1.000  H
  H38      1.0000 0.71130  0.85550  0.32550  Biso   1.000  H
  H39      1.0000 0.71130  0.64450  0.82550  Biso   1.000  H
  H40      1.0000 0.28870  0.14450  0.67450  Biso   1.000  H
  H41      1.0000 0.21320  0.43890  0.03130  Biso   1.000  H
  H42      1.0000 0.78680  0.93890  0.46870  Biso   1.000  H
  H43      1.0000 0.78680  0.56110  0.96870  Biso   1.000  H
  H44      1.0000 0.21320  0.06110  0.53130  Biso   1.000  H
  H45      1.0000 0.16680  0.53450  0.11570  Biso   1.000  H
  H46      1.0000 0.83320  0.03450  0.38430  Biso   1.000  H
  H47      1.0000 0.83320  0.46550  0.88430  Biso   1.000  H
  H48      1.0000 0.16680  0.96550  0.61570  Biso   1.000  H
  H49      1.0000 0.31230  0.43540  0.56520  Biso   1.000  H
  H50      1.0000 0.68770  0.93540  0.93480  Biso   1.000  H
  H51      1.0000 0.68770  0.56460  0.43480  Biso   1.000  H
  H52      1.0000 0.31230  0.06460  0.06520  Biso   1.000  H
