data_image0
_cell_length_a       11.9431
_cell_length_b       17.3817
_cell_length_c       27.5244
_cell_angle_alpha    90
_cell_angle_beta     90.429
_cell_angle_gamma    90

_symmetry_space_group_name_H-M    "P 1"
_symmetry_int_tables_number       1

loop_
  _symmetry_equiv_pos_as_xyz
  'x, y, z'

loop_
  _atom_site_label
  _atom_site_occupancy
  _atom_site_fract_x
  _atom_site_fract_y
  _atom_site_fract_z
  _atom_site_thermal_displace_type
  _atom_site_B_iso_or_equiv
  _atom_site_type_symbol
  Mo1      1.0000 0.31564  0.23167  0.06869  Biso   1.000  Mo
  Mo2      1.0000 0.18436  0.73167  0.43131  Biso   1.000  Mo
  Mo3      1.0000 0.68436  0.76833  0.93131  Biso   1.000  Mo
  Mo4      1.0000 0.81564  0.26833  0.56869  Biso   1.000  Mo
  Mo5      1.0000 0.15430  0.26572  0.16818  Biso   1.000  Mo
  Mo6      1.0000 0.34570  0.76572  0.33182  Biso   1.000  Mo
  Mo7      1.0000 0.84570  0.73428  0.83182  Biso   1.000  Mo
  Mo8      1.0000 0.65430  0.23428  0.66818  Biso   1.000  Mo
  Mo9      1.0000 0.29515  0.29784  0.28713  Biso   1.000  Mo
  Mo10     1.0000 0.20485  0.79784  0.21287  Biso   1.000  Mo
  Mo11     1.0000 0.70485  0.70216  0.71287  Biso   1.000  Mo
  Mo12     1.0000 0.79515  0.20216  0.78713  Biso   1.000  Mo
  Mo13     1.0000 0.54978  0.21407  0.30226  Biso   1.000  Mo
  Mo14     1.0000 0.95022  0.71408  0.19774  Biso   1.000  Mo
  Mo15     1.0000 0.45022  0.78592  0.69774  Biso   1.000  Mo
  Mo16     1.0000 0.04978  0.28592  0.80226  Biso   1.000  Mo
  Mo17     1.0000 0.66101  0.09141  0.20384  Biso   1.000  Mo
  Mo18     1.0000 0.83899  0.59141  0.29616  Biso   1.000  Mo
  Mo19     1.0000 0.33899  0.90859  0.79616  Biso   1.000  Mo
  Mo20     1.0000 0.16101  0.40859  0.70384  Biso   1.000  Mo
  Mo21     1.0000 0.60405  0.15180  0.09015  Biso   1.000  Mo
  Mo22     1.0000 0.89595  0.65180  0.40985  Biso   1.000  Mo
  Mo23     1.0000 0.39595  0.84820  0.90985  Biso   1.000  Mo
  Mo24     1.0000 0.10405  0.34820  0.59015  Biso   1.000  Mo
  Cu1      1.0000 0.16494  0.57270  0.10313  Biso   1.000  Cu
  Cu2      1.0000 0.33506  0.07270  0.39687  Biso   1.000  Cu
  Cu3      1.0000 0.83506  0.42730  0.89687  Biso   1.000  Cu
  Cu4      1.0000 0.66494  0.92730  0.60313  Biso   1.000  Cu
  Cu5      1.0000 0.24973  0.98193  0.99344  Biso   1.000  Cu
  Cu6      1.0000 0.25027  0.48193  0.50656  Biso   1.000  Cu
  Cu7      1.0000 0.75027  0.01807  0.00656  Biso   1.000  Cu
  Cu8      1.0000 0.74973  0.51807  0.49344  Biso   1.000  Cu
  P1       1.0000 0.45716  0.24517  0.18008  Biso   1.000  P
  P2       1.0000 0.04284  0.74517  0.31992  Biso   1.000  P
  P3       1.0000 0.54284  0.75483  0.81992  Biso   1.000  P
  P4       1.0000 0.95716  0.25483  0.68008  Biso   1.000  P
  P5       1.0000 0.29608  0.40739  0.10632  Biso   1.000  P
  P6       1.0000 0.20392  0.90739  0.39368  Biso   1.000  P
  P7       1.0000 0.70392  0.59261  0.89368  Biso   1.000  P
  P8       1.0000 0.79608  0.09261  0.60632  Biso   1.000  P
  P9       1.0000 0.35524  0.04609  0.09138  Biso   1.000  P
  P10      1.0000 0.14476  0.54609  0.40862  Biso   1.000  P
  P11      1.0000 0.64476  0.95391  0.90862  Biso   1.000  P
  P12      1.0000 0.85524  0.45391  0.59138  Biso   1.000  P
  P13      1.0000 0.31911  0.10407  0.28776  Biso   1.000  P
  P14      1.0000 0.18089  0.60407  0.21224  Biso   1.000  P
  P15      1.0000 0.68089  0.89593  0.71224  Biso   1.000  P
  P16      1.0000 0.81911  0.39593  0.78776  Biso   1.000  P
  O1       1.0000 0.17860  0.24857  0.09497  Biso   1.000  O
  O2       1.0000 0.32140  0.74857  0.40503  Biso   1.000  O
  O3       1.0000 0.82140  0.75143  0.90503  Biso   1.000  O
  O4       1.0000 0.67860  0.25143  0.59497  Biso   1.000  O
  O5       1.0000 0.28520  0.23069  0.00862  Biso   1.000  O
  O6       1.0000 0.21480  0.73069  0.49138  Biso   1.000  O
  O7       1.0000 0.71480  0.76931  0.99138  Biso   1.000  O
  O8       1.0000 0.78520  0.26931  0.50862  Biso   1.000  O
  O9       1.0000 0.28520  0.11928  0.08234  Biso   1.000  O
  O10      1.0000 0.21480  0.61928  0.41766  Biso   1.000  O
  O11      1.0000 0.71480  0.88072  0.91766  Biso   1.000  O
  O12      1.0000 0.78520  0.38072  0.58234  Biso   1.000  O
  O13      1.0000 0.34540  0.23905  0.15293  Biso   1.000  O
  O14      1.0000 0.15460  0.73905  0.34707  Biso   1.000  O
  O15      1.0000 0.65460  0.76095  0.84707  Biso   1.000  O
  O16      1.0000 0.84540  0.26095  0.65293  Biso   1.000  O
  O17      1.0000 0.35130  0.34265  0.07493  Biso   1.000  O
  O18      1.0000 0.14870  0.84265  0.42507  Biso   1.000  O
  O19      1.0000 0.64870  0.65735  0.92507  Biso   1.000  O
  O20      1.0000 0.85130  0.15735  0.57493  Biso   1.000  O
  O21      1.0000 0.24910  0.46945  0.07459  Biso   1.000  O
  O22      1.0000 0.25090  0.96945  0.42541  Biso   1.000  O
  O23      1.0000 0.75090  0.53055  0.92541  Biso   1.000  O
  O24      1.0000 0.74910  0.03055  0.57459  Biso   1.000  O
  O25      1.0000 0.21790  0.37412  0.14407  Biso   1.000  O
  O26      1.0000 0.28210  0.87412  0.35593  Biso   1.000  O
  O27      1.0000 0.78210  0.62588  0.85593  Biso   1.000  O
  O28      1.0000 0.71790  0.12588  0.64407  Biso   1.000  O
  O29      1.0000 0.01760  0.29252  0.16400  Biso   1.000  O
  O30      1.0000 0.48240  0.79252  0.33600  Biso   1.000  O
  O31      1.0000 0.98240  0.70748  0.83600  Biso   1.000  O
  O32      1.0000 0.51760  0.20748  0.66400  Biso   1.000  O
  O33      1.0000 0.14690  0.16757  0.17733  Biso   1.000  O
  O34      1.0000 0.35310  0.66757  0.32267  Biso   1.000  O
  O35      1.0000 0.85310  0.83243  0.82267  Biso   1.000  O
  O36      1.0000 0.64690  0.33243  0.67733  Biso   1.000  O
  O37      1.0000 0.19600  0.29965  0.22936  Biso   1.000  O
  O38      1.0000 0.30400  0.79965  0.27064  Biso   1.000  O
  O39      1.0000 0.80400  0.70035  0.77064  Biso   1.000  O
  O40      1.0000 0.69600  0.20035  0.72936  Biso   1.000  O
  O41      1.0000 0.35430  0.38559  0.27350  Biso   1.000  O
  O42      1.0000 0.14570  0.88559  0.22650  Biso   1.000  O
  O43      1.0000 0.64570  0.61441  0.72650  Biso   1.000  O
  O44      1.0000 0.85430  0.11441  0.77350  Biso   1.000  O
  O45      1.0000 0.19960  0.31832  0.33058  Biso   1.000  O
  O46      1.0000 0.30040  0.81832  0.16942  Biso   1.000  O
  O47      1.0000 0.80040  0.68168  0.66942  Biso   1.000  O
  O48      1.0000 0.69960  0.18168  0.83058  Biso   1.000  O
  O49      1.0000 0.43860  0.25047  0.23414  Biso   1.000  O
  O50      1.0000 0.06140  0.75047  0.26586  Biso   1.000  O
  O51      1.0000 0.56140  0.74953  0.76586  Biso   1.000  O
  O52      1.0000 0.93860  0.24953  0.73414  Biso   1.000  O
  O53      1.0000 0.25050  0.17677  0.27850  Biso   1.000  O
  O54      1.0000 0.24950  0.67677  0.22150  Biso   1.000  O
  O55      1.0000 0.74950  0.82323  0.72150  Biso   1.000  O
  O56      1.0000 0.75050  0.32323  0.77850  Biso   1.000  O
  O57      1.0000 0.41090  0.25517  0.32638  Biso   1.000  O
  O58      1.0000 0.08910  0.75517  0.17362  Biso   1.000  O
  O59      1.0000 0.58910  0.74483  0.67362  Biso   1.000  O
  O60      1.0000 0.91090  0.24483  0.82638  Biso   1.000  O
  O61      1.0000 0.28030  0.05918  0.33173  Biso   1.000  O
  O62      1.0000 0.21970  0.55918  0.16827  Biso   1.000  O
  O63      1.0000 0.71970  0.94082  0.66827  Biso   1.000  O
  O64      1.0000 0.78030  0.44082  0.83173  Biso   1.000  O
  O65      1.0000 0.60280  0.18121  0.35568  Biso   1.000  O
  O66      1.0000 0.89720  0.68121  0.14432  Biso   1.000  O
  O67      1.0000 0.39720  0.81879  0.64432  Biso   1.000  O
  O68      1.0000 0.10280  0.31879  0.85568  Biso   1.000  O
  O69      1.0000 0.44450  0.11668  0.28729  Biso   1.000  O
  O70      1.0000 0.05550  0.61668  0.21271  Biso   1.000  O
  O71      1.0000 0.55550  0.88332  0.71271  Biso   1.000  O
  O72      1.0000 0.94450  0.38332  0.78729  Biso   1.000  O
  O73      1.0000 0.61830  0.30027  0.29370  Biso   1.000  O
  O74      1.0000 0.88170  0.80027  0.20630  Biso   1.000  O
  O75      1.0000 0.38170  0.69973  0.70630  Biso   1.000  O
  O76      1.0000 0.11830  0.19973  0.79370  Biso   1.000  O
  O77      1.0000 0.64090  0.15660  0.25594  Biso   1.000  O
  O78      1.0000 0.85910  0.65660  0.24406  Biso   1.000  O
  O79      1.0000 0.35910  0.84340  0.74406  Biso   1.000  O
  O80      1.0000 0.14090  0.34340  0.75594  Biso   1.000  O
  O81      1.0000 0.54570  0.03215  0.20664  Biso   1.000  O
  O82      1.0000 0.95430  0.53215  0.29336  Biso   1.000  O
  O83      1.0000 0.45430  0.96785  0.79336  Biso   1.000  O
  O84      1.0000 0.04570  0.46785  0.70664  Biso   1.000  O
  O85      1.0000 0.76580  0.03096  0.22199  Biso   1.000  O
  O86      1.0000 0.73420  0.53096  0.27801  Biso   1.000  O
  O87      1.0000 0.23420  0.96904  0.77801  Biso   1.000  O
  O88      1.0000 0.26580  0.46904  0.72199  Biso   1.000  O
  O89      1.0000 0.79830  0.18451  0.19009  Biso   1.000  O
  O90      1.0000 0.70170  0.68451  0.30991  Biso   1.000  O
  O91      1.0000 0.20170  0.81549  0.80991  Biso   1.000  O
  O92      1.0000 0.29830  0.31549  0.69009  Biso   1.000  O
  O93      1.0000 0.53530  0.17953  0.16616  Biso   1.000  O
  O94      1.0000 0.96470  0.67953  0.33384  Biso   1.000  O
  O95      1.0000 0.46470  0.82047  0.83384  Biso   1.000  O
  O96      1.0000 0.03530  0.32047  0.66616  Biso   1.000  O
  O97      1.0000 0.68340  0.08889  0.13359  Biso   1.000  O
  O98      1.0000 0.81660  0.58889  0.36641  Biso   1.000  O
  O99      1.0000 0.31660  0.91111  0.86641  Biso   1.000  O
  O100     1.0000 0.18340  0.41111  0.63359  Biso   1.000  O
  O101     1.0000 0.47850  0.06216  0.09641  Biso   1.000  O
  O102     1.0000 0.02150  0.56216  0.40359  Biso   1.000  O
  O103     1.0000 0.52150  0.93784  0.90359  Biso   1.000  O
  O104     1.0000 0.97850  0.43784  0.59641  Biso   1.000  O
  O105     1.0000 0.64720  0.11580  0.03515  Biso   1.000  O
  O106     1.0000 0.85280  0.61580  0.46485  Biso   1.000  O
  O107     1.0000 0.35280  0.88420  0.96485  Biso   1.000  O
  O108     1.0000 0.14720  0.38420  0.53515  Biso   1.000  O
  O109     1.0000 0.68010  0.23485  0.09603  Biso   1.000  O
  O110     1.0000 0.81990  0.73485  0.40397  Biso   1.000  O
  O111     1.0000 0.31990  0.76515  0.90397  Biso   1.000  O
  O112     1.0000 0.18010  0.26515  0.59603  Biso   1.000  O
  O113     1.0000 0.46630  0.20817  0.06966  Biso   1.000  O
  O114     1.0000 0.03370  0.70817  0.43034  Biso   1.000  O
  O115     1.0000 0.53370  0.79183  0.93034  Biso   1.000  O
  O116     1.0000 0.96630  0.29183  0.56966  Biso   1.000  O
  O117     1.0000 0.32570  0.98433  0.05500  Biso   1.000  O
  O118     1.0000 0.17430  0.48433  0.44500  Biso   1.000  O
  O119     1.0000 0.67430  0.01567  0.94500  Biso   1.000  O
  O120     1.0000 0.82570  0.51567  0.55500  Biso   1.000  O
  O121     1.0000 0.90300  0.01920  0.29930  Biso   1.000  O
  O122     1.0000 0.59700  0.51920  0.20070  Biso   1.000  O
  O123     1.0000 0.09700  0.98080  0.70070  Biso   1.000  O
  O124     1.0000 0.40300  0.48080  0.79930  Biso   1.000  O
  O125     1.0000 0.84770  0.13370  0.33720  Biso   1.000  O
  O126     1.0000 0.65230  0.63370  0.16280  Biso   1.000  O
  O127     1.0000 0.15230  0.86630  0.66280  Biso   1.000  O
  O128     1.0000 0.34770  0.36630  0.83720  Biso   1.000  O
  O129     1.0000 0.88890  0.01160  0.49240  Biso   1.000  O
  O130     1.0000 0.61110  0.51160  0.00760  Biso   1.000  O
  O131     1.0000 0.11110  0.98840  0.50760  Biso   1.000  O
  O132     1.0000 0.38890  0.48840  0.99240  Biso   1.000  O
  O133     1.0000 0.00820  0.16110  0.27383  Biso   1.000  O
  O134     1.0000 0.49180  0.66110  0.22617  Biso   1.000  O
  O135     1.0000 0.99180  0.83890  0.72617  Biso   1.000  O
  O136     1.0000 0.50820  0.33890  0.77383  Biso   1.000  O
  O137     1.0000 0.84700  0.27220  0.25810  Biso   1.000  O
  O138     1.0000 0.65300  0.77220  0.24190  Biso   1.000  O
  O139     1.0000 0.15300  0.72780  0.74190  Biso   1.000  O
  O140     1.0000 0.34700  0.22780  0.75810  Biso   1.000  O
  O141     1.0000 0.77690  0.32610  0.22495  Biso   1.000  O
  O142     1.0000 0.72310  0.82610  0.27505  Biso   1.000  O
  O143     1.0000 0.22310  0.67390  0.77505  Biso   1.000  O
  O144     1.0000 0.27690  0.17390  0.72495  Biso   1.000  O
  O145     1.0000 0.52490  0.87980  0.23873  Biso   1.000  O
  O146     1.0000 0.97510  0.37980  0.26127  Biso   1.000  O
  O147     1.0000 0.47510  0.12020  0.76127  Biso   1.000  O
  O148     1.0000 0.02490  0.62020  0.73873  Biso   1.000  O
  N1       1.0000 0.29730  0.63676  0.08084  Biso   1.000  N
  N2       1.0000 0.20270  0.13676  0.41916  Biso   1.000  N
  N3       1.0000 0.70270  0.36324  0.91916  Biso   1.000  N
  N4       1.0000 0.79730  0.86324  0.58084  Biso   1.000  N
  N5       1.0000 0.10840  0.60824  0.04146  Biso   1.000  N
  N6       1.0000 0.39160  0.10824  0.45854  Biso   1.000  N
  N7       1.0000 0.89160  0.39176  0.95854  Biso   1.000  N
  N8       1.0000 0.60840  0.89176  0.54146  Biso   1.000  N
  N9       1.0000 0.00760  0.53050  0.10611  Biso   1.000  N
  N10      1.0000 0.49240  0.03050  0.39389  Biso   1.000  N
  N11      1.0000 0.99240  0.46950  0.89389  Biso   1.000  N
  N12      1.0000 0.50760  0.96950  0.60611  Biso   1.000  N
  N13      1.0000 0.13130  0.90695  0.01539  Biso   1.000  N
  N14      1.0000 0.36870  0.40695  0.48461  Biso   1.000  N
  N15      1.0000 0.86870  0.09305  0.98461  Biso   1.000  N
  N16      1.0000 0.63130  0.59305  0.51539  Biso   1.000  N
  N17      1.0000 0.14710  0.98948  0.93884  Biso   1.000  N
  N18      1.0000 0.35290  0.48948  0.56116  Biso   1.000  N
  N19      1.0000 0.85290  0.01052  0.06116  Biso   1.000  N
  N20      1.0000 0.64710  0.51052  0.43884  Biso   1.000  N
  N21      1.0000 0.33070  0.06095  0.95321  Biso   1.000  N
  N22      1.0000 0.16930  0.56095  0.54679  Biso   1.000  N
  N23      1.0000 0.66930  0.93905  0.04679  Biso   1.000  N
  N24      1.0000 0.83070  0.43905  0.45321  Biso   1.000  N
  N25      1.0000 0.46510  0.40348  0.17884  Biso   1.000  N
  N26      1.0000 0.03490  0.90348  0.32116  Biso   1.000  N
  N27      1.0000 0.53490  0.59652  0.82116  Biso   1.000  N
  N28      1.0000 0.96510  0.09652  0.67884  Biso   1.000  N
  N29      1.0000 0.32490  0.06660  0.18983  Biso   1.000  N
  N30      1.0000 0.17510  0.56660  0.31017  Biso   1.000  N
  N31      1.0000 0.67510  0.93340  0.81017  Biso   1.000  N
  N32      1.0000 0.82490  0.43340  0.68983  Biso   1.000  N
  C1       1.0000 0.39560  0.64280  0.10394  Biso   1.000  C
  C2       1.0000 0.10440  0.14280  0.39606  Biso   1.000  C
  C3       1.0000 0.60440  0.35720  0.89606  Biso   1.000  C
  C4       1.0000 0.89560  0.85720  0.60394  Biso   1.000  C
  C5       1.0000 0.49280  0.66350  0.08040  Biso   1.000  C
  C6       1.0000 0.00720  0.16350  0.41960  Biso   1.000  C
  C7       1.0000 0.50720  0.33650  0.91960  Biso   1.000  C
  C8       1.0000 0.99280  0.83650  0.58040  Biso   1.000  C
  C9       1.0000 0.48770  0.67910  0.03170  Biso   1.000  C
  C10      1.0000 0.01230  0.17910  0.46830  Biso   1.000  C
  C11      1.0000 0.51230  0.32090  0.96830  Biso   1.000  C
  C12      1.0000 0.98770  0.82090  0.53170  Biso   1.000  C
  C13      1.0000 0.38560  0.67660  0.00763  Biso   1.000  C
  C14      1.0000 0.11440  0.17660  0.49237  Biso   1.000  C
  C15      1.0000 0.61440  0.32340  0.99237  Biso   1.000  C
  C16      1.0000 0.88560  0.82340  0.50763  Biso   1.000  C
  C17      1.0000 0.29090  0.65470  0.03292  Biso   1.000  C
  C18      1.0000 0.20910  0.15470  0.46708  Biso   1.000  C
  C19      1.0000 0.70910  0.34530  0.96708  Biso   1.000  C
  C20      1.0000 0.79090  0.84530  0.53292  Biso   1.000  C
  C21      1.0000 0.17760  0.64580  0.01196  Biso   1.000  C
  C22      1.0000 0.32240  0.14580  0.48804  Biso   1.000  C
  C23      1.0000 0.82240  0.35420  0.98804  Biso   1.000  C
  C24      1.0000 0.67760  0.85420  0.51196  Biso   1.000  C
  C25      1.0000 0.13990  0.67130  0.96646  Biso   1.000  C
  C26      1.0000 0.36010  0.17130  0.53354  Biso   1.000  C
  C27      1.0000 0.86010  0.32870  0.03354  Biso   1.000  C
  C28      1.0000 0.63990  0.82870  0.46646  Biso   1.000  C
  C29      1.0000 0.03100  0.65590  0.95369  Biso   1.000  C
  C30      1.0000 0.46900  0.15590  0.54631  Biso   1.000  C
  C31      1.0000 0.96900  0.34410  0.04631  Biso   1.000  C
  C32      1.0000 0.53100  0.84410  0.45369  Biso   1.000  C
  C33      1.0000 0.96010  0.61700  0.98431  Biso   1.000  C
  C34      1.0000 0.53990  0.11700  0.51569  Biso   1.000  C
  C35      1.0000 0.03990  0.38300  0.01569  Biso   1.000  C
  C36      1.0000 0.46010  0.88300  0.48431  Biso   1.000  C
  C37      1.0000 0.00180  0.59310  0.02935  Biso   1.000  C
  C38      1.0000 0.49820  0.09310  0.47065  Biso   1.000  C
  C39      1.0000 0.99820  0.40690  0.97065  Biso   1.000  C
  C40      1.0000 0.50180  0.90690  0.52935  Biso   1.000  C
  C41      1.0000 0.94260  0.55010  0.06715  Biso   1.000  C
  C42      1.0000 0.55740  0.05010  0.43285  Biso   1.000  C
  C43      1.0000 0.05740  0.44990  0.93285  Biso   1.000  C
  C44      1.0000 0.44260  0.94990  0.56715  Biso   1.000  C
  C45      1.0000 0.83000  0.52920  0.06370  Biso   1.000  C
  C46      1.0000 0.67000  0.02920  0.43630  Biso   1.000  C
  C47      1.0000 0.17000  0.47080  0.93630  Biso   1.000  C
  C48      1.0000 0.33000  0.97080  0.56370  Biso   1.000  C
  C49      1.0000 0.78530  0.48800  0.10210  Biso   1.000  C
  C50      1.0000 0.71470  0.98800  0.39790  Biso   1.000  C
  C51      1.0000 0.21470  0.51200  0.89790  Biso   1.000  C
  C52      1.0000 0.28530  0.01200  0.60210  Biso   1.000  C
  C53      1.0000 0.85100  0.46700  0.14100  Biso   1.000  C
  C54      1.0000 0.64900  0.96700  0.35900  Biso   1.000  C
  C55      1.0000 0.14900  0.53300  0.85900  Biso   1.000  C
  C56      1.0000 0.35100  0.03300  0.64100  Biso   1.000  C
  C57      1.0000 0.96290  0.48880  0.14170  Biso   1.000  C
  C58      1.0000 0.53710  0.98880  0.35830  Biso   1.000  C
  C59      1.0000 0.03710  0.51120  0.85830  Biso   1.000  C
  C60      1.0000 0.46290  0.01120  0.64170  Biso   1.000  C
  C61      1.0000 0.13080  0.86630  0.05649  Biso   1.000  C
  C62      1.0000 0.36920  0.36630  0.44351  Biso   1.000  C
  C63      1.0000 0.86920  0.13370  0.94351  Biso   1.000  C
  C64      1.0000 0.63080  0.63370  0.55649  Biso   1.000  C
  C65      1.0000 0.04660  0.81460  0.06782  Biso   1.000  C
  C66      1.0000 0.45340  0.31460  0.43218  Biso   1.000  C
  C67      1.0000 0.95340  0.18540  0.93218  Biso   1.000  C
  C68      1.0000 0.54660  0.68540  0.56782  Biso   1.000  C
  C69      1.0000 0.95770  0.80630  0.03525  Biso   1.000  C
  C70      1.0000 0.54230  0.30630  0.46475  Biso   1.000  C
  C71      1.0000 0.04230  0.19370  0.96475  Biso   1.000  C
  C72      1.0000 0.45770  0.69370  0.53525  Biso   1.000  C
  C73      1.0000 0.95910  0.84810  0.99226  Biso   1.000  C
  C74      1.0000 0.54090  0.34810  0.50774  Biso   1.000  C
  C75      1.0000 0.04090  0.15190  0.00774  Biso   1.000  C
  C76      1.0000 0.45910  0.65190  0.49226  Biso   1.000  C
  C77      1.0000 0.04570  0.89710  0.98314  Biso   1.000  C
  C78      1.0000 0.45430  0.39710  0.51686  Biso   1.000  C
  C79      1.0000 0.95430  0.10290  0.01686  Biso   1.000  C
  C80      1.0000 0.54570  0.60290  0.48314  Biso   1.000  C
  C81      1.0000 0.05760  0.94320  0.93802  Biso   1.000  C
  C82      1.0000 0.44240  0.44320  0.56198  Biso   1.000  C
  C83      1.0000 0.94240  0.05680  0.06198  Biso   1.000  C
  C84      1.0000 0.55760  0.55680  0.43802  Biso   1.000  C
  C85      1.0000 0.98830  0.94100  0.89713  Biso   1.000  C
  C86      1.0000 0.51170  0.44100  0.60287  Biso   1.000  C
  C87      1.0000 0.01170  0.05900  0.10287  Biso   1.000  C
  C88      1.0000 0.48830  0.55900  0.39713  Biso   1.000  C
  C89      1.0000 0.01310  0.98980  0.85890  Biso   1.000  C
  C90      1.0000 0.48690  0.48980  0.64110  Biso   1.000  C
  C91      1.0000 0.98690  0.01020  0.14110  Biso   1.000  C
  C92      1.0000 0.51310  0.51020  0.35890  Biso   1.000  C
  C93      1.0000 0.10500  0.03880  0.86088  Biso   1.000  C
  C94      1.0000 0.39500  0.53880  0.63912  Biso   1.000  C
  C95      1.0000 0.89500  0.96120  0.13912  Biso   1.000  C
  C96      1.0000 0.60500  0.46120  0.36088  Biso   1.000  C
  C97      1.0000 0.17320  0.03550  0.90192  Biso   1.000  C
  C98      1.0000 0.32680  0.53550  0.59808  Biso   1.000  C
  C99      1.0000 0.82680  0.96450  0.09808  Biso   1.000  C
  C100     1.0000 0.67320  0.46450  0.40192  Biso   1.000  C
  C101     1.0000 0.28040  0.07670  0.90971  Biso   1.000  C
  C102     1.0000 0.21960  0.57670  0.59029  Biso   1.000  C
  C103     1.0000 0.71960  0.92330  0.09029  Biso   1.000  C
  C104     1.0000 0.78040  0.42330  0.40971  Biso   1.000  C
  C105     1.0000 0.33000  0.12320  0.87556  Biso   1.000  C
  C106     1.0000 0.17000  0.62320  0.62444  Biso   1.000  C
  C107     1.0000 0.67000  0.87680  0.12444  Biso   1.000  C
  C108     1.0000 0.83000  0.37680  0.37556  Biso   1.000  C
  C109     1.0000 0.43470  0.15380  0.88502  Biso   1.000  C
  C110     1.0000 0.06530  0.65380  0.61498  Biso   1.000  C
  C111     1.0000 0.56530  0.84620  0.11498  Biso   1.000  C
  C112     1.0000 0.93470  0.34620  0.38502  Biso   1.000  C
  C113     1.0000 0.48650  0.13780  0.92869  Biso   1.000  C
  C114     1.0000 0.01350  0.63780  0.57131  Biso   1.000  C
  C115     1.0000 0.51350  0.86220  0.07131  Biso   1.000  C
  C116     1.0000 0.98650  0.36220  0.42869  Biso   1.000  C
  C117     1.0000 0.43150  0.09090  0.96203  Biso   1.000  C
  C118     1.0000 0.06850  0.59090  0.53797  Biso   1.000  C
  C119     1.0000 0.56850  0.90910  0.03797  Biso   1.000  C
  C120     1.0000 0.93150  0.40910  0.46203  Biso   1.000  C
  C121     1.0000 0.52650  0.33330  0.16216  Biso   1.000  C
  C122     1.0000 0.97350  0.83330  0.33784  Biso   1.000  C
  C123     1.0000 0.47350  0.66670  0.83784  Biso   1.000  C
  C124     1.0000 0.02650  0.16670  0.66216  Biso   1.000  C
  C125     1.0000 0.41160  0.45060  0.13950  Biso   1.000  C
  C126     1.0000 0.08840  0.95060  0.36050  Biso   1.000  C
  C127     1.0000 0.58840  0.54940  0.86050  Biso   1.000  C
  C128     1.0000 0.91160  0.04940  0.63950  Biso   1.000  C
  C129     1.0000 0.30900  0.00860  0.14978  Biso   1.000  C
  C130     1.0000 0.19100  0.50860  0.35022  Biso   1.000  C
  C131     1.0000 0.69100  0.99140  0.85022  Biso   1.000  C
  C132     1.0000 0.80900  0.49140  0.64978  Biso   1.000  C
  C133     1.0000 0.28600  0.03800  0.23825  Biso   1.000  C
  C134     1.0000 0.21400  0.53800  0.26175  Biso   1.000  C
  C135     1.0000 0.71400  0.96200  0.76175  Biso   1.000  C
  C136     1.0000 0.78600  0.46200  0.73825  Biso   1.000  C
  H1       1.0000 0.40200  0.63100  0.13810  Biso   1.000  H
  H2       1.0000 0.09800  0.13100  0.36190  Biso   1.000  H
  H3       1.0000 0.59800  0.36900  0.86190  Biso   1.000  H
  H4       1.0000 0.90200  0.86900  0.63810  Biso   1.000  H
  H5       1.0000 0.57300  0.66500  0.09860  Biso   1.000  H
  H6       1.0000 0.92700  0.16500  0.40140  Biso   1.000  H
  H7       1.0000 0.42700  0.33500  0.90140  Biso   1.000  H
  H8       1.0000 0.07300  0.83500  0.59860  Biso   1.000  H
  H9       1.0000 0.55100  0.69000  0.01450  Biso   1.000  H
  H10      1.0000 0.94900  0.19000  0.48550  Biso   1.000  H
  H11      1.0000 0.44900  0.31000  0.98550  Biso   1.000  H
  H12      1.0000 0.05100  0.81000  0.51450  Biso   1.000  H
  H13      1.0000 0.38200  0.68400  0.97730  Biso   1.000  H
  H14      1.0000 0.11800  0.18400  0.52270  Biso   1.000  H
  H15      1.0000 0.61800  0.31600  0.02270  Biso   1.000  H
  H16      1.0000 0.88200  0.81600  0.47730  Biso   1.000  H
  H17      1.0000 0.19700  0.69900  0.94700  Biso   1.000  H
  H18      1.0000 0.30300  0.19900  0.55300  Biso   1.000  H
  H19      1.0000 0.80300  0.30100  0.05300  Biso   1.000  H
  H20      1.0000 0.69700  0.80100  0.44700  Biso   1.000  H
  H21      1.0000 0.00500  0.66900  0.92600  Biso   1.000  H
  H22      1.0000 0.49500  0.16900  0.57400  Biso   1.000  H
  H23      1.0000 0.99500  0.33100  0.07400  Biso   1.000  H
  H24      1.0000 0.50500  0.83100  0.42600  Biso   1.000  H
  H25      1.0000 0.89200  0.60900  0.97630  Biso   1.000  H
  H26      1.0000 0.60800  0.10900  0.52370  Biso   1.000  H
  H27      1.0000 0.10800  0.39100  0.02370  Biso   1.000  H
  H28      1.0000 0.39200  0.89100  0.47630  Biso   1.000  H
  H29      1.0000 0.77900  0.55000  0.03200  Biso   1.000  H
  H30      1.0000 0.72100  0.05000  0.46800  Biso   1.000  H
  H31      1.0000 0.22100  0.45000  0.96800  Biso   1.000  H
  H32      1.0000 0.27900  0.95000  0.53200  Biso   1.000  H
  H33      1.0000 0.70800  0.47500  0.09500  Biso   1.000  H
  H34      1.0000 0.79200  0.97500  0.40500  Biso   1.000  H
  H35      1.0000 0.29200  0.52500  0.90500  Biso   1.000  H
  H36      1.0000 0.20800  0.02500  0.59500  Biso   1.000  H
  H37      1.0000 0.82100  0.43700  0.16800  Biso   1.000  H
  H38      1.0000 0.67900  0.93700  0.33200  Biso   1.000  H
  H39      1.0000 0.17900  0.56300  0.83200  Biso   1.000  H
  H40      1.0000 0.32100  0.06300  0.66800  Biso   1.000  H
  H41      1.0000 0.01100  0.47100  0.16570  Biso   1.000  H
  H42      1.0000 0.48900  0.97100  0.33430  Biso   1.000  H
  H43      1.0000 0.98900  0.52900  0.83430  Biso   1.000  H
  H44      1.0000 0.51100  0.02900  0.66570  Biso   1.000  H
  H45      1.0000 0.19400  0.87000  0.07770  Biso   1.000  H
  H46      1.0000 0.30600  0.37000  0.42230  Biso   1.000  H
  H47      1.0000 0.80600  0.13000  0.92230  Biso   1.000  H
  H48      1.0000 0.69400  0.63000  0.57770  Biso   1.000  H
  H49      1.0000 0.04300  0.78600  0.09680  Biso   1.000  H
  H50      1.0000 0.45700  0.28600  0.40320  Biso   1.000  H
  H51      1.0000 0.95700  0.21400  0.90320  Biso   1.000  H
  H52      1.0000 0.54300  0.71400  0.59680  Biso   1.000  H
  H53      1.0000 0.90200  0.77000  0.04200  Biso   1.000  H
  H54      1.0000 0.59800  0.27000  0.45800  Biso   1.000  H
  H55      1.0000 0.09800  0.23000  0.95800  Biso   1.000  H
  H56      1.0000 0.40200  0.73000  0.54200  Biso   1.000  H
  H57      1.0000 0.90100  0.84300  0.97250  Biso   1.000  H
  H58      1.0000 0.59900  0.34300  0.52750  Biso   1.000  H
  H59      1.0000 0.09900  0.15700  0.02750  Biso   1.000  H
  H60      1.0000 0.40100  0.65700  0.47250  Biso   1.000  H
  H61      1.0000 0.93600  0.90800  0.89550  Biso   1.000  H
  H62      1.0000 0.56400  0.40800  0.60450  Biso   1.000  H
  H63      1.0000 0.06400  0.09200  0.10450  Biso   1.000  H
  H64      1.0000 0.43600  0.59200  0.39550  Biso   1.000  H
  H65      1.0000 0.96400  0.99100  0.83440  Biso   1.000  H
  H66      1.0000 0.53600  0.49100  0.66560  Biso   1.000  H
  H67      1.0000 0.03600  0.00900  0.16560  Biso   1.000  H
  H68      1.0000 0.46400  0.50900  0.33440  Biso   1.000  H
  H69      1.0000 0.12100  0.07200  0.83750  Biso   1.000  H
  H70      1.0000 0.37900  0.57200  0.66250  Biso   1.000  H
  H71      1.0000 0.87900  0.92800  0.16250  Biso   1.000  H
  H72      1.0000 0.62100  0.42800  0.33750  Biso   1.000  H
  H73      1.0000 0.30100  0.13100  0.84440  Biso   1.000  H
  H74      1.0000 0.19900  0.63100  0.65560  Biso   1.000  H
  H75      1.0000 0.69900  0.86900  0.15560  Biso   1.000  H
  H76      1.0000 0.80100  0.36900  0.34440  Biso   1.000  H
  H77      1.0000 0.46900  0.18100  0.86060  Biso   1.000  H
  H78      1.0000 0.03100  0.68100  0.63940  Biso   1.000  H
  H79      1.0000 0.53100  0.81900  0.13940  Biso   1.000  H
  H80      1.0000 0.96900  0.31900  0.36060  Biso   1.000  H
  H81      1.0000 0.56200  0.15800  0.93640  Biso   1.000  H
  H82      1.0000 0.93800  0.65800  0.56360  Biso   1.000  H
  H83      1.0000 0.43800  0.84200  0.06360  Biso   1.000  H
  H84      1.0000 0.06200  0.34200  0.43640  Biso   1.000  H
  H85      1.0000 0.46400  0.07900  0.99050  Biso   1.000  H
  H86      1.0000 0.03600  0.57900  0.50950  Biso   1.000  H
  H87      1.0000 0.53600  0.92100  0.00950  Biso   1.000  H
  H88      1.0000 0.96400  0.42100  0.49050  Biso   1.000  H
  H89      1.0000 0.52200  0.43600  0.19160  Biso   1.000  H
  H90      1.0000 0.97800  0.93600  0.30840  Biso   1.000  H
  H91      1.0000 0.47800  0.56400  0.80840  Biso   1.000  H
  H92      1.0000 0.02200  0.06400  0.69160  Biso   1.000  H
  H93      1.0000 0.27800  0.10700  0.18280  Biso   1.000  H
  H94      1.0000 0.22200  0.60700  0.31720  Biso   1.000  H
  H95      1.0000 0.72200  0.89300  0.81720  Biso   1.000  H
  H96      1.0000 0.77800  0.39300  0.68280  Biso   1.000  H
  H97      1.0000 0.59600  0.33300  0.17720  Biso   1.000  H
  H98      1.0000 0.90400  0.83300  0.32280  Biso   1.000  H
  H99      1.0000 0.40400  0.66700  0.82280  Biso   1.000  H
  H100     1.0000 0.09600  0.16700  0.67720  Biso   1.000  H
  H101     1.0000 0.46700  0.46700  0.11780  Biso   1.000  H
  H102     1.0000 0.03300  0.96700  0.38220  Biso   1.000  H
  H103     1.0000 0.53300  0.53300  0.88220  Biso   1.000  H
  H104     1.0000 0.96700  0.03300  0.61780  Biso   1.000  H
  H105     1.0000 0.24000  0.99900  0.14710  Biso   1.000  H
  H106     1.0000 0.26000  0.49900  0.35290  Biso   1.000  H
  H107     1.0000 0.76000  0.00100  0.85290  Biso   1.000  H
  H108     1.0000 0.74000  0.50100  0.64710  Biso   1.000  H
  H109     1.0000 0.20800  0.03200  0.23500  Biso   1.000  H
  H110     1.0000 0.29200  0.53200  0.26500  Biso   1.000  H
  H111     1.0000 0.79200  0.96800  0.76500  Biso   1.000  H
  H112     1.0000 0.70800  0.46800  0.73500  Biso   1.000  H
  H113     1.0000 0.41900  0.39200  0.19980  Biso   1.000  H
  H114     1.0000 0.08100  0.89200  0.30020  Biso   1.000  H
  H115     1.0000 0.58100  0.60800  0.80020  Biso   1.000  H
  H116     1.0000 0.91900  0.10800  0.69980  Biso   1.000  H
  H117     1.0000 0.38800  0.07300  0.19130  Biso   1.000  H
  H118     1.0000 0.11200  0.57300  0.30870  Biso   1.000  H
  H119     1.0000 0.61200  0.92700  0.80870  Biso   1.000  H
  H120     1.0000 0.88800  0.42700  0.69130  Biso   1.000  H
  H121     1.0000 0.53400  0.33600  0.12840  Biso   1.000  H
  H122     1.0000 0.96600  0.83600  0.37160  Biso   1.000  H
  H123     1.0000 0.46600  0.66400  0.87160  Biso   1.000  H
  H124     1.0000 0.03400  0.16400  0.62840  Biso   1.000  H
  H125     1.0000 0.38300  0.49600  0.15070  Biso   1.000  H
  H126     1.0000 0.11700  0.99600  0.34930  Biso   1.000  H
  H127     1.0000 0.61700  0.50400  0.84930  Biso   1.000  H
  H128     1.0000 0.88300  0.00400  0.65070  Biso   1.000  H
  H129     1.0000 0.31800  0.98500  0.24590  Biso   1.000  H
  H130     1.0000 0.18200  0.48500  0.25410  Biso   1.000  H
  H131     1.0000 0.68200  0.01500  0.75410  Biso   1.000  H
  H132     1.0000 0.81800  0.51500  0.74590  Biso   1.000  H
  H133     1.0000 0.84400  0.97700  0.30250  Biso   1.000  H
  H134     1.0000 0.65600  0.47700  0.19750  Biso   1.000  H
  H135     1.0000 0.15600  0.02300  0.69750  Biso   1.000  H
  H136     1.0000 0.34400  0.52300  0.80250  Biso   1.000  H
  H137     1.0000 0.96900  0.01900  0.26480  Biso   1.000  H
  H138     1.0000 0.53100  0.51900  0.23520  Biso   1.000  H
  H139     1.0000 0.03100  0.98100  0.73520  Biso   1.000  H
  H140     1.0000 0.46900  0.48100  0.76480  Biso   1.000  H
