data_image0
_cell_length_a       9.5508
_cell_length_b       9.6096
_cell_length_c       28.5572
_cell_angle_alpha    84.756
_cell_angle_beta     85.243
_cell_angle_gamma    89.63

_symmetry_space_group_name_H-M    "P 1"
_symmetry_int_tables_number       1

loop_
  _symmetry_equiv_pos_as_xyz
  'x, y, z'

loop_
  _atom_site_label
  _atom_site_occupancy
  _atom_site_fract_x
  _atom_site_fract_y
  _atom_site_fract_z
  _atom_site_thermal_displace_type
  _atom_site_B_iso_or_equiv
  _atom_site_type_symbol
  Cu1      1.0000 0.60004  0.51246  0.00164  Biso   1.000  Cu
  Cu2      1.0000 0.10246  0.18411  0.00155  Biso   1.000  Cu
  O1       1.0000 0.12780  0.33590  0.95104  Biso   1.000  O
  O2       1.0000 0.99290  0.21950  0.90900  Biso   1.000  O
  O3       1.0000 0.27930  0.24670  0.04099  Biso   1.000  O
  O4       1.0000 0.46600  0.38470  0.03868  Biso   1.000  O
  O5       1.0000 0.78110  0.43010  0.04174  Biso   1.000  O
  O6       1.0000 0.63520  0.38920  0.95150  Biso   1.000  O
  O7       1.0000 0.50080  0.52330  0.90710  Biso   1.000  O
  N1       1.0000 0.22810  0.05140  0.96600  Biso   1.000  N
  N2       1.0000 0.02940  0.00060  0.03550  Biso   1.000  N
  N3       1.0000 0.72390  0.66470  0.96660  Biso   1.000  N
  N4       1.0000 0.52450  0.67430  0.03720  Biso   1.000  N
  O8       1.0000 0.96820  0.29250  0.03907  Biso   1.000  O
  C1       1.0000 0.08610  0.88680  0.01590  Biso   1.000  C
  C2       1.0000 0.36440  0.33290  0.01990  Biso   1.000  C
  H1       1.0000 0.35310  0.36120  0.98840  Biso   1.000  H
  C3       1.0000 0.61180  0.05610  0.01170  Biso   1.000  C
  H2       1.0000 0.58730  0.14270  0.02200  Biso   1.000  H
  C4       1.0000 0.69030  0.79340  0.98070  Biso   1.000  C
  C5       1.0000 0.19700  0.91580  0.97900  Biso   1.000  C
  C6       1.0000 0.54050  0.93000  0.03440  Biso   1.000  C
  C7       1.0000 0.11680  0.63890  0.00730  Biso   1.000  C
  H3       1.0000 0.09160  0.54680  0.01700  Biso   1.000  H
  C8       1.0000 0.87900  0.84160  0.08790  Biso   1.000  C
  H4       1.0000 0.80830  0.82900  0.11230  Biso   1.000  H
  C9       1.0000 0.75900  0.91760  0.96010  Biso   1.000  C
  C10      1.0000 0.58300  0.79850  0.01830  Biso   1.000  C
  C11      1.0000 0.37550  0.83730  0.92260  Biso   1.000  C
  H5       1.0000 0.42440  0.76660  0.90820  Biso   1.000  H
  C12      1.0000 0.86740  0.90330  0.92390  Biso   1.000  C
  H6       1.0000 0.91550  0.98140  0.90920  Biso   1.000  H
  C13      1.0000 0.04590  0.74580  0.03020  Biso   1.000  C
  C14      1.0000 0.21920  0.66280  0.97210  Biso   1.000  C
  H7       1.0000 0.25960  0.58820  0.95730  Biso   1.000  H
  C15      1.0000 0.71070  0.04850  0.97670  Biso   1.000  C
  H8       1.0000 0.75090  0.13100  0.96220  Biso   1.000  H
  C16      1.0000 0.41120  0.97710  0.90960  Biso   1.000  C
  H9       1.0000 0.48430  0.00130  0.88680  Biso   1.000  H
  C17      1.0000 0.33180  0.08130  0.93250  Biso   1.000  C
  H10      1.0000 0.35340  0.17470  0.92360  Biso   1.000  H
  C18      1.0000 0.92910  0.98150  0.07060  Biso   1.000  C
  H11      1.0000 0.89030  0.05850  0.08430  Biso   1.000  H
  C19      1.0000 0.82430  0.65450  0.93270  Biso   1.000  C
  H12      1.0000 0.84620  0.56700  0.92260  Biso   1.000  H
  C20      1.0000 0.90030  0.77280  0.91100  Biso   1.000  C
  H13      1.0000 0.97280  0.76160  0.88780  Biso   1.000  H
  C21      1.0000 0.26660  0.80430  0.95720  Biso   1.000  C
  C22      1.0000 0.93710  0.73090  0.06780  Biso   1.000  C
  H14      1.0000 0.90520  0.64170  0.07870  Biso   1.000  H
  C23      1.0000 0.43330  0.92620  0.07140  Biso   1.000  C
  H15      1.0000 0.40180  0.00900  0.08310  Biso   1.000  H
  C24      1.0000 0.37450  0.80050  0.09060  Biso   1.000  C
  H16      1.0000 0.30510  0.79820  0.11550  Biso   1.000  H
  C25      1.0000 0.06480  0.32070  0.91480  Biso   1.000  C
  H17      1.0000 0.07340  0.39220  0.89050  Biso   1.000  H
  C26      1.0000 0.42170  0.67450  0.07170  Biso   1.000  C
  H18      1.0000 0.37950  0.59040  0.08370  Biso   1.000  H
  C27      1.0000 0.86550  0.35190  0.02190  Biso   1.000  C
  H19      1.0000 0.85070  0.33590  0.99100  Biso   1.000  H
  C28      1.0000 0.57570  0.42390  0.91370  Biso   1.000  C
  H20      1.0000 0.59180  0.36720  0.88910  Biso   1.000  H
  Cu3      1.0000 0.30082  0.97584  0.22277  Biso   1.000  Cu
  Cu4      1.0000 0.80165  0.64066  0.22328  Biso   1.000  Cu
  O9       1.0000 0.99910  0.73030  0.18459  Biso   1.000  O
  O10      1.0000 0.18160  0.87000  0.18592  Biso   1.000  O
  O11      1.0000 0.30870  0.82300  0.27280  Biso   1.000  O
  O12      1.0000 0.15420  0.93310  0.31840  Biso   1.000  O
  O13      1.0000 0.49870  0.90820  0.18293  Biso   1.000  O
  O14      1.0000 0.80160  0.76720  0.27350  Biso   1.000  O
  O15      1.0000 0.68470  0.76730  0.18575  Biso   1.000  O
  O16      1.0000 0.64650  0.62550  0.31720  Biso   1.000  O
  N5       1.0000 0.91190  0.49050  0.25920  Biso   1.000  N
  N6       1.0000 0.74720  0.47390  0.18990  Biso   1.000  N
  N7       1.0000 0.24420  0.16010  0.18901  Biso   1.000  N
  N8       1.0000 0.40830  0.10670  0.25840  Biso   1.000  N
  C29      1.0000 0.29230  0.27130  0.20850  Biso   1.000  C
  C30      1.0000 0.79750  0.35020  0.21060  Biso   1.000  C
  C31      1.0000 0.31480  0.52320  0.21740  Biso   1.000  C
  H21      1.0000 0.29240  0.61540  0.20800  Biso   1.000  H
  C32      1.0000 0.81860  0.09490  0.22070  Biso   1.000  C
  H22      1.0000 0.79520  0.00700  0.21260  Biso   1.000  H
  C33      1.0000 0.56030  0.17670  0.31490  Biso   1.000  C
  H23      1.0000 0.62210  0.15050  0.33760  Biso   1.000  H
  C34      1.0000 0.90740  0.10590  0.25550  Biso   1.000  C
  H24      1.0000 0.94370  0.02490  0.27030  Biso   1.000  H
  C35      1.0000 0.16590  0.43570  0.15730  Biso   1.000  C
  H25      1.0000 0.13820  0.52530  0.14680  Biso   1.000  H
  C36      1.0000 0.04080  0.25840  0.30450  Biso   1.000  C
  H26      1.0000 0.08480  0.18200  0.31930  Biso   1.000  H
  C37      1.0000 0.88590  0.36100  0.24700  Biso   1.000  C
  C38      1.0000 0.44110  0.35330  0.26770  Biso   1.000  C
  C39      1.0000 0.66920  0.21640  0.16050  Biso   1.000  C
  H27      1.0000 0.64160  0.13160  0.15100  Biso   1.000  H
  C40      1.0000 0.53170  0.31830  0.30340  Biso   1.000  C
  H28      1.0000 0.57150  0.38720  0.31890  Biso   1.000  H
  C41      1.0000 0.06690  0.39000  0.31580  Biso   1.000  C
  H29      1.0000 0.12780  0.40380  0.33880  Biso   1.000  H
  C42      1.0000 0.76090  0.21800  0.19660  Biso   1.000  C
  C43      1.0000 0.38250  0.24300  0.24520  Biso   1.000  C
  C44      1.0000 0.66260  0.46960  0.15510  Biso   1.000  C
  H30      1.0000 0.63010  0.55290  0.14060  Biso   1.000  H
  C45      1.0000 0.16280  0.18250  0.15370  Biso   1.000  C
  H31      1.0000 0.13280  0.10700  0.13890  Biso   1.000  H
  C46      1.0000 0.25750  0.41300  0.19430  Biso   1.000  C
  C47      1.0000 0.23350  0.83510  0.31030  Biso   1.000  C
  H32      1.0000 0.23810  0.76340  0.33430  Biso   1.000  H
  C48      1.0000 0.40130  0.49640  0.25270  Biso   1.000  C
  H33      1.0000 0.43540  0.57010  0.26740  Biso   1.000  H
  C49      1.0000 0.94580  0.23860  0.26980  Biso   1.000  C
  C50      1.0000 0.62040  0.33850  0.13950  Biso   1.000  C
  H34      1.0000 0.56080  0.33730  0.11530  Biso   1.000  H
  C51      1.0000 0.12020  0.32030  0.13780  Biso   1.000  C
  H35      1.0000 0.06020  0.33220  0.11370  Biso   1.000  H
  C52      1.0000 0.00030  0.50560  0.29230  Biso   1.000  C
  H36      1.0000 0.01880  0.59500  0.30030  Biso   1.000  H
  C53      1.0000 0.07020  0.80930  0.20360  Biso   1.000  C
  H37      1.0000 0.03950  0.82670  0.23430  Biso   1.000  H
  C54      1.0000 0.49550  0.07490  0.29200  Biso   1.000  C
  H38      1.0000 0.51390  0.98120  0.30060  Biso   1.000  H
  C55      1.0000 0.57160  0.81900  0.20340  Biso   1.000  C
  H39      1.0000 0.54120  0.78700  0.23420  Biso   1.000  H
  C56      1.0000 0.72010  0.72970  0.31090  Biso   1.000  C
  H40      1.0000 0.71760  0.78770  0.33530  Biso   1.000  H
  Cu5      1.0000 0.14774  0.58231  0.50150  Biso   1.000  Cu
  Cu6      1.0000 0.46890  0.08082  0.50089  Biso   1.000  Cu
  O17      1.0000 0.34010  0.11600  0.45097  Biso   1.000  O
  O18      1.0000 0.46860  0.96920  0.40920  Biso   1.000  O
  O19      1.0000 0.34280  0.94720  0.53878  Biso   1.000  O
  O20      1.0000 0.20530  0.76010  0.54190  Biso   1.000  O
  O21      1.0000 0.30190  0.61820  0.45265  Biso   1.000  O
  O22      1.0000 0.25900  0.44840  0.53898  Biso   1.000  O
  O23      1.0000 0.39110  0.25760  0.54176  Biso   1.000  O
  O24      1.0000 0.20660  0.47290  0.40820  Biso   1.000  O
  N9       1.0000 0.01070  0.70370  0.46590  Biso   1.000  N
  N10      1.0000 0.96600  0.50840  0.53640  Biso   1.000  N
  N11      1.0000 0.63510  0.00730  0.53500  Biso   1.000  N
  N12      1.0000 0.62010  0.20810  0.46550  Biso   1.000  N
  C57      1.0000 0.29090  0.84430  0.52110  Biso   1.000  C
  H41      1.0000 0.31990  0.83170  0.48990  Biso   1.000  H
  C58      1.0000 0.59530  0.59580  0.51080  Biso   1.000  C
  H42      1.0000 0.50350  0.56880  0.52060  Biso   1.000  H
  C59      1.0000 0.85100  0.56610  0.51840  Biso   1.000  C
  C60      1.0000 0.76200  0.06650  0.51660  Biso   1.000  C
  C61      1.0000 0.75040  0.17720  0.47840  Biso   1.000  C
  C62      1.0000 0.61890  0.69940  0.47580  Biso   1.000  C
  H43      1.0000 0.54350  0.74210  0.46160  Biso   1.000  H
  C63      1.0000 0.87360  0.67480  0.48070  Biso   1.000  C
  C64      1.0000 0.93130  0.88580  0.40980  Biso   1.000  C
  H44      1.0000 0.95410  0.95780  0.38640  Biso   1.000  H
  C65      1.0000 0.85160  0.36000  0.42290  Biso   1.000  C
  H45      1.0000 0.92820  0.41100  0.40830  Biso   1.000  H
  C66      1.0000 0.36700  0.05080  0.41540  Biso   1.000  C
  H46      1.0000 0.30660  0.06400  0.39140  Biso   1.000  H
  C67      1.0000 0.03920  0.80780  0.43140  Biso   1.000  C
  H47      1.0000 0.13240  0.82910  0.42150  Biso   1.000  H
  C68      1.0000 0.71050  0.52560  0.53320  Biso   1.000  C
  C69      1.0000 0.94760  0.40350  0.57110  Biso   1.000  C
  H48      1.0000 0.02570  0.36200  0.58390  Biso   1.000  H
  C70      1.0000 0.89110  0.02870  0.53030  Biso   1.000  C
  C71      1.0000 0.72080  0.39150  0.41070  Biso   1.000  C
  H49      1.0000 0.70730  0.46560  0.38820  Biso   1.000  H
  C72      1.0000 0.00610  0.20650  0.47300  Biso   1.000  C
  H50      1.0000 0.08680  0.25110  0.45870  Biso   1.000  H
  C73      1.0000 0.87230  0.24830  0.45820  Biso   1.000  C
  C74      1.0000 0.89590  0.91750  0.56770  Biso   1.000  C
  H51      1.0000 0.98070  0.88770  0.57910  Biso   1.000  H
  C75      1.0000 0.29810  0.55780  0.41430  Biso   1.000  C
  H52      1.0000 0.36780  0.57930  0.39010  Biso   1.000  H
  C76      1.0000 0.76100  0.74440  0.46040  Biso   1.000  C
  C77      1.0000 0.60350  0.31200  0.43200  Biso   1.000  C
  H53      1.0000 0.51420  0.33250  0.42250  Biso   1.000  H
  C78      1.0000 0.64100  0.90560  0.57020  Biso   1.000  C
  H54      1.0000 0.55750  0.86640  0.58450  Biso   1.000  H
  C79      1.0000 0.79190  0.85440  0.42360  Biso   1.000  C
  H55      1.0000 0.72000  0.90340  0.40940  Biso   1.000  H
  C80      1.0000 0.31500  0.34320  0.52210  Biso   1.000  C
  H56      1.0000 0.29670  0.32900  0.49140  Biso   1.000  H
  C81      1.0000 0.69460  0.41630  0.57070  Biso   1.000  C
  H57      1.0000 0.60540  0.38670  0.58310  Biso   1.000  H
  C82      1.0000 0.01700  0.09940  0.50860  Biso   1.000  C
  H58      1.0000 0.10450  0.07330  0.51840  Biso   1.000  H
  C83      1.0000 0.76870  0.85640  0.58630  Biso   1.000  C
  H59      1.0000 0.76850  0.78220  0.60970  Biso   1.000  H
  C84      1.0000 0.81180  0.35540  0.58840  Biso   1.000  C
  H60      1.0000 0.80190  0.28180  0.61200  Biso   1.000  H
  Cu7      1.0000 0.90334  0.77449  0.72370  Biso   1.000  Cu
  Cu8      1.0000 0.57599  0.27655  0.72268  Biso   1.000  Cu
  O25      1.0000 0.74920  0.78080  0.77290  Biso   1.000  O
  O26      1.0000 0.85570  0.61410  0.81560  Biso   1.000  O
  O27      1.0000 0.80000  0.65810  0.68591  Biso   1.000  O
  O28      1.0000 0.70330  0.16060  0.68567  Biso   1.000  O
  O29      1.0000 0.66060  0.47450  0.68220  Biso   1.000  O
  O30      1.0000 0.70720  0.28220  0.77164  Biso   1.000  O
  O31      1.0000 0.59120  0.11850  0.81720  Biso   1.000  O
  O32      1.0000 0.83930  0.97320  0.68293  Biso   1.000  O
  N13      1.0000 0.03350  0.88260  0.75990  Biso   1.000  N
  N14      1.0000 0.08990  0.72110  0.69010  Biso   1.000  N
  N15      1.0000 0.42460  0.38400  0.75850  Biso   1.000  N
  N16      1.0000 0.40760  0.22180  0.68850  Biso   1.000  N
  C85      1.0000 0.99860  0.96680  0.79340  Biso   1.000  C
  H61      1.0000 0.90430  0.97860  0.80310  Biso   1.000  H
  C86      1.0000 0.29480  0.35940  0.74570  Biso   1.000  C
  C87      1.0000 0.28130  0.91910  0.76860  Biso   1.000  C
  C88      1.0000 0.16930  0.86030  0.74720  Biso   1.000  C
  C89      1.0000 0.32250  0.53260  0.81510  Biso   1.000  C
  H62      1.0000 0.33600  0.59220  0.83820  Biso   1.000  H
  C90      1.0000 0.34280  0.73920  0.69630  Biso   1.000  C
  C91      1.0000 0.20290  0.77200  0.71000  Biso   1.000  C
  C92      1.0000 0.42620  0.88480  0.75470  Biso   1.000  C
  H63      1.0000 0.49930  0.92020  0.76970  Biso   1.000  H
  C93      1.0000 0.45320  0.79980  0.71950  Biso   1.000  C
  H64      1.0000 0.54620  0.78000  0.71000  Biso   1.000  H
  C94      1.0000 0.28480  0.26980  0.70860  Biso   1.000  C
  C95      1.0000 0.15000  0.23610  0.69410  Biso   1.000  C
  C96      1.0000 0.02870  0.29280  0.71740  Biso   1.000  C
  H65      1.0000 0.94060  0.26920  0.70880  Biso   1.000  H
  C97      1.0000 0.24340  0.01300  0.80340  Biso   1.000  C
  H66      1.0000 0.31210  0.05600  0.81830  Biso   1.000  H
  C98      1.0000 0.03700  0.38180  0.75230  Biso   1.000  C
  H67      1.0000 0.95560  0.41850  0.76650  Biso   1.000  H
  C99      1.0000 0.14740  0.14630  0.65780  Biso   1.000  C
  H68      1.0000 0.06260  0.12110  0.64720  Biso   1.000  H
  C100     1.0000 0.27400  0.09620  0.63830  Biso   1.000  C
  H69      1.0000 0.27380  0.03550  0.61480  Biso   1.000  H
  C101     1.0000 0.43880  0.46550  0.79320  Biso   1.000  C
  H70      1.0000 0.52770  0.47850  0.80320  Biso   1.000  H
  C102     1.0000 0.40550  0.13770  0.65420  Biso   1.000  C
  H71      1.0000 0.48950  0.10520  0.64040  Biso   1.000  H
  C103     1.0000 0.11430  0.63720  0.65580  Biso   1.000  C
  H72      1.0000 0.03850  0.60320  0.64190  Biso   1.000  H
  C104     1.0000 0.18990  0.51050  0.80240  Biso   1.000  C
  H73      1.0000 0.11270  0.55450  0.81660  Biso   1.000  H
  C105     1.0000 0.17320  0.41790  0.76670  Biso   1.000  C
  C106     1.0000 0.10180  0.03910  0.81460  Biso   1.000  C
  H74      1.0000 0.07500  0.10380  0.83590  Biso   1.000  H
  C107     1.0000 0.68150  0.20220  0.80970  Biso   1.000  C
  H75      1.0000 0.73980  0.21110  0.83380  Biso   1.000  H
  C108     1.0000 0.75980  0.69660  0.81010  Biso   1.000  C
  H76      1.0000 0.68940  0.69890  0.83460  Biso   1.000  H
  C109     1.0000 0.73640  0.54700  0.70360  Biso   1.000  C
  H77      1.0000 0.74770  0.51790  0.73510  Biso   1.000  H
  C110     1.0000 0.36590  0.64870  0.66010  Biso   1.000  C
  H78      1.0000 0.45690  0.62370  0.64990  Biso   1.000  H
  C111     1.0000 0.25260  0.59770  0.63980  Biso   1.000  C
  H79      1.0000 0.26670  0.53820  0.61600  Biso   1.000  H
  C112     1.0000 0.74940  0.04440  0.70340  Biso   1.000  C
  H80      1.0000 0.71320  0.01120  0.73350  Biso   1.000  H
