data_image0
_cell_length_a       5.0143
_cell_length_b       12.031
_cell_length_c       10.818
_cell_angle_alpha    90
_cell_angle_beta     92.023
_cell_angle_gamma    90

_symmetry_space_group_name_H-M    "P 1"
_symmetry_int_tables_number       1

loop_
  _symmetry_equiv_pos_as_xyz
  'x, y, z'

loop_
  _atom_site_label
  _atom_site_occupancy
  _atom_site_fract_x
  _atom_site_fract_y
  _atom_site_fract_z
  _atom_site_thermal_displace_type
  _atom_site_B_iso_or_equiv
  _atom_site_type_symbol
  Cu1      1.0000 0.50000  0.00000  0.50000  Biso   1.000  Cu
  Cu2      1.0000 0.00000  0.50000  0.00000  Biso   1.000  Cu
  O1       1.0000 0.21840  0.78789  0.37401  Biso   1.000  O
  O2       1.0000 0.28160  0.28789  0.12599  Biso   1.000  O
  O3       1.0000 0.78160  0.21211  0.62599  Biso   1.000  O
  O4       1.0000 0.71840  0.71211  0.87401  Biso   1.000  O
  O5       1.0000 0.61090  0.85222  0.45077  Biso   1.000  O
  O6       1.0000 0.88910  0.35222  0.04923  Biso   1.000  O
  O7       1.0000 0.38910  0.14778  0.54923  Biso   1.000  O
  O8       1.0000 0.11090  0.64778  0.95077  Biso   1.000  O
  O9       1.0000 0.35830  0.67056  0.67799  Biso   1.000  O
  O10      1.0000 0.14170  0.17056  0.82201  Biso   1.000  O
  O11      1.0000 0.64170  0.32944  0.32201  Biso   1.000  O
  O12      1.0000 0.85830  0.82944  0.17799  Biso   1.000  O
  H1       1.0000 0.46400  0.67600  0.73500  Biso   1.000  H
  H2       1.0000 0.03600  0.17600  0.76500  Biso   1.000  H
  H3       1.0000 0.53600  0.32400  0.26500  Biso   1.000  H
  H4       1.0000 0.96400  0.82400  0.23500  Biso   1.000  H
  H5       1.0000 0.25200  0.62300  0.69500  Biso   1.000  H
  H6       1.0000 0.24800  0.12300  0.80500  Biso   1.000  H
  H7       1.0000 0.74800  0.37700  0.30500  Biso   1.000  H
  H8       1.0000 0.75200  0.87700  0.19500  Biso   1.000  H
  N1       1.0000 0.17860  0.52950  0.16359  Biso   1.000  N
  N2       1.0000 0.32140  0.02950  0.33641  Biso   1.000  N
  N3       1.0000 0.82140  0.47050  0.83641  Biso   1.000  N
  N4       1.0000 0.67860  0.97050  0.66359  Biso   1.000  N
  N5       1.0000 0.07620  0.49472  0.27294  Biso   1.000  N
  N6       1.0000 0.42380  0.99472  0.22706  Biso   1.000  N
  N7       1.0000 0.92380  0.50528  0.72706  Biso   1.000  N
  N8       1.0000 0.57620  0.00528  0.77294  Biso   1.000  N
  N9       1.0000 0.21740  0.53158  0.36490  Biso   1.000  N
  N10      1.0000 0.28260  0.03158  0.13510  Biso   1.000  N
  N11      1.0000 0.78260  0.46842  0.63510  Biso   1.000  N
  N12      1.0000 0.71740  0.96842  0.86490  Biso   1.000  N
  N13      1.0000 0.42210  0.59010  0.31733  Biso   1.000  N
  N14      1.0000 0.07790  0.09010  0.18267  Biso   1.000  N
  N15      1.0000 0.57790  0.40990  0.68267  Biso   1.000  N
  N16      1.0000 0.92210  0.90990  0.81733  Biso   1.000  N
  N17      1.0000 0.56500  0.63450  0.11460  Biso   1.000  N
  N18      1.0000 0.93500  0.13450  0.38540  Biso   1.000  N
  N19      1.0000 0.43500  0.36550  0.88540  Biso   1.000  N
  N20      1.0000 0.06500  0.86550  0.61460  Biso   1.000  N
  H9       1.0000 0.49700  0.64400  0.04070  Biso   1.000  H
  H10      1.0000 0.00300  0.14400  0.45930  Biso   1.000  H
  H11      1.0000 0.50300  0.35600  0.95930  Biso   1.000  H
  H12      1.0000 0.99700  0.85600  0.54070  Biso   1.000  H
  H13      1.0000 0.67100  0.68600  0.14400  Biso   1.000  H
  H14      1.0000 0.82900  0.18600  0.35600  Biso   1.000  H
  H15      1.0000 0.32900  0.31400  0.85600  Biso   1.000  H
  H16      1.0000 0.17100  0.81400  0.64400  Biso   1.000  H
  C1       1.0000 0.39440  0.58960  0.19290  Biso   1.000  C
  C2       1.0000 0.10560  0.08960  0.30710  Biso   1.000  C
  C3       1.0000 0.60560  0.41040  0.80710  Biso   1.000  C
  C4       1.0000 0.89440  0.91040  0.69290  Biso   1.000  C
  C5       1.0000 0.58690  0.66333  0.39530  Biso   1.000  C
  C6       1.0000 0.91310  0.16333  0.10470  Biso   1.000  C
  C7       1.0000 0.41310  0.33667  0.60470  Biso   1.000  C
  C8       1.0000 0.08690  0.83667  0.89530  Biso   1.000  C
  H17      1.0000 0.76490  0.67160  0.35950  Biso   1.000  H
  H18      1.0000 0.73510  0.17160  0.14050  Biso   1.000  H
  H19      1.0000 0.23510  0.32840  0.64050  Biso   1.000  H
  H20      1.0000 0.26490  0.82840  0.85950  Biso   1.000  H
  H21      1.0000 0.61160  0.63040  0.47870  Biso   1.000  H
  H22      1.0000 0.88840  0.13040  0.02130  Biso   1.000  H
  H23      1.0000 0.38840  0.36960  0.52130  Biso   1.000  H
  H24      1.0000 0.11160  0.86960  0.97870  Biso   1.000  H
  C9       1.0000 0.45530  0.77700  0.40520  Biso   1.000  C
  C10      1.0000 0.04470  0.27700  0.09480  Biso   1.000  C
  C11      1.0000 0.54470  0.22300  0.59480  Biso   1.000  C
  C12      1.0000 0.95530  0.72300  0.90520  Biso   1.000  C
