data_image0
_cell_length_a       9.991
_cell_length_b       13.566
_cell_length_c       12.381
_cell_angle_alpha    90
_cell_angle_beta     110.202
_cell_angle_gamma    90

_symmetry_space_group_name_H-M    "P 1"
_symmetry_int_tables_number       1

loop_
  _symmetry_equiv_pos_as_xyz
  'x, y, z'

loop_
  _atom_site_label
  _atom_site_occupancy
  _atom_site_fract_x
  _atom_site_fract_y
  _atom_site_fract_z
  _atom_site_thermal_displace_type
  _atom_site_B_iso_or_equiv
  _atom_site_type_symbol
  Cu1      1.0000 0.31752  0.40438  0.22230  Biso   1.000  Cu
  Cu2      1.0000 0.68248  0.90438  0.27770  Biso   1.000  Cu
  Cu3      1.0000 0.68248  0.59562  0.77770  Biso   1.000  Cu
  Cu4      1.0000 0.31752  0.09562  0.72230  Biso   1.000  Cu
  O1       1.0000 0.42700  0.39030  0.11500  Biso   1.000  O
  O2       1.0000 0.57300  0.89030  0.38500  Biso   1.000  O
  O3       1.0000 0.57300  0.60970  0.88500  Biso   1.000  O
  O4       1.0000 0.42700  0.10970  0.61500  Biso   1.000  O
  O5       1.0000 0.64490  0.41980  0.24540  Biso   1.000  O
  O6       1.0000 0.35510  0.91980  0.25460  Biso   1.000  O
  O7       1.0000 0.35510  0.58020  0.75460  Biso   1.000  O
  O8       1.0000 0.64490  0.08020  0.74540  Biso   1.000  O
  O9       1.0000 0.80170  0.42230  0.88510  Biso   1.000  O
  O10      1.0000 0.19830  0.92230  0.61490  Biso   1.000  O
  O11      1.0000 0.19830  0.57770  0.11490  Biso   1.000  O
  O12      1.0000 0.80170  0.07770  0.38510  Biso   1.000  O
  O13      1.0000 0.67620  0.33800  0.72570  Biso   1.000  O
  O14      1.0000 0.32380  0.83800  0.77430  Biso   1.000  O
  O15      1.0000 0.32380  0.66200  0.27430  Biso   1.000  O
  O16      1.0000 0.67620  0.16200  0.22570  Biso   1.000  O
  O17      1.0000 0.46070  0.49760  0.32480  Biso   1.000  O
  O18      1.0000 0.53930  0.99760  0.17520  Biso   1.000  O
  O19      1.0000 0.53930  0.50240  0.67520  Biso   1.000  O
  O20      1.0000 0.46070  0.00240  0.82480  Biso   1.000  O
  N1       1.0000 0.54240  0.33160  0.95500  Biso   1.000  N
  N2       1.0000 0.45760  0.83160  0.54500  Biso   1.000  N
  N3       1.0000 0.45760  0.66840  0.04500  Biso   1.000  N
  N4       1.0000 0.54240  0.16840  0.45500  Biso   1.000  N
  N5       1.0000 0.44420  0.38560  0.87050  Biso   1.000  N
  N6       1.0000 0.55580  0.88560  0.62950  Biso   1.000  N
  N7       1.0000 0.55580  0.61440  0.12950  Biso   1.000  N
  N8       1.0000 0.44420  0.11440  0.37050  Biso   1.000  N
  N9       1.0000 0.37540  0.32300  0.79160  Biso   1.000  N
  N10      1.0000 0.62460  0.82300  0.70840  Biso   1.000  N
  N11      1.0000 0.62460  0.67700  0.20840  Biso   1.000  N
  N12      1.0000 0.37540  0.17700  0.29160  Biso   1.000  N
  N13      1.0000 0.42240  0.22930  0.82290  Biso   1.000  N
  N14      1.0000 0.57760  0.72930  0.67710  Biso   1.000  N
  N15      1.0000 0.57760  0.77070  0.17710  Biso   1.000  N
  N16      1.0000 0.42240  0.27070  0.32290  Biso   1.000  N
  N17      1.0000 0.60780  0.16370  0.98610  Biso   1.000  N
  N18      1.0000 0.39220  0.66370  0.51390  Biso   1.000  N
  N19      1.0000 0.39220  0.83630  0.01390  Biso   1.000  N
  N20      1.0000 0.60780  0.33630  0.48610  Biso   1.000  N
  N21      1.0000 0.97980  0.26880  0.97240  Biso   1.000  N
  N22      1.0000 0.02020  0.76880  0.52760  Biso   1.000  N
  N23      1.0000 0.02020  0.73120  0.02760  Biso   1.000  N
  N24      1.0000 0.97980  0.23120  0.47240  Biso   1.000  N
  N25      1.0000 0.95530  0.24500  0.07060  Biso   1.000  N
  N26      1.0000 0.04470  0.74500  0.42940  Biso   1.000  N
  N27      1.0000 0.04470  0.75500  0.92940  Biso   1.000  N
  N28      1.0000 0.95530  0.25500  0.57060  Biso   1.000  N
  N29      1.0000 0.06040  0.27920  0.15480  Biso   1.000  N
  N30      1.0000 0.93960  0.77920  0.34520  Biso   1.000  N
  N31      1.0000 0.93960  0.72080  0.84520  Biso   1.000  N
  N32      1.0000 0.06040  0.22080  0.65480  Biso   1.000  N
  N33      1.0000 0.15560  0.32680  0.11520  Biso   1.000  N
  N34      1.0000 0.84440  0.82680  0.38480  Biso   1.000  N
  N35      1.0000 0.84440  0.67320  0.88480  Biso   1.000  N
  N36      1.0000 0.15560  0.17320  0.61520  Biso   1.000  N
  N37      1.0000 0.16130  0.35450  0.92610  Biso   1.000  N
  N38      1.0000 0.83870  0.85450  0.57390  Biso   1.000  N
  N39      1.0000 0.83870  0.64550  0.07390  Biso   1.000  N
  N40      1.0000 0.16130  0.14550  0.42610  Biso   1.000  N
  N41      1.0000 0.19700  0.43540  0.32090  Biso   1.000  N
  N42      1.0000 0.80300  0.93540  0.17910  Biso   1.000  N
  N43      1.0000 0.80300  0.56460  0.67910  Biso   1.000  N
  N44      1.0000 0.19700  0.06460  0.82090  Biso   1.000  N
  C1       1.0000 0.52700  0.23690  0.92390  Biso   1.000  C
  C2       1.0000 0.47300  0.73690  0.57610  Biso   1.000  C
  C3       1.0000 0.47300  0.76310  0.07610  Biso   1.000  C
  C4       1.0000 0.52700  0.26310  0.42390  Biso   1.000  C
  C5       1.0000 0.63360  0.37810  0.05960  Biso   1.000  C
  C6       1.0000 0.36640  0.87810  0.44040  Biso   1.000  C
  C7       1.0000 0.36640  0.62190  0.94040  Biso   1.000  C
  C8       1.0000 0.63360  0.12190  0.55960  Biso   1.000  C
  H1       1.0000 0.66790  0.44150  0.03950  Biso   1.000  H
  H2       1.0000 0.33210  0.94150  0.46050  Biso   1.000  H
  H3       1.0000 0.33210  0.55850  0.96050  Biso   1.000  H
  H4       1.0000 0.66790  0.05850  0.53950  Biso   1.000  H
  H5       1.0000 0.71790  0.33560  0.09500  Biso   1.000  H
  H6       1.0000 0.28210  0.83560  0.40500  Biso   1.000  H
  H7       1.0000 0.28210  0.66440  0.90500  Biso   1.000  H
  H8       1.0000 0.71790  0.16440  0.59500  Biso   1.000  H
  C9       1.0000 0.56280  0.39760  0.14840  Biso   1.000  C
  C10      1.0000 0.43720  0.89760  0.35160  Biso   1.000  C
  C11      1.0000 0.43720  0.60240  0.85160  Biso   1.000  C
  C12      1.0000 0.56280  0.10240  0.64840  Biso   1.000  C
  C13      1.0000 0.10230  0.31870  0.99990  Biso   1.000  C
  C14      1.0000 0.89770  0.81870  0.50010  Biso   1.000  C
  C15      1.0000 0.89770  0.68130  0.00010  Biso   1.000  C
  C16      1.0000 0.10230  0.18130  0.49990  Biso   1.000  C
  C17      1.0000 0.86970  0.25610  0.85990  Biso   1.000  C
  C18      1.0000 0.13030  0.75610  0.64010  Biso   1.000  C
  C19      1.0000 0.13030  0.74390  0.14010  Biso   1.000  C
  C20      1.0000 0.86970  0.24390  0.35990  Biso   1.000  C
  H9       1.0000 0.91530  0.24160  0.80230  Biso   1.000  H
  H10      1.0000 0.08470  0.74160  0.69770  Biso   1.000  H
  H11      1.0000 0.08470  0.75840  0.19770  Biso   1.000  H
  H12      1.0000 0.91530  0.25840  0.30230  Biso   1.000  H
  H13      1.0000 0.80900  0.19920  0.86250  Biso   1.000  H
  H14      1.0000 0.19100  0.69920  0.63750  Biso   1.000  H
  H15      1.0000 0.19100  0.80080  0.13750  Biso   1.000  H
  H16      1.0000 0.80900  0.30080  0.36250  Biso   1.000  H
  C21      1.0000 0.77660  0.34800  0.82270  Biso   1.000  C
  C22      1.0000 0.22340  0.84800  0.67730  Biso   1.000  C
  C23      1.0000 0.22340  0.65200  0.17730  Biso   1.000  C
  C24      1.0000 0.77660  0.15200  0.32270  Biso   1.000  C
  C25      1.0000 0.24930  0.42060  0.43520  Biso   1.000  C
  C26      1.0000 0.75070  0.92060  0.06480  Biso   1.000  C
  C27      1.0000 0.75070  0.57940  0.56480  Biso   1.000  C
  C28      1.0000 0.24930  0.07940  0.93520  Biso   1.000  C
  H17      1.0000 0.34160  0.39240  0.46780  Biso   1.000  H
  H18      1.0000 0.65840  0.89240  0.03220  Biso   1.000  H
  H19      1.0000 0.65840  0.60760  0.53220  Biso   1.000  H
  H20      1.0000 0.34160  0.10760  0.96780  Biso   1.000  H
  C29      1.0000 0.17620  0.44420  0.50680  Biso   1.000  C
  C30      1.0000 0.82380  0.94420  0.99320  Biso   1.000  C
  C31      1.0000 0.82380  0.55580  0.49320  Biso   1.000  C
  C32      1.0000 0.17620  0.05580  0.00680  Biso   1.000  C
  H21      1.0000 0.21760  0.43220  0.58710  Biso   1.000  H
  H22      1.0000 0.78240  0.93220  0.91290  Biso   1.000  H
  H23      1.0000 0.78240  0.56780  0.41290  Biso   1.000  H
  H24      1.0000 0.21760  0.06780  0.08710  Biso   1.000  H
  C33      1.0000 0.04150  0.48570  0.46180  Biso   1.000  C
  C34      1.0000 0.95850  0.98570  0.03820  Biso   1.000  C
  C35      1.0000 0.95850  0.51430  0.53820  Biso   1.000  C
  C36      1.0000 0.04150  0.01430  0.96180  Biso   1.000  C
  C37      1.0000 0.98580  0.50000  0.34300  Biso   1.000  C
  C38      1.0000 0.01420  0.00000  0.15700  Biso   1.000  C
  C39      1.0000 0.01420  0.50000  0.65700  Biso   1.000  C
  C40      1.0000 0.98580  0.00000  0.84300  Biso   1.000  C
  H25      1.0000 0.89310  0.52720  0.30850  Biso   1.000  H
  H26      1.0000 0.10690  0.02720  0.19150  Biso   1.000  H
  H27      1.0000 0.10690  0.47280  0.69150  Biso   1.000  H
  H28      1.0000 0.89310  0.97280  0.80850  Biso   1.000  H
  C41      1.0000 0.06500  0.47480  0.27630  Biso   1.000  C
  C42      1.0000 0.93500  0.97480  0.22370  Biso   1.000  C
  C43      1.0000 0.93500  0.52520  0.72370  Biso   1.000  C
  C44      1.0000 0.06500  0.02520  0.77630  Biso   1.000  C
  H29      1.0000 0.02560  0.48540  0.19560  Biso   1.000  H
  H30      1.0000 0.97440  0.98540  0.30440  Biso   1.000  H
  H31      1.0000 0.97440  0.51460  0.80440  Biso   1.000  H
  H32      1.0000 0.02560  0.01460  0.69560  Biso   1.000  H
  H33      1.0000 0.58500  0.11000  0.96000  Biso   1.000  H
  H34      1.0000 0.41500  0.61000  0.54000  Biso   1.000  H
  H35      1.0000 0.41500  0.89000  0.04000  Biso   1.000  H
  H36      1.0000 0.58500  0.39000  0.46000  Biso   1.000  H
  H37      1.0000 0.41200  0.55600  0.30400  Biso   1.000  H
  H38      1.0000 0.58800  0.05600  0.19600  Biso   1.000  H
  H39      1.0000 0.58800  0.44400  0.69600  Biso   1.000  H
  H40      1.0000 0.41200  0.94400  0.80400  Biso   1.000  H
  H41      1.0000 0.13100  0.32800  0.85200  Biso   1.000  H
  H42      1.0000 0.86900  0.82800  0.64800  Biso   1.000  H
  H43      1.0000 0.86900  0.67200  0.14800  Biso   1.000  H
  H44      1.0000 0.13100  0.17200  0.35200  Biso   1.000  H
  H45      1.0000 0.52200  0.49300  0.30000  Biso   1.000  H
  H46      1.0000 0.47800  0.99300  0.20000  Biso   1.000  H
  H47      1.0000 0.47800  0.50700  0.70000  Biso   1.000  H
  H48      1.0000 0.52200  0.00700  0.80000  Biso   1.000  H
  H49      1.0000 0.23600  0.37700  0.95200  Biso   1.000  H
  H50      1.0000 0.76400  0.87700  0.54800  Biso   1.000  H
  H51      1.0000 0.76400  0.62300  0.04800  Biso   1.000  H
  H52      1.0000 0.23600  0.12300  0.45200  Biso   1.000  H
  H53      1.0000 0.65200  0.17300  0.06300  Biso   1.000  H
  H54      1.0000 0.34800  0.67300  0.43700  Biso   1.000  H
  H55      1.0000 0.34800  0.82700  0.93700  Biso   1.000  H
  H56      1.0000 0.65200  0.32700  0.56300  Biso   1.000  H
