data_image0
_cell_length_a       7.0131
_cell_length_b       10.059
_cell_length_c       28.818
_cell_angle_alpha    90
_cell_angle_beta     90.711
_cell_angle_gamma    90

_symmetry_space_group_name_H-M    "P 1"
_symmetry_int_tables_number       1

loop_
  _symmetry_equiv_pos_as_xyz
  'x, y, z'

loop_
  _atom_site_label
  _atom_site_occupancy
  _atom_site_fract_x
  _atom_site_fract_y
  _atom_site_fract_z
  _atom_site_thermal_displace_type
  _atom_site_B_iso_or_equiv
  _atom_site_type_symbol
  Cu1      1.0000 0.00000  0.00000  0.50000  Biso   1.000  Cu
  Cu2      1.0000 0.00000  0.00000  0.00000  Biso   1.000  Cu
  O1       1.0000 0.22980  0.03840  0.46247  Biso   1.000  O
  O2       1.0000 0.77020  0.03840  0.03753  Biso   1.000  O
  O3       1.0000 0.77020  0.96160  0.53753  Biso   1.000  O
  O4       1.0000 0.22980  0.96160  0.96247  Biso   1.000  O
  O5       1.0000 0.29480  0.95840  0.12729  Biso   1.000  O
  O6       1.0000 0.70520  0.95840  0.37271  Biso   1.000  O
  O7       1.0000 0.70520  0.04160  0.87271  Biso   1.000  O
  O8       1.0000 0.29480  0.04160  0.62729  Biso   1.000  O
  O9       1.0000 0.97540  0.83340  0.46496  Biso   1.000  O
  O10      1.0000 0.02460  0.83340  0.03504  Biso   1.000  O
  O11      1.0000 0.02460  0.16660  0.53504  Biso   1.000  O
  O12      1.0000 0.97540  0.16660  0.96496  Biso   1.000  O
  O13      1.0000 0.82460  0.11430  0.44303  Biso   1.000  O
  O14      1.0000 0.17540  0.11430  0.05697  Biso   1.000  O
  O15      1.0000 0.17540  0.88570  0.55697  Biso   1.000  O
  O16      1.0000 0.82460  0.88570  0.94303  Biso   1.000  O
  C1       1.0000 0.66470  0.19120  0.45600  Biso   1.000  C
  C2       1.0000 0.33530  0.19120  0.04400  Biso   1.000  C
  C3       1.0000 0.33530  0.80880  0.54400  Biso   1.000  C
  C4       1.0000 0.66470  0.80880  0.95600  Biso   1.000  C
  H1       1.0000 0.60720  0.23220  0.42840  Biso   1.000  H
  H2       1.0000 0.39280  0.23220  0.07160  Biso   1.000  H
  H3       1.0000 0.39280  0.76780  0.57160  Biso   1.000  H
  H4       1.0000 0.60720  0.76780  0.92840  Biso   1.000  H
  H5       1.0000 0.70550  0.26080  0.47780  Biso   1.000  H
  H6       1.0000 0.29450  0.26080  0.02220  Biso   1.000  H
  H7       1.0000 0.29450  0.73920  0.52220  Biso   1.000  H
  H8       1.0000 0.70550  0.73920  0.97780  Biso   1.000  H
  H9       1.0000 0.57070  0.13370  0.47100  Biso   1.000  H
  H10      1.0000 0.42930  0.13370  0.02900  Biso   1.000  H
  H11      1.0000 0.42930  0.86630  0.52900  Biso   1.000  H
  H12      1.0000 0.57070  0.86630  0.97100  Biso   1.000  H
  H13      1.0000 0.79100  0.07400  0.41500  Biso   1.000  H
  H14      1.0000 0.20900  0.07400  0.08500  Biso   1.000  H
  H15      1.0000 0.20900  0.92600  0.58500  Biso   1.000  H
  H16      1.0000 0.79100  0.92600  0.91500  Biso   1.000  H
  C5       1.0000 0.23800  0.90480  0.39661  Biso   1.000  C
  C6       1.0000 0.76200  0.90480  0.10339  Biso   1.000  C
  C7       1.0000 0.76200  0.09520  0.60339  Biso   1.000  C
  C8       1.0000 0.23800  0.09520  0.89661  Biso   1.000  C
  H17      1.0000 0.24420  0.82790  0.41570  Biso   1.000  H
  H18      1.0000 0.75580  0.82790  0.08430  Biso   1.000  H
  H19      1.0000 0.75580  0.17210  0.58430  Biso   1.000  H
  H20      1.0000 0.24420  0.17210  0.91570  Biso   1.000  H
  C9       1.0000 0.24200  0.89170  0.34907  Biso   1.000  C
  C10      1.0000 0.75800  0.89170  0.15093  Biso   1.000  C
  C11      1.0000 0.75800  0.10830  0.65093  Biso   1.000  C
  C12      1.0000 0.24200  0.10830  0.84907  Biso   1.000  C
  H21      1.0000 0.24890  0.80540  0.33580  Biso   1.000  H
  H22      1.0000 0.75110  0.80540  0.16420  Biso   1.000  H
  H23      1.0000 0.75110  0.19460  0.66420  Biso   1.000  H
  H24      1.0000 0.24890  0.19460  0.83580  Biso   1.000  H
  C13      1.0000 0.23600  0.00200  0.32000  Biso   1.000  C
  C14      1.0000 0.76400  0.00200  0.18000  Biso   1.000  C
  C15      1.0000 0.76400  0.99800  0.68000  Biso   1.000  C
  C16      1.0000 0.23600  0.99800  0.82000  Biso   1.000  C
  C17      1.0000 0.22210  0.12560  0.34182  Biso   1.000  C
  C18      1.0000 0.77790  0.12560  0.15818  Biso   1.000  C
  C19      1.0000 0.77790  0.87440  0.65818  Biso   1.000  C
  C20      1.0000 0.22210  0.87440  0.84182  Biso   1.000  C
  H25      1.0000 0.21630  0.20410  0.32350  Biso   1.000  H
  H26      1.0000 0.78370  0.20410  0.17650  Biso   1.000  H
  H27      1.0000 0.78370  0.79590  0.67650  Biso   1.000  H
  H28      1.0000 0.21630  0.79590  0.82350  Biso   1.000  H
  C21      1.0000 0.21680  0.13530  0.38948  Biso   1.000  C
  C22      1.0000 0.78320  0.13530  0.11052  Biso   1.000  C
  C23      1.0000 0.78320  0.86470  0.61052  Biso   1.000  C
  C24      1.0000 0.21680  0.86470  0.88948  Biso   1.000  C
  H29      1.0000 0.20690  0.22030  0.40360  Biso   1.000  H
  H30      1.0000 0.79310  0.22030  0.09640  Biso   1.000  H
  H31      1.0000 0.79310  0.77970  0.59640  Biso   1.000  H
  H32      1.0000 0.20690  0.77970  0.90360  Biso   1.000  H
  C25      1.0000 0.27030  0.09110  0.19273  Biso   1.000  C
  C26      1.0000 0.72970  0.09110  0.30727  Biso   1.000  C
  C27      1.0000 0.72970  0.90890  0.80727  Biso   1.000  C
  C28      1.0000 0.27030  0.90890  0.69273  Biso   1.000  C
  H33      1.0000 0.27630  0.16890  0.17410  Biso   1.000  H
  H34      1.0000 0.72370  0.16890  0.32590  Biso   1.000  H
  H35      1.0000 0.72370  0.83110  0.82590  Biso   1.000  H
  H36      1.0000 0.27630  0.83110  0.67410  Biso   1.000  H
  C29      1.0000 0.25760  0.10270  0.23982  Biso   1.000  C
  C30      1.0000 0.74240  0.10270  0.26018  Biso   1.000  C
  C31      1.0000 0.74240  0.89730  0.76018  Biso   1.000  C
  C32      1.0000 0.25760  0.89730  0.73982  Biso   1.000  C
  H37      1.0000 0.25710  0.18860  0.25350  Biso   1.000  H
  H38      1.0000 0.74290  0.18860  0.24650  Biso   1.000  H
  H39      1.0000 0.74290  0.81140  0.74650  Biso   1.000  H
  H40      1.0000 0.25710  0.81140  0.75350  Biso   1.000  H
  C33      1.0000 0.24510  0.99010  0.26852  Biso   1.000  C
  C34      1.0000 0.75490  0.99010  0.23148  Biso   1.000  C
  C35      1.0000 0.75490  0.00990  0.73148  Biso   1.000  C
  C36      1.0000 0.24510  0.00990  0.76852  Biso   1.000  C
  C37      1.0000 0.24390  0.86760  0.24635  Biso   1.000  C
  C38      1.0000 0.75610  0.86760  0.25365  Biso   1.000  C
  C39      1.0000 0.75610  0.13240  0.75365  Biso   1.000  C
  C40      1.0000 0.24390  0.13240  0.74635  Biso   1.000  C
  H41      1.0000 0.23410  0.78860  0.26420  Biso   1.000  H
  H42      1.0000 0.76590  0.78860  0.23580  Biso   1.000  H
  H43      1.0000 0.76590  0.21140  0.73580  Biso   1.000  H
  H44      1.0000 0.23410  0.21140  0.76420  Biso   1.000  H
  C41      1.0000 0.25680  0.85880  0.19852  Biso   1.000  C
  C42      1.0000 0.74320  0.85880  0.30148  Biso   1.000  C
  C43      1.0000 0.74320  0.14120  0.80148  Biso   1.000  C
  C44      1.0000 0.25680  0.14120  0.69852  Biso   1.000  C
  H45      1.0000 0.25320  0.77430  0.18390  Biso   1.000  H
  H46      1.0000 0.74680  0.77430  0.31610  Biso   1.000  H
  H47      1.0000 0.74680  0.22570  0.81610  Biso   1.000  H
  H48      1.0000 0.25320  0.22570  0.68390  Biso   1.000  H
  C45      1.0000 0.69710  0.72450  0.44513  Biso   1.000  C
  C46      1.0000 0.30290  0.72450  0.05487  Biso   1.000  C
  C47      1.0000 0.30290  0.27550  0.55487  Biso   1.000  C
  C48      1.0000 0.69710  0.27550  0.94513  Biso   1.000  C
  H49      1.0000 0.68550  0.77820  0.41810  Biso   1.000  H
  H50      1.0000 0.31450  0.77820  0.08190  Biso   1.000  H
  H51      1.0000 0.31450  0.22180  0.58190  Biso   1.000  H
  H52      1.0000 0.68550  0.22180  0.91810  Biso   1.000  H
  C49      1.0000 0.56170  0.62830  0.45413  Biso   1.000  C
  C50      1.0000 0.43830  0.62830  0.04587  Biso   1.000  C
  C51      1.0000 0.43830  0.37170  0.54587  Biso   1.000  C
  C52      1.0000 0.56170  0.37170  0.95413  Biso   1.000  C
  H53      1.0000 0.45900  0.61510  0.43280  Biso   1.000  H
  H54      1.0000 0.54100  0.61510  0.06720  Biso   1.000  H
  H55      1.0000 0.54100  0.38490  0.56720  Biso   1.000  H
  H56      1.0000 0.45900  0.38490  0.93280  Biso   1.000  H
  C53      1.0000 0.57380  0.55020  0.49431  Biso   1.000  C
  C54      1.0000 0.42620  0.55020  0.00569  Biso   1.000  C
  C55      1.0000 0.42620  0.44980  0.50569  Biso   1.000  C
  C56      1.0000 0.57380  0.44980  0.99431  Biso   1.000  C
  C57      1.0000 0.73350  0.56980  0.52286  Biso   1.000  C
  C58      1.0000 0.26650  0.56980  0.97714  Biso   1.000  C
  C59      1.0000 0.26650  0.43020  0.47714  Biso   1.000  C
  C60      1.0000 0.73350  0.43020  0.02286  Biso   1.000  C
  H57      1.0000 0.75070  0.51650  0.54980  Biso   1.000  H
  H58      1.0000 0.24930  0.51650  0.95020  Biso   1.000  H
  H59      1.0000 0.24930  0.48350  0.45020  Biso   1.000  H
  H60      1.0000 0.75070  0.48350  0.04980  Biso   1.000  H
  C61      1.0000 0.86620  0.66540  0.51235  Biso   1.000  C
  C62      1.0000 0.13380  0.66540  0.98765  Biso   1.000  C
  C63      1.0000 0.13380  0.33460  0.48765  Biso   1.000  C
  C64      1.0000 0.86620  0.33460  0.01235  Biso   1.000  C
  H61      1.0000 0.97420  0.67740  0.53210  Biso   1.000  H
  H62      1.0000 0.02580  0.67740  0.96790  Biso   1.000  H
  H63      1.0000 0.02580  0.32260  0.46790  Biso   1.000  H
  H64      1.0000 0.97420  0.32260  0.03210  Biso   1.000  H
  N1       1.0000 0.22550  0.02580  0.41613  Biso   1.000  N
  N2       1.0000 0.77450  0.02580  0.08387  Biso   1.000  N
  N3       1.0000 0.77450  0.97420  0.58387  Biso   1.000  N
  N4       1.0000 0.22550  0.97420  0.91613  Biso   1.000  N
  N5       1.0000 0.27450  0.97040  0.17250  Biso   1.000  N
  N6       1.0000 0.72550  0.97040  0.32750  Biso   1.000  N
  N7       1.0000 0.72550  0.02960  0.82750  Biso   1.000  N
  N8       1.0000 0.27450  0.02960  0.67250  Biso   1.000  N
  N9       1.0000 0.84480  0.74200  0.47445  Biso   1.000  N
  N10      1.0000 0.15520  0.74200  0.02555  Biso   1.000  N
  N11      1.0000 0.15520  0.25800  0.52555  Biso   1.000  N
  N12      1.0000 0.84480  0.25800  0.97445  Biso   1.000  N
  P1       1.0000 0.99790  0.50389  0.14785  Biso   1.000  P
  P2       1.0000 0.00210  0.50389  0.35215  Biso   1.000  P
  P3       1.0000 0.00210  0.49611  0.85215  Biso   1.000  P
  P4       1.0000 0.99790  0.49611  0.64785  Biso   1.000  P
  F1       1.0000 0.78530  0.44510  0.14155  Biso   1.000  F
  F2       1.0000 0.21470  0.44510  0.35845  Biso   1.000  F
  F3       1.0000 0.21470  0.55490  0.85845  Biso   1.000  F
  F4       1.0000 0.78530  0.55490  0.64155  Biso   1.000  F
  F5       1.0000 0.04490  0.38990  0.18460  Biso   1.000  F
  F6       1.0000 0.95510  0.38990  0.31540  Biso   1.000  F
  F7       1.0000 0.95510  0.61010  0.81540  Biso   1.000  F
  F8       1.0000 0.04490  0.61010  0.68460  Biso   1.000  F
  F9       1.0000 0.92920  0.59860  0.18877  Biso   1.000  F
  F10      1.0000 0.07080  0.59860  0.31123  Biso   1.000  F
  F11      1.0000 0.07080  0.40140  0.81123  Biso   1.000  F
  F12      1.0000 0.92920  0.40140  0.68877  Biso   1.000  F
  F13      1.0000 0.06460  0.41040  0.10627  Biso   1.000  F
  F14      1.0000 0.93540  0.41040  0.39373  Biso   1.000  F
  F15      1.0000 0.93540  0.58960  0.89373  Biso   1.000  F
  F16      1.0000 0.06460  0.58960  0.60627  Biso   1.000  F
  F17      1.0000 0.94460  0.61710  0.11091  Biso   1.000  F
  F18      1.0000 0.05540  0.61710  0.38909  Biso   1.000  F
  F19      1.0000 0.05540  0.38290  0.88909  Biso   1.000  F
  F20      1.0000 0.94460  0.38290  0.61091  Biso   1.000  F
  F21      1.0000 0.21020  0.56150  0.15239  Biso   1.000  F
  F22      1.0000 0.78980  0.56150  0.34761  Biso   1.000  F
  F23      1.0000 0.78980  0.43850  0.84761  Biso   1.000  F
  F24      1.0000 0.21020  0.43850  0.65239  Biso   1.000  F
  O17      1.0000 0.50000  0.47420  0.25000  Biso   1.000  O
  O18      1.0000 0.50000  0.52580  0.75000  Biso   1.000  O
  C65      1.0000 0.49200  0.37000  0.22080  Biso   1.000  C
  C66      1.0000 0.50800  0.37000  0.27920  Biso   1.000  C
  C67      1.0000 0.50800  0.63000  0.77920  Biso   1.000  C
  C68      1.0000 0.49200  0.63000  0.72080  Biso   1.000  C
