data_image0
_cell_length_a       9.039
_cell_length_b       11.397
_cell_length_c       12.185
_cell_angle_alpha    63.27
_cell_angle_beta     75.425
_cell_angle_gamma    77.368

_symmetry_space_group_name_H-M    "P 1"
_symmetry_int_tables_number       1

loop_
  _symmetry_equiv_pos_as_xyz
  'x, y, z'

loop_
  _atom_site_label
  _atom_site_occupancy
  _atom_site_fract_x
  _atom_site_fract_y
  _atom_site_fract_z
  _atom_site_thermal_displace_type
  _atom_site_B_iso_or_equiv
  _atom_site_type_symbol
  Cu1      1.0000 0.00000  0.50000  0.50000  Biso   1.000  Cu
  O1       1.0000 0.21810  0.48066  0.58337  Biso   1.000  O
  O2       1.0000 0.78190  0.51934  0.41663  Biso   1.000  O
  O3       1.0000 0.88560  0.13470  0.38150  Biso   1.000  O
  O4       1.0000 0.11440  0.86530  0.61850  Biso   1.000  O
  O5       1.0000 0.98660  0.69794  0.43689  Biso   1.000  O
  O6       1.0000 0.01340  0.30206  0.56311  Biso   1.000  O
  O7       1.0000 0.15080  0.50438  0.35216  Biso   1.000  O
  O8       1.0000 0.84920  0.49562  0.64784  Biso   1.000  O
  N1       1.0000 0.31290  0.56713  0.55472  Biso   1.000  N
  N2       1.0000 0.68710  0.43287  0.44528  Biso   1.000  N
  N3       1.0000 0.79720  0.04530  0.40940  Biso   1.000  N
  N4       1.0000 0.20280  0.95470  0.59060  Biso   1.000  N
  N5       1.0000 0.98790  0.78087  0.31707  Biso   1.000  N
  N6       1.0000 0.01210  0.21913  0.68293  Biso   1.000  N
  N7       1.0000 0.10920  0.49923  0.25648  Biso   1.000  N
  N8       1.0000 0.89080  0.50077  0.74352  Biso   1.000  N
  C1       1.0000 0.35580  0.65140  0.43440  Biso   1.000  C
  C2       1.0000 0.64420  0.34860  0.56560  Biso   1.000  C
  H1       1.0000 0.31940  0.64650  0.37010  Biso   1.000  H
  H2       1.0000 0.68060  0.35350  0.62990  Biso   1.000  H
  C3       1.0000 0.45200  0.74410  0.40440  Biso   1.000  C
  C4       1.0000 0.54800  0.25590  0.59560  Biso   1.000  C
  H3       1.0000 0.48040  0.80310  0.31960  Biso   1.000  H
  H4       1.0000 0.51960  0.19690  0.68040  Biso   1.000  H
  C5       1.0000 0.50810  0.75240  0.49740  Biso   1.000  C
  C6       1.0000 0.49190  0.24760  0.50260  Biso   1.000  C
  C7       1.0000 0.46690  0.66010  0.62000  Biso   1.000  C
  C8       1.0000 0.53310  0.33990  0.38000  Biso   1.000  C
  H5       1.0000 0.50650  0.65960  0.68540  Biso   1.000  H
  H6       1.0000 0.49350  0.34040  0.31460  Biso   1.000  H
  C9       1.0000 0.36910  0.56970  0.64650  Biso   1.000  C
  C10      1.0000 0.63090  0.43030  0.35350  Biso   1.000  C
  H7       1.0000 0.34070  0.50840  0.73040  Biso   1.000  H
  H8       1.0000 0.65930  0.49160  0.26960  Biso   1.000  H
  C11      1.0000 0.71020  0.05950  0.32760  Biso   1.000  C
  C12      1.0000 0.28980  0.94050  0.67240  Biso   1.000  C
  H9       1.0000 0.71380  0.13540  0.25010  Biso   1.000  H
  H10      1.0000 0.28620  0.86460  0.74990  Biso   1.000  H
  C13      1.0000 0.61660  0.96630  0.35440  Biso   1.000  C
  C14      1.0000 0.38340  0.03370  0.64560  Biso   1.000  C
  H11      1.0000 0.55680  0.97880  0.29530  Biso   1.000  H
  H12      1.0000 0.44320  0.02120  0.70470  Biso   1.000  H
  C15      1.0000 0.60830  0.85380  0.46730  Biso   1.000  C
  C16      1.0000 0.39170  0.14620  0.53270  Biso   1.000  C
  C17      1.0000 0.69810  0.84230  0.54970  Biso   1.000  C
  C18      1.0000 0.30190  0.15770  0.45030  Biso   1.000  C
  H13      1.0000 0.69550  0.76740  0.62790  Biso   1.000  H
  H14      1.0000 0.30450  0.23260  0.37210  Biso   1.000  H
  C19      1.0000 0.79090  0.93710  0.52070  Biso   1.000  C
  C20      1.0000 0.20910  0.06290  0.47930  Biso   1.000  C
  H15      1.0000 0.85100  0.92670  0.57890  Biso   1.000  H
  H16      1.0000 0.14900  0.07330  0.42110  Biso   1.000  H
  C21      1.0000 0.08380  0.87460  0.26320  Biso   1.000  C
  C22      1.0000 0.91620  0.12540  0.73680  Biso   1.000  C
  H17      1.0000 0.14800  0.88070  0.31090  Biso   1.000  H
  H18      1.0000 0.85200  0.11930  0.68910  Biso   1.000  H
  C23      1.0000 0.08950  0.96180  0.13940  Biso   1.000  C
  C24      1.0000 0.91050  0.03820  0.86060  Biso   1.000  C
  H19      1.0000 0.15790  0.02730  0.10260  Biso   1.000  H
  H20      1.0000 0.84210  0.97270  0.89740  Biso   1.000  H
  C25      1.0000 0.99640  0.95520  0.06740  Biso   1.000  C
  C26      1.0000 0.00360  0.04480  0.93260  Biso   1.000  C
  C27      1.0000 0.89450  0.86070  0.12860  Biso   1.000  C
  C28      1.0000 0.10550  0.13930  0.87140  Biso   1.000  C
  H21      1.0000 0.82550  0.85510  0.08420  Biso   1.000  H
  H22      1.0000 0.17450  0.14490  0.91580  Biso   1.000  H
  C29      1.0000 0.89180  0.77480  0.25250  Biso   1.000  C
  C30      1.0000 0.10820  0.22520  0.74750  Biso   1.000  C
  H23      1.0000 0.82130  0.71080  0.29240  Biso   1.000  H
  H24      1.0000 0.17870  0.28920  0.70760  Biso   1.000  H
  C31      1.0000 0.02950  0.40300  0.27470  Biso   1.000  C
  C32      1.0000 0.97050  0.59700  0.72530  Biso   1.000  C
  H25      1.0000 0.00260  0.33660  0.35630  Biso   1.000  H
  H26      1.0000 0.99740  0.66340  0.64370  Biso   1.000  H
  C33      1.0000 0.98740  0.40150  0.17440  Biso   1.000  C
  C34      1.0000 0.01260  0.59850  0.82560  Biso   1.000  C
  H27      1.0000 0.93200  0.33310  0.18740  Biso   1.000  H
  H28      1.0000 0.06800  0.66690  0.81260  Biso   1.000  H
  C35      1.0000 0.02460  0.49840  0.05430  Biso   1.000  C
  C36      1.0000 0.97540  0.50160  0.94570  Biso   1.000  C
  C37      1.0000 0.11120  0.59360  0.04000  Biso   1.000  C
  C38      1.0000 0.88880  0.40640  0.96000  Biso   1.000  C
  H29      1.0000 0.14180  0.65990  0.95920  Biso   1.000  H
  H30      1.0000 0.85820  0.34010  0.04080  Biso   1.000  H
  C39      1.0000 0.15230  0.59190  0.14160  Biso   1.000  C
  C40      1.0000 0.84770  0.40810  0.85840  Biso   1.000  C
  H31      1.0000 0.21180  0.65680  0.13070  Biso   1.000  H
  H32      1.0000 0.78820  0.34320  0.86930  Biso   1.000  H
  Sb1      1.0000 0.55701  0.75732  0.97927  Biso   1.000  Sb
  Sb2      1.0000 0.44299  0.24268  0.02073  Biso   1.000  Sb
  F1       1.0000 0.51470  0.58770  0.09320  Biso   1.000  F
  F2       1.0000 0.48530  0.41230  0.90680  Biso   1.000  F
  F3       1.0000 0.35620  0.80460  0.94600  Biso   1.000  F
  F4       1.0000 0.64380  0.19540  0.05400  Biso   1.000  F
  F5       1.0000 0.75730  0.71290  0.01210  Biso   1.000  F
  F6       1.0000 0.24270  0.28710  0.98790  Biso   1.000  F
  F7       1.0000 0.60590  0.92430  0.86140  Biso   1.000  F
  F8       1.0000 0.39410  0.07570  0.13860  Biso   1.000  F
  F9       1.0000 0.61600  0.69930  0.85170  Biso   1.000  F
  F10      1.0000 0.38400  0.30070  0.14830  Biso   1.000  F
  F11      1.0000 0.51850  0.83800  0.09210  Biso   1.000  F
  F12      1.0000 0.48150  0.16200  0.90790  Biso   1.000  F
  F13      1.0000 0.48000  0.78830  0.11840  Biso   1.000  F
  F14      1.0000 0.52000  0.21170  0.88160  Biso   1.000  F
