data_image0
_cell_length_a       19.569
_cell_length_b       13.306
_cell_length_c       13.617
_cell_angle_alpha    90
_cell_angle_beta     128.647
_cell_angle_gamma    90

_symmetry_space_group_name_H-M    "P 1"
_symmetry_int_tables_number       1

loop_
  _symmetry_equiv_pos_as_xyz
  'x, y, z'

loop_
  _atom_site_label
  _atom_site_occupancy
  _atom_site_fract_x
  _atom_site_fract_y
  _atom_site_fract_z
  _atom_site_thermal_displace_type
  _atom_site_B_iso_or_equiv
  _atom_site_type_symbol
  Cu1      1.0000 0.50000  0.50000  0.50000  Biso   1.000  Cu
  Cu2      1.0000 0.00000  0.00000  0.50000  Biso   1.000  Cu
  Cu3      1.0000 0.50000  0.50000  0.00000  Biso   1.000  Cu
  Cu4      1.0000 0.00000  0.00000  0.00000  Biso   1.000  Cu
  O1       1.0000 0.61778  0.54940  0.62603  Biso   1.000  O
  O2       1.0000 0.11778  0.04940  0.62603  Biso   1.000  O
  O3       1.0000 0.38222  0.54940  0.87397  Biso   1.000  O
  O4       1.0000 0.88222  0.04940  0.87397  Biso   1.000  O
  O5       1.0000 0.38222  0.45060  0.37397  Biso   1.000  O
  O6       1.0000 0.88222  0.95060  0.37397  Biso   1.000  O
  O7       1.0000 0.61778  0.45060  0.12603  Biso   1.000  O
  O8       1.0000 0.11778  0.95060  0.12603  Biso   1.000  O
  O9       1.0000 0.51203  0.52641  0.37203  Biso   1.000  O
  O10      1.0000 0.01203  0.02641  0.37203  Biso   1.000  O
  O11      1.0000 0.48797  0.52641  0.12797  Biso   1.000  O
  O12      1.0000 0.98797  0.02641  0.12797  Biso   1.000  O
  O13      1.0000 0.48797  0.47359  0.62797  Biso   1.000  O
  O14      1.0000 0.98797  0.97359  0.62797  Biso   1.000  O
  O15      1.0000 0.51203  0.47359  0.87203  Biso   1.000  O
  O16      1.0000 0.01203  0.97359  0.87203  Biso   1.000  O
  N1       1.0000 0.65065  0.59852  0.73180  Biso   1.000  N
  N2       1.0000 0.15065  0.09852  0.73180  Biso   1.000  N
  N3       1.0000 0.34935  0.59852  0.76820  Biso   1.000  N
  N4       1.0000 0.84935  0.09852  0.76820  Biso   1.000  N
  N5       1.0000 0.34935  0.40148  0.26820  Biso   1.000  N
  N6       1.0000 0.84935  0.90148  0.26820  Biso   1.000  N
  N7       1.0000 0.65065  0.40148  0.23180  Biso   1.000  N
  N8       1.0000 0.15065  0.90148  0.23180  Biso   1.000  N
  N9       1.0000 0.57784  0.58883  0.40750  Biso   1.000  N
  N10      1.0000 0.07784  0.08883  0.40750  Biso   1.000  N
  N11      1.0000 0.42216  0.58883  0.09250  Biso   1.000  N
  N12      1.0000 0.92216  0.08883  0.09250  Biso   1.000  N
  N13      1.0000 0.42216  0.41117  0.59250  Biso   1.000  N
  N14      1.0000 0.92216  0.91117  0.59250  Biso   1.000  N
  N15      1.0000 0.57784  0.41117  0.90750  Biso   1.000  N
  N16      1.0000 0.07784  0.91117  0.90750  Biso   1.000  N
  C1       1.0000 0.60080  0.65870  0.74310  Biso   1.000  C
  C2       1.0000 0.10080  0.15870  0.74310  Biso   1.000  C
  C3       1.0000 0.39920  0.65870  0.75690  Biso   1.000  C
  C4       1.0000 0.89920  0.15870  0.75690  Biso   1.000  C
  C5       1.0000 0.39920  0.34130  0.25690  Biso   1.000  C
  C6       1.0000 0.89920  0.84130  0.25690  Biso   1.000  C
  C7       1.0000 0.60080  0.34130  0.24310  Biso   1.000  C
  C8       1.0000 0.10080  0.84130  0.24310  Biso   1.000  C
  H1       1.0000 0.54260  0.66000  0.67700  Biso   1.000  H
  H2       1.0000 0.04260  0.16000  0.67700  Biso   1.000  H
  H3       1.0000 0.45740  0.66000  0.82300  Biso   1.000  H
  H4       1.0000 0.95740  0.16000  0.82300  Biso   1.000  H
  H5       1.0000 0.45740  0.34000  0.32300  Biso   1.000  H
  H6       1.0000 0.95740  0.84000  0.32300  Biso   1.000  H
  H7       1.0000 0.54260  0.34000  0.17700  Biso   1.000  H
  H8       1.0000 0.04260  0.84000  0.17700  Biso   1.000  H
  C9       1.0000 0.63876  0.71810  0.84810  Biso   1.000  C
  C10      1.0000 0.13876  0.21810  0.84810  Biso   1.000  C
  C11      1.0000 0.36124  0.71810  0.65190  Biso   1.000  C
  C12      1.0000 0.86124  0.21810  0.65190  Biso   1.000  C
  C13      1.0000 0.36124  0.28190  0.15190  Biso   1.000  C
  C14      1.0000 0.86124  0.78190  0.15190  Biso   1.000  C
  C15      1.0000 0.63876  0.28190  0.34810  Biso   1.000  C
  C16      1.0000 0.13876  0.78190  0.34810  Biso   1.000  C
  H9       1.0000 0.60370  0.76000  0.85460  Biso   1.000  H
  H10      1.0000 0.10370  0.26000  0.85460  Biso   1.000  H
  H11      1.0000 0.39630  0.76000  0.64540  Biso   1.000  H
  H12      1.0000 0.89630  0.26000  0.64540  Biso   1.000  H
  H13      1.0000 0.39630  0.24000  0.14540  Biso   1.000  H
  H14      1.0000 0.89630  0.74000  0.14540  Biso   1.000  H
  H15      1.0000 0.60370  0.24000  0.35460  Biso   1.000  H
  H16      1.0000 0.10370  0.74000  0.35460  Biso   1.000  H
  C17      1.0000 0.72913  0.71630  0.94520  Biso   1.000  C
  C18      1.0000 0.22913  0.21630  0.94520  Biso   1.000  C
  C19      1.0000 0.27087  0.71630  0.55480  Biso   1.000  C
  C20      1.0000 0.77087  0.21630  0.55480  Biso   1.000  C
  C21      1.0000 0.27087  0.28370  0.05480  Biso   1.000  C
  C22      1.0000 0.77087  0.78370  0.05480  Biso   1.000  C
  C23      1.0000 0.72913  0.28370  0.44520  Biso   1.000  C
  C24      1.0000 0.22913  0.78370  0.44520  Biso   1.000  C
  C25      1.0000 0.77674  0.64800  0.93150  Biso   1.000  C
  C26      1.0000 0.27674  0.14800  0.93150  Biso   1.000  C
  C27      1.0000 0.22326  0.64800  0.56850  Biso   1.000  C
  C28      1.0000 0.72326  0.14800  0.56850  Biso   1.000  C
  C29      1.0000 0.22326  0.35200  0.06850  Biso   1.000  C
  C30      1.0000 0.72326  0.85200  0.06850  Biso   1.000  C
  C31      1.0000 0.77674  0.35200  0.43150  Biso   1.000  C
  C32      1.0000 0.27674  0.85200  0.43150  Biso   1.000  C
  H17      1.0000 0.83660  0.64130  0.99570  Biso   1.000  H
  H18      1.0000 0.33660  0.14130  0.99570  Biso   1.000  H
  H19      1.0000 0.16340  0.64130  0.50430  Biso   1.000  H
  H20      1.0000 0.66340  0.14130  0.50430  Biso   1.000  H
  H21      1.0000 0.16340  0.35870  0.00430  Biso   1.000  H
  H22      1.0000 0.66340  0.85870  0.00430  Biso   1.000  H
  H23      1.0000 0.83660  0.35870  0.49570  Biso   1.000  H
  H24      1.0000 0.33660  0.85870  0.49570  Biso   1.000  H
  C33      1.0000 0.73719  0.59050  0.82540  Biso   1.000  C
  C34      1.0000 0.23719  0.09050  0.82540  Biso   1.000  C
  C35      1.0000 0.26281  0.59050  0.67460  Biso   1.000  C
  C36      1.0000 0.76281  0.09050  0.67460  Biso   1.000  C
  C37      1.0000 0.26281  0.40950  0.17460  Biso   1.000  C
  C38      1.0000 0.76281  0.90950  0.17460  Biso   1.000  C
  C39      1.0000 0.73719  0.40950  0.32540  Biso   1.000  C
  C40      1.0000 0.23719  0.90950  0.32540  Biso   1.000  C
  H25      1.0000 0.77030  0.54580  0.81810  Biso   1.000  H
  H26      1.0000 0.27030  0.04580  0.81810  Biso   1.000  H
  H27      1.0000 0.22970  0.54580  0.68190  Biso   1.000  H
  H28      1.0000 0.72970  0.04580  0.68190  Biso   1.000  H
  H29      1.0000 0.22970  0.45420  0.18190  Biso   1.000  H
  H30      1.0000 0.72970  0.95420  0.18190  Biso   1.000  H
  H31      1.0000 0.77030  0.45420  0.31810  Biso   1.000  H
  H32      1.0000 0.27030  0.95420  0.31810  Biso   1.000  H
  C41      1.0000 0.65681  0.54940  0.45660  Biso   1.000  C
  C42      1.0000 0.15681  0.04940  0.45660  Biso   1.000  C
  C43      1.0000 0.34319  0.54940  0.04340  Biso   1.000  C
  C44      1.0000 0.84319  0.04940  0.04340  Biso   1.000  C
  C45      1.0000 0.34319  0.45060  0.54340  Biso   1.000  C
  C46      1.0000 0.84319  0.95060  0.54340  Biso   1.000  C
  C47      1.0000 0.65681  0.45060  0.95660  Biso   1.000  C
  C48      1.0000 0.15681  0.95060  0.95660  Biso   1.000  C
  H33      1.0000 0.66510  0.48020  0.46550  Biso   1.000  H
  H34      1.0000 0.16510  0.98020  0.46550  Biso   1.000  H
  H35      1.0000 0.33490  0.48020  0.03450  Biso   1.000  H
  H36      1.0000 0.83490  0.98020  0.03450  Biso   1.000  H
  H37      1.0000 0.33490  0.51980  0.53450  Biso   1.000  H
  H38      1.0000 0.83490  0.01980  0.53450  Biso   1.000  H
  H39      1.0000 0.66510  0.51980  0.96550  Biso   1.000  H
  H40      1.0000 0.16510  0.01980  0.96550  Biso   1.000  H
  C49      1.0000 0.72484  0.61190  0.49340  Biso   1.000  C
  C50      1.0000 0.22484  0.11190  0.49340  Biso   1.000  C
  C51      1.0000 0.27516  0.61190  0.00660  Biso   1.000  C
  C52      1.0000 0.77516  0.11190  0.00660  Biso   1.000  C
  C53      1.0000 0.27516  0.38810  0.50660  Biso   1.000  C
  C54      1.0000 0.77516  0.88810  0.50660  Biso   1.000  C
  C55      1.0000 0.72484  0.38810  0.99340  Biso   1.000  C
  C56      1.0000 0.22484  0.88810  0.99340  Biso   1.000  C
  H41      1.0000 0.77910  0.58440  0.52670  Biso   1.000  H
  H42      1.0000 0.27910  0.08440  0.52670  Biso   1.000  H
  H43      1.0000 0.22090  0.58440  0.97330  Biso   1.000  H
  H44      1.0000 0.72090  0.08440  0.97330  Biso   1.000  H
  H45      1.0000 0.22090  0.41560  0.47330  Biso   1.000  H
  H46      1.0000 0.72090  0.91560  0.47330  Biso   1.000  H
  H47      1.0000 0.77910  0.41560  0.02670  Biso   1.000  H
  H48      1.0000 0.27910  0.91560  0.02670  Biso   1.000  H
  C57      1.0000 0.71406  0.71540  0.48190  Biso   1.000  C
  C58      1.0000 0.21406  0.21540  0.48190  Biso   1.000  C
  C59      1.0000 0.28594  0.71540  0.01810  Biso   1.000  C
  C60      1.0000 0.78594  0.21540  0.01810  Biso   1.000  C
  C61      1.0000 0.28594  0.28460  0.51810  Biso   1.000  C
  C62      1.0000 0.78594  0.78460  0.51810  Biso   1.000  C
  C63      1.0000 0.71406  0.28460  0.98190  Biso   1.000  C
  C64      1.0000 0.21406  0.78460  0.98190  Biso   1.000  C
  C65      1.0000 0.63162  0.75240  0.43370  Biso   1.000  C
  C66      1.0000 0.13162  0.25240  0.43370  Biso   1.000  C
  C67      1.0000 0.36838  0.75240  0.06630  Biso   1.000  C
  C68      1.0000 0.86838  0.25240  0.06630  Biso   1.000  C
  C69      1.0000 0.36838  0.24760  0.56630  Biso   1.000  C
  C70      1.0000 0.86838  0.74760  0.56630  Biso   1.000  C
  C71      1.0000 0.63162  0.24760  0.93370  Biso   1.000  C
  C72      1.0000 0.13162  0.74760  0.93370  Biso   1.000  C
  H49      1.0000 0.62160  0.82140  0.42580  Biso   1.000  H
  H50      1.0000 0.12160  0.32140  0.42580  Biso   1.000  H
  H51      1.0000 0.37840  0.82140  0.07420  Biso   1.000  H
  H52      1.0000 0.87840  0.32140  0.07420  Biso   1.000  H
  H53      1.0000 0.37840  0.17860  0.57420  Biso   1.000  H
  H54      1.0000 0.87840  0.67860  0.57420  Biso   1.000  H
  H55      1.0000 0.62160  0.17860  0.92580  Biso   1.000  H
  H56      1.0000 0.12160  0.67860  0.92580  Biso   1.000  H
  C73      1.0000 0.56560  0.68730  0.39830  Biso   1.000  C
  C74      1.0000 0.06560  0.18730  0.39830  Biso   1.000  C
  C75      1.0000 0.43440  0.68730  0.10170  Biso   1.000  C
  C76      1.0000 0.93440  0.18730  0.10170  Biso   1.000  C
  C77      1.0000 0.43440  0.31270  0.60170  Biso   1.000  C
  C78      1.0000 0.93440  0.81270  0.60170  Biso   1.000  C
  C79      1.0000 0.56560  0.31270  0.89830  Biso   1.000  C
  C80      1.0000 0.06560  0.81270  0.89830  Biso   1.000  C
  H57      1.0000 0.51120  0.71270  0.36710  Biso   1.000  H
  H58      1.0000 0.01120  0.21270  0.36710  Biso   1.000  H
  H59      1.0000 0.48880  0.71270  0.13290  Biso   1.000  H
  H60      1.0000 0.98880  0.21270  0.13290  Biso   1.000  H
  H61      1.0000 0.48880  0.28730  0.63290  Biso   1.000  H
  H62      1.0000 0.98880  0.78730  0.63290  Biso   1.000  H
  H63      1.0000 0.51120  0.28730  0.86710  Biso   1.000  H
  H64      1.0000 0.01120  0.78730  0.86710  Biso   1.000  H
  Zr1      1.0000 0.46077  0.01272  0.34114  Biso   1.000  Zr
  Zr2      1.0000 0.96077  0.51272  0.34114  Biso   1.000  Zr
  Zr3      1.0000 0.53923  0.01272  0.15886  Biso   1.000  Zr
  Zr4      1.0000 0.03923  0.51272  0.15886  Biso   1.000  Zr
  Zr5      1.0000 0.53923  0.98728  0.65886  Biso   1.000  Zr
  Zr6      1.0000 0.03923  0.48728  0.65886  Biso   1.000  Zr
  Zr7      1.0000 0.46077  0.98728  0.84114  Biso   1.000  Zr
  Zr8      1.0000 0.96077  0.48728  0.84114  Biso   1.000  Zr
  F1       1.0000 0.57210  0.00212  0.34299  Biso   1.000  F
  F2       1.0000 0.07210  0.50212  0.34299  Biso   1.000  F
  F3       1.0000 0.42790  0.00212  0.15701  Biso   1.000  F
  F4       1.0000 0.92790  0.50212  0.15701  Biso   1.000  F
  F5       1.0000 0.42790  0.99788  0.65701  Biso   1.000  F
  F6       1.0000 0.92790  0.49788  0.65701  Biso   1.000  F
  F7       1.0000 0.57210  0.99788  0.84299  Biso   1.000  F
  F8       1.0000 0.07210  0.49788  0.84299  Biso   1.000  F
  F9       1.0000 0.42840  0.01510  0.46503  Biso   1.000  F
  F10      1.0000 0.92840  0.51510  0.46503  Biso   1.000  F
  F11      1.0000 0.57160  0.01510  0.03497  Biso   1.000  F
  F12      1.0000 0.07160  0.51510  0.03497  Biso   1.000  F
  F13      1.0000 0.57160  0.98490  0.53497  Biso   1.000  F
  F14      1.0000 0.07160  0.48490  0.53497  Biso   1.000  F
  F15      1.0000 0.42840  0.98490  0.96503  Biso   1.000  F
  F16      1.0000 0.92840  0.48490  0.96503  Biso   1.000  F
  F17      1.0000 0.44655  0.86638  0.33022  Biso   1.000  F
  F18      1.0000 0.94655  0.36638  0.33022  Biso   1.000  F
  F19      1.0000 0.55345  0.86638  0.16978  Biso   1.000  F
  F20      1.0000 0.05345  0.36638  0.16978  Biso   1.000  F
  F21      1.0000 0.55345  0.13362  0.66978  Biso   1.000  F
  F22      1.0000 0.05345  0.63362  0.66978  Biso   1.000  F
  F23      1.0000 0.44655  0.13362  0.83022  Biso   1.000  F
  F24      1.0000 0.94655  0.63362  0.83022  Biso   1.000  F
  F25      1.0000 0.33735  0.04911  0.22783  Biso   1.000  F
  F26      1.0000 0.83735  0.54911  0.22783  Biso   1.000  F
  F27      1.0000 0.66265  0.04911  0.27217  Biso   1.000  F
  F28      1.0000 0.16265  0.54911  0.27217  Biso   1.000  F
  F29      1.0000 0.66265  0.95089  0.77217  Biso   1.000  F
  F30      1.0000 0.16265  0.45089  0.77217  Biso   1.000  F
  F31      1.0000 0.33735  0.95089  0.72783  Biso   1.000  F
  F32      1.0000 0.83735  0.45089  0.72783  Biso   1.000  F
  F33      1.0000 0.50098  0.15494  0.38198  Biso   1.000  F
  F34      1.0000 0.00098  0.65494  0.38198  Biso   1.000  F
  F35      1.0000 0.49902  0.15494  0.11802  Biso   1.000  F
  F36      1.0000 0.99902  0.65494  0.11802  Biso   1.000  F
  F37      1.0000 0.49902  0.84506  0.61802  Biso   1.000  F
  F38      1.0000 0.99902  0.34506  0.61802  Biso   1.000  F
  F39      1.0000 0.50098  0.84506  0.88198  Biso   1.000  F
  F40      1.0000 0.00098  0.34506  0.88198  Biso   1.000  F
  O17      1.0000 0.58135  0.32453  0.54880  Biso   1.000  O
  O18      1.0000 0.08135  0.82453  0.54880  Biso   1.000  O
  O19      1.0000 0.41865  0.32453  0.95120  Biso   1.000  O
  O20      1.0000 0.91865  0.82453  0.95120  Biso   1.000  O
  O21      1.0000 0.41865  0.67547  0.45120  Biso   1.000  O
  O22      1.0000 0.91865  0.17547  0.45120  Biso   1.000  O
  O23      1.0000 0.58135  0.67547  0.04880  Biso   1.000  O
  O24      1.0000 0.08135  0.17547  0.04880  Biso   1.000  O
  H65      1.0000 0.56800  0.26380  0.53400  Biso   1.000  H
  H66      1.0000 0.06800  0.76380  0.53400  Biso   1.000  H
  H67      1.0000 0.43200  0.26380  0.96600  Biso   1.000  H
  H68      1.0000 0.93200  0.76380  0.96600  Biso   1.000  H
  H69      1.0000 0.43200  0.73620  0.46600  Biso   1.000  H
  H70      1.0000 0.93200  0.23620  0.46600  Biso   1.000  H
  H71      1.0000 0.56800  0.73620  0.03400  Biso   1.000  H
  H72      1.0000 0.06800  0.23620  0.03400  Biso   1.000  H
  C81      1.0000 0.65890  0.32150  0.67810  Biso   1.000  C
  C82      1.0000 0.15890  0.82150  0.67810  Biso   1.000  C
  C83      1.0000 0.34110  0.32150  0.82190  Biso   1.000  C
  C84      1.0000 0.84110  0.82150  0.82190  Biso   1.000  C
  C85      1.0000 0.34110  0.67850  0.32190  Biso   1.000  C
  C86      1.0000 0.84110  0.17850  0.32190  Biso   1.000  C
  C87      1.0000 0.65890  0.67850  0.17810  Biso   1.000  C
  C88      1.0000 0.15890  0.17850  0.17810  Biso   1.000  C
  H73      1.0000 0.70760  0.34710  0.68490  Biso   1.000  H
  H74      1.0000 0.20760  0.84710  0.68490  Biso   1.000  H
  H75      1.0000 0.29240  0.34710  0.81510  Biso   1.000  H
  H76      1.0000 0.79240  0.84710  0.81510  Biso   1.000  H
  H77      1.0000 0.29240  0.65290  0.31510  Biso   1.000  H
  H78      1.0000 0.79240  0.15290  0.31510  Biso   1.000  H
  H79      1.0000 0.70760  0.65290  0.18490  Biso   1.000  H
  H80      1.0000 0.20760  0.15290  0.18490  Biso   1.000  H
  H81      1.0000 0.67060  0.25340  0.70780  Biso   1.000  H
  H82      1.0000 0.17060  0.75340  0.70780  Biso   1.000  H
  H83      1.0000 0.32940  0.25340  0.79220  Biso   1.000  H
  H84      1.0000 0.82940  0.75340  0.79220  Biso   1.000  H
  H85      1.0000 0.32940  0.74660  0.29220  Biso   1.000  H
  H86      1.0000 0.82940  0.24660  0.29220  Biso   1.000  H
  H87      1.0000 0.67060  0.74660  0.20780  Biso   1.000  H
  H88      1.0000 0.17060  0.24660  0.20780  Biso   1.000  H
  H89      1.0000 0.65040  0.36200  0.72800  Biso   1.000  H
  H90      1.0000 0.15040  0.86200  0.72800  Biso   1.000  H
  H91      1.0000 0.34960  0.36200  0.77200  Biso   1.000  H
  H92      1.0000 0.84960  0.86200  0.77200  Biso   1.000  H
  H93      1.0000 0.34960  0.63800  0.27200  Biso   1.000  H
  H94      1.0000 0.84960  0.13800  0.27200  Biso   1.000  H
  H95      1.0000 0.65040  0.63800  0.22800  Biso   1.000  H
  H96      1.0000 0.15040  0.13800  0.22800  Biso   1.000  H
