data_image0
_cell_length_a       8.3593
_cell_length_b       12.3297
_cell_length_c       15.0316
_cell_angle_alpha    90
_cell_angle_beta     100.566
_cell_angle_gamma    90

_symmetry_space_group_name_H-M    "P 1"
_symmetry_int_tables_number       1

loop_
  _symmetry_equiv_pos_as_xyz
  'x, y, z'

loop_
  _atom_site_label
  _atom_site_occupancy
  _atom_site_fract_x
  _atom_site_fract_y
  _atom_site_fract_z
  _atom_site_thermal_displace_type
  _atom_site_B_iso_or_equiv
  _atom_site_type_symbol
  Cu1      1.0000 0.00000  0.50000  0.00000  Biso   1.000  Cu
  Cu2      1.0000 0.00000  0.00000  0.50000  Biso   1.000  Cu
  O1       1.0000 0.23314  0.53925  0.02231  Biso   1.000  O
  O2       1.0000 0.76686  0.03925  0.47769  Biso   1.000  O
  O3       1.0000 0.76686  0.46075  0.97769  Biso   1.000  O
  O4       1.0000 0.23314  0.96075  0.52231  Biso   1.000  O
  O5       1.0000 0.06650  0.09940  0.37380  Biso   1.000  O
  O6       1.0000 0.93350  0.59940  0.12620  Biso   1.000  O
  O7       1.0000 0.93350  0.90060  0.62620  Biso   1.000  O
  O8       1.0000 0.06650  0.40060  0.87380  Biso   1.000  O
  O9       1.0000 0.04168  0.37844  0.08662  Biso   1.000  O
  O10      1.0000 0.95832  0.87844  0.41338  Biso   1.000  O
  O11      1.0000 0.95832  0.62156  0.91338  Biso   1.000  O
  O12      1.0000 0.04168  0.12156  0.58662  Biso   1.000  O
  N1       1.0000 0.35632  0.47568  0.06075  Biso   1.000  N
  N2       1.0000 0.64368  0.97568  0.43925  Biso   1.000  N
  N3       1.0000 0.64368  0.52432  0.93925  Biso   1.000  N
  N4       1.0000 0.35632  0.02432  0.56075  Biso   1.000  N
  N5       1.0000 0.96433  0.15630  0.31464  Biso   1.000  N
  N6       1.0000 0.03567  0.65630  0.18536  Biso   1.000  N
  N7       1.0000 0.03567  0.84370  0.68536  Biso   1.000  N
  N8       1.0000 0.96433  0.34370  0.81464  Biso   1.000  N
  N9       1.0000 0.02382  0.27419  0.06386  Biso   1.000  N
  N10      1.0000 0.97618  0.77419  0.43614  Biso   1.000  N
  N11      1.0000 0.97618  0.72581  0.93614  Biso   1.000  N
  N12      1.0000 0.02382  0.22581  0.56386  Biso   1.000  N
  C1       1.0000 0.36947  0.37268  0.03261  Biso   1.000  C
  C2       1.0000 0.63053  0.87268  0.46739  Biso   1.000  C
  C3       1.0000 0.63053  0.62732  0.96739  Biso   1.000  C
  C4       1.0000 0.36947  0.12732  0.53261  Biso   1.000  C
  H1       1.0000 0.29160  0.34450  0.98410  Biso   1.000  H
  H2       1.0000 0.70840  0.84450  0.51590  Biso   1.000  H
  H3       1.0000 0.70840  0.65550  0.01590  Biso   1.000  H
  H4       1.0000 0.29160  0.15550  0.48410  Biso   1.000  H
  C5       1.0000 0.49641  0.30844  0.07448  Biso   1.000  C
  C6       1.0000 0.50359  0.80844  0.42552  Biso   1.000  C
  C7       1.0000 0.50359  0.69156  0.92552  Biso   1.000  C
  C8       1.0000 0.49641  0.19156  0.57448  Biso   1.000  C
  H5       1.0000 0.50410  0.23550  0.05540  Biso   1.000  H
  H6       1.0000 0.49590  0.73550  0.44460  Biso   1.000  H
  H7       1.0000 0.49590  0.76450  0.94460  Biso   1.000  H
  H8       1.0000 0.50410  0.26450  0.55540  Biso   1.000  H
  C9       1.0000 0.61371  0.34964  0.14467  Biso   1.000  C
  C10      1.0000 0.38629  0.84964  0.35533  Biso   1.000  C
  C11      1.0000 0.38629  0.65036  0.85533  Biso   1.000  C
  C12      1.0000 0.61371  0.15036  0.64467  Biso   1.000  C
  C13      1.0000 0.60125  0.45912  0.16631  Biso   1.000  C
  C14      1.0000 0.39875  0.95912  0.33369  Biso   1.000  C
  C15      1.0000 0.39875  0.54088  0.83369  Biso   1.000  C
  C16      1.0000 0.60125  0.04088  0.66631  Biso   1.000  C
  H9       1.0000 0.68320  0.49150  0.21050  Biso   1.000  H
  H10      1.0000 0.31680  0.99150  0.28950  Biso   1.000  H
  H11      1.0000 0.31680  0.50850  0.78950  Biso   1.000  H
  H12      1.0000 0.68320  0.00850  0.71050  Biso   1.000  H
  C17      1.0000 0.47189  0.52053  0.12451  Biso   1.000  C
  C18      1.0000 0.52811  0.02053  0.37549  Biso   1.000  C
  C19      1.0000 0.52811  0.47947  0.87549  Biso   1.000  C
  C20      1.0000 0.47189  0.97947  0.62451  Biso   1.000  C
  H13      1.0000 0.46390  0.59460  0.14050  Biso   1.000  H
  H14      1.0000 0.53610  0.09460  0.35950  Biso   1.000  H
  H15      1.0000 0.53610  0.40540  0.85950  Biso   1.000  H
  H16      1.0000 0.46390  0.90540  0.64050  Biso   1.000  H
  C21      1.0000 0.99484  0.26272  0.30237  Biso   1.000  C
  C22      1.0000 0.00516  0.76272  0.19763  Biso   1.000  C
  C23      1.0000 0.00516  0.73728  0.69763  Biso   1.000  C
  C24      1.0000 0.99484  0.23728  0.80237  Biso   1.000  C
  H17      1.0000 0.09280  0.29420  0.33370  Biso   1.000  H
  H18      1.0000 0.90720  0.79420  0.16630  Biso   1.000  H
  H19      1.0000 0.90720  0.70580  0.66630  Biso   1.000  H
  H20      1.0000 0.09280  0.20580  0.83370  Biso   1.000  H
  C25      1.0000 0.88538  0.32560  0.24497  Biso   1.000  C
  C26      1.0000 0.11462  0.82560  0.25503  Biso   1.000  C
  C27      1.0000 0.11462  0.67440  0.75503  Biso   1.000  C
  C28      1.0000 0.88538  0.17440  0.74497  Biso   1.000  C
  H21      1.0000 0.90830  0.40010  0.23730  Biso   1.000  H
  H22      1.0000 0.09170  0.90010  0.26270  Biso   1.000  H
  H23      1.0000 0.09170  0.59990  0.76270  Biso   1.000  H
  H24      1.0000 0.90830  0.09990  0.73730  Biso   1.000  H
  C29      1.0000 0.74058  0.28083  0.19778  Biso   1.000  C
  C30      1.0000 0.25942  0.78083  0.30222  Biso   1.000  C
  C31      1.0000 0.25942  0.71917  0.80222  Biso   1.000  C
  C32      1.0000 0.74058  0.21917  0.69778  Biso   1.000  C
  C33      1.0000 0.71777  0.16931  0.20796  Biso   1.000  C
  C34      1.0000 0.28223  0.66931  0.29204  Biso   1.000  C
  C35      1.0000 0.28223  0.83069  0.79204  Biso   1.000  C
  C36      1.0000 0.71777  0.33069  0.70796  Biso   1.000  C
  H25      1.0000 0.62410  0.13500  0.17420  Biso   1.000  H
  H26      1.0000 0.37590  0.63500  0.32580  Biso   1.000  H
  H27      1.0000 0.37590  0.86500  0.82580  Biso   1.000  H
  H28      1.0000 0.62410  0.36500  0.67420  Biso   1.000  H
  C37      1.0000 0.82949  0.10868  0.26628  Biso   1.000  C
  C38      1.0000 0.17051  0.60868  0.23372  Biso   1.000  C
  C39      1.0000 0.17051  0.89132  0.73372  Biso   1.000  C
  C40      1.0000 0.82949  0.39132  0.76628  Biso   1.000  C
  H29      1.0000 0.81210  0.03320  0.27270  Biso   1.000  H
  H30      1.0000 0.18790  0.53320  0.22730  Biso   1.000  H
  H31      1.0000 0.18790  0.96680  0.72730  Biso   1.000  H
  H32      1.0000 0.81210  0.46680  0.77270  Biso   1.000  H
  C41      1.0000 0.89376  0.23856  0.00407  Biso   1.000  C
  C42      1.0000 0.10624  0.73856  0.49593  Biso   1.000  C
  C43      1.0000 0.10624  0.76144  0.99593  Biso   1.000  C
  C44      1.0000 0.89376  0.26144  0.50407  Biso   1.000  C
  H33      1.0000 0.81050  0.28790  0.97880  Biso   1.000  H
  H34      1.0000 0.18950  0.78790  0.52120  Biso   1.000  H
  H35      1.0000 0.18950  0.71210  0.02120  Biso   1.000  H
  H36      1.0000 0.81050  0.21210  0.47880  Biso   1.000  H
  C45      1.0000 0.88158  0.13079  0.97977  Biso   1.000  C
  C46      1.0000 0.11842  0.63079  0.52023  Biso   1.000  C
  C47      1.0000 0.11842  0.86921  0.02023  Biso   1.000  C
  C48      1.0000 0.88158  0.36921  0.47977  Biso   1.000  C
  H37      1.0000 0.78910  0.10630  0.93820  Biso   1.000  H
  H38      1.0000 0.21090  0.60630  0.56180  Biso   1.000  H
  H39      1.0000 0.21090  0.89370  0.06180  Biso   1.000  H
  H40      1.0000 0.78910  0.39370  0.43820  Biso   1.000  H
  C49      1.0000 0.00320  0.05699  0.01531  Biso   1.000  C
  C50      1.0000 0.99680  0.55699  0.48469  Biso   1.000  C
  C51      1.0000 0.99680  0.94301  0.98469  Biso   1.000  C
  C52      1.0000 0.00320  0.44301  0.51531  Biso   1.000  C
  C53      1.0000 0.13089  0.09619  0.08085  Biso   1.000  C
  C54      1.0000 0.86911  0.59619  0.41915  Biso   1.000  C
  C55      1.0000 0.86911  0.90381  0.91915  Biso   1.000  C
  C56      1.0000 0.13089  0.40381  0.58085  Biso   1.000  C
  H41      1.0000 0.21350  0.04790  0.10890  Biso   1.000  H
  H42      1.0000 0.78650  0.54790  0.39110  Biso   1.000  H
  H43      1.0000 0.78650  0.95210  0.89110  Biso   1.000  H
  H44      1.0000 0.21350  0.45210  0.60890  Biso   1.000  H
  C57      1.0000 0.13816  0.20390  0.10510  Biso   1.000  C
  C58      1.0000 0.86184  0.70390  0.39490  Biso   1.000  C
  C59      1.0000 0.86184  0.79610  0.89490  Biso   1.000  C
  C60      1.0000 0.13816  0.29610  0.60510  Biso   1.000  C
  H45      1.0000 0.22380  0.22900  0.15100  Biso   1.000  H
  H46      1.0000 0.77620  0.72900  0.34900  Biso   1.000  H
  H47      1.0000 0.77620  0.77100  0.84900  Biso   1.000  H
  H48      1.0000 0.22380  0.27100  0.65100  Biso   1.000  H
  B1       1.0000 0.56790  0.86652  0.14408  Biso   1.000  B
  B2       1.0000 0.43210  0.36652  0.35592  Biso   1.000  B
  B3       1.0000 0.43210  0.13348  0.85592  Biso   1.000  B
  B4       1.0000 0.56790  0.63348  0.64408  Biso   1.000  B
  F1       1.0000 0.45776  0.78074  0.12860  Biso   1.000  F
  F2       1.0000 0.54224  0.28074  0.37140  Biso   1.000  F
  F3       1.0000 0.54224  0.21926  0.87140  Biso   1.000  F
  F4       1.0000 0.45776  0.71926  0.62860  Biso   1.000  F
  F5       1.0000 0.66454  0.85726  0.22947  Biso   1.000  F
  F6       1.0000 0.33546  0.35726  0.27053  Biso   1.000  F
  F7       1.0000 0.33546  0.14274  0.77053  Biso   1.000  F
  F8       1.0000 0.66454  0.64274  0.72947  Biso   1.000  F
  F9       1.0000 0.66606  0.86480  0.07924  Biso   1.000  F
  F10      1.0000 0.33394  0.36480  0.42076  Biso   1.000  F
  F11      1.0000 0.33394  0.13520  0.92076  Biso   1.000  F
  F12      1.0000 0.66606  0.63520  0.57924  Biso   1.000  F
  F13      1.0000 0.47936  0.96301  0.13929  Biso   1.000  F
  F14      1.0000 0.52064  0.46301  0.36071  Biso   1.000  F
  F15      1.0000 0.52064  0.03699  0.86071  Biso   1.000  F
  F16      1.0000 0.47936  0.53699  0.63929  Biso   1.000  F
