data_image0
_cell_length_a       8.719
_cell_length_b       11.616
_cell_length_c       12.137
_cell_angle_alpha    62.571
_cell_angle_beta     76.607
_cell_angle_gamma    76.515

_symmetry_space_group_name_H-M    "P 1"
_symmetry_int_tables_number       1

loop_
  _symmetry_equiv_pos_as_xyz
  'x, y, z'

loop_
  _atom_site_label
  _atom_site_occupancy
  _atom_site_fract_x
  _atom_site_fract_y
  _atom_site_fract_z
  _atom_site_thermal_displace_type
  _atom_site_B_iso_or_equiv
  _atom_site_type_symbol
  Cu1      1.0000 0.50000  0.50000  0.00000  Biso   1.000  Cu
  O1       1.0000 0.27590  0.52164  0.90960  Biso   1.000  O
  O2       1.0000 0.72410  0.47836  0.09040  Biso   1.000  O
  O3       1.0000 0.61320  0.86270  0.13110  Biso   1.000  O
  O4       1.0000 0.38680  0.13730  0.86890  Biso   1.000  O
  O5       1.0000 0.65620  0.50896  0.85259  Biso   1.000  O
  O6       1.0000 0.34380  0.49104  0.14741  Biso   1.000  O
  O7       1.0000 0.52360  0.30553  0.06059  Biso   1.000  O
  O8       1.0000 0.47640  0.69447  0.93941  Biso   1.000  O
  N1       1.0000 0.18220  0.43400  0.93975  Biso   1.000  N
  N2       1.0000 0.81780  0.56600  0.06025  Biso   1.000  N
  N3       1.0000 0.70430  0.95040  0.09940  Biso   1.000  N
  N4       1.0000 0.29570  0.04960  0.90060  Biso   1.000  N
  N5       1.0000 0.61540  0.50130  0.75654  Biso   1.000  N
  N6       1.0000 0.38460  0.49870  0.24346  Biso   1.000  N
  N7       1.0000 0.51880  0.22182  0.18159  Biso   1.000  N
  N8       1.0000 0.48120  0.77818  0.81841  Biso   1.000  N
  C1       1.0000 0.14180  0.35200  0.06160  Biso   1.000  C
  C2       1.0000 0.85820  0.64800  0.93840  Biso   1.000  C
  H1       1.0000 0.17740  0.35940  0.12430  Biso   1.000  H
  H2       1.0000 0.82260  0.64060  0.87570  Biso   1.000  H
  C3       1.0000 0.04860  0.25830  0.09270  Biso   1.000  C
  C4       1.0000 0.95140  0.74170  0.90730  Biso   1.000  C
  H3       1.0000 0.02260  0.20240  0.17680  Biso   1.000  H
  H4       1.0000 0.97740  0.79760  0.82320  Biso   1.000  H
  C5       1.0000 0.99160  0.24450  0.00160  Biso   1.000  C
  C6       1.0000 0.00840  0.75550  0.99840  Biso   1.000  C
  C7       1.0000 0.03120  0.33470  0.87750  Biso   1.000  C
  C8       1.0000 0.96880  0.66530  0.12250  Biso   1.000  C
  H5       1.0000 0.99280  0.33200  0.81340  Biso   1.000  H
  H6       1.0000 0.00720  0.66800  0.18660  Biso   1.000  H
  C9       1.0000 0.12570  0.42700  0.84870  Biso   1.000  C
  C10      1.0000 0.87430  0.57300  0.15130  Biso   1.000  C
  H7       1.0000 0.15110  0.48540  0.76540  Biso   1.000  H
  H8       1.0000 0.84890  0.51460  0.23460  Biso   1.000  H
  C11      1.0000 0.79220  0.94130  0.18200  Biso   1.000  C
  C12      1.0000 0.20780  0.05870  0.81800  Biso   1.000  C
  H9       1.0000 0.78890  0.87050  0.26080  Biso   1.000  H
  H10      1.0000 0.21110  0.12950  0.73920  Biso   1.000  H
  C13      1.0000 0.88640  0.03420  0.15210  Biso   1.000  C
  C14      1.0000 0.11360  0.96580  0.84790  Biso   1.000  C
  H11      1.0000 0.94590  0.02530  0.21080  Biso   1.000  H
  H12      1.0000 0.05410  0.97470  0.78920  Biso   1.000  H
  C15      1.0000 0.89410  0.14200  0.03470  Biso   1.000  C
  C16      1.0000 0.10590  0.85800  0.96530  Biso   1.000  C
  C17      1.0000 0.80440  0.14690  0.95120  Biso   1.000  C
  C18      1.0000 0.19560  0.85310  0.04880  Biso   1.000  C
  H13      1.0000 0.80780  0.21570  0.87120  Biso   1.000  H
  H14      1.0000 0.19220  0.78430  0.12880  Biso   1.000  H
  C19      1.0000 0.71130  0.05280  0.98390  Biso   1.000  C
  C20      1.0000 0.28870  0.94720  0.01610  Biso   1.000  C
  H15      1.0000 0.65210  0.05910  0.92620  Biso   1.000  H
  H16      1.0000 0.34790  0.94090  0.07380  Biso   1.000  H
  C21      1.0000 0.53520  0.40670  0.77490  Biso   1.000  C
  C22      1.0000 0.46480  0.59330  0.22510  Biso   1.000  C
  H17      1.0000 0.51000  0.34290  0.85560  Biso   1.000  H
  H18      1.0000 0.49000  0.65710  0.14440  Biso   1.000  H
  C23      1.0000 0.49060  0.40410  0.67560  Biso   1.000  C
  C24      1.0000 0.50940  0.59590  0.32440  Biso   1.000  C
  H19      1.0000 0.43540  0.33820  0.68920  Biso   1.000  H
  H20      1.0000 0.56460  0.66180  0.31080  Biso   1.000  H
  C25      1.0000 0.52690  0.49920  0.55380  Biso   1.000  C
  C26      1.0000 0.47310  0.50080  0.44620  Biso   1.000  C
  C27      1.0000 0.61730  0.59060  0.53910  Biso   1.000  C
  C28      1.0000 0.38270  0.40940  0.46090  Biso   1.000  C
  H21      1.0000 0.64850  0.65310  0.45900  Biso   1.000  H
  H22      1.0000 0.35150  0.34690  0.54100  Biso   1.000  H
  C29      1.0000 0.66090  0.59030  0.64040  Biso   1.000  C
  C30      1.0000 0.33910  0.40970  0.35960  Biso   1.000  C
  H23      1.0000 0.72210  0.65170  0.62890  Biso   1.000  H
  H24      1.0000 0.27790  0.34830  0.37110  Biso   1.000  H
  C31      1.0000 0.42380  0.12860  0.22940  Biso   1.000  C
  C32      1.0000 0.57620  0.87140  0.77060  Biso   1.000  C
  H25      1.0000 0.36380  0.12360  0.17800  Biso   1.000  H
  H26      1.0000 0.63620  0.87640  0.82200  Biso   1.000  H
  C33      1.0000 0.41490  0.04070  0.35410  Biso   1.000  C
  C34      1.0000 0.58510  0.95930  0.64590  Biso   1.000  C
  H27      1.0000 0.34800  0.97730  0.38640  Biso   1.000  H
  H28      1.0000 0.65200  0.02270  0.61360  Biso   1.000  H
  C35      1.0000 0.50510  0.04560  0.43250  Biso   1.000  C
  C36      1.0000 0.49490  0.95440  0.56750  Biso   1.000  C
  C37      1.0000 0.60670  0.13900  0.37740  Biso   1.000  C
  C38      1.0000 0.39330  0.86100  0.62260  Biso   1.000  C
  H29      1.0000 0.67240  0.14310  0.42550  Biso   1.000  H
  H30      1.0000 0.32760  0.85690  0.57450  Biso   1.000  H
  C39      1.0000 0.61230  0.22610  0.25280  Biso   1.000  C
  C40      1.0000 0.38770  0.77390  0.74720  Biso   1.000  C
  H31      1.0000 0.68130  0.28820  0.21770  Biso   1.000  H
  H32      1.0000 0.31870  0.71180  0.78230  Biso   1.000  H
  P1       1.0000 0.94200  0.23734  0.51662  Biso   1.000  P
  P2       1.0000 0.05800  0.76266  0.48338  Biso   1.000  P
  F1       1.0000 0.12380  0.19280  0.53840  Biso   1.000  F
  F2       1.0000 0.87620  0.80720  0.46160  Biso   1.000  F
  F3       1.0000 0.76000  0.28040  0.49580  Biso   1.000  F
  F4       1.0000 0.24000  0.71960  0.50420  Biso   1.000  F
  F5       1.0000 0.90070  0.26110  0.63960  Biso   1.000  F
  F6       1.0000 0.09930  0.73890  0.36040  Biso   1.000  F
  F7       1.0000 0.96970  0.38510  0.43660  Biso   1.000  F
  F8       1.0000 0.03030  0.61490  0.56340  Biso   1.000  F
  F9       1.0000 0.98300  0.21450  0.39510  Biso   1.000  F
  F10      1.0000 0.01700  0.78550  0.60490  Biso   1.000  F
  F11      1.0000 0.91200  0.09020  0.60020  Biso   1.000  F
  F12      1.0000 0.08800  0.90980  0.39980  Biso   1.000  F
