data_image0
_cell_length_a       16.9501
_cell_length_b       16.9501
_cell_length_c       15.3669
_cell_angle_alpha    90
_cell_angle_beta     90
_cell_angle_gamma    90

_symmetry_space_group_name_H-M    "P 1"
_symmetry_int_tables_number       1

loop_
  _symmetry_equiv_pos_as_xyz
  'x, y, z'

loop_
  _atom_site_label
  _atom_site_occupancy
  _atom_site_fract_x
  _atom_site_fract_y
  _atom_site_fract_z
  _atom_site_thermal_displace_type
  _atom_site_B_iso_or_equiv
  _atom_site_type_symbol
  Cu1      1.0000 0.00000  0.00000  0.23442  Biso   1.000  Cu
  Cu2      1.0000 0.50000  0.50000  0.73442  Biso   1.000  Cu
  Cu3      1.0000 0.00000  0.00000  0.76558  Biso   1.000  Cu
  Cu4      1.0000 0.50000  0.50000  0.26558  Biso   1.000  Cu
  O1       1.0000 0.99980  0.11380  0.22960  Biso   1.000  O
  O2       1.0000 0.88620  0.99980  0.22960  Biso   1.000  O
  O3       1.0000 0.11380  0.00020  0.22960  Biso   1.000  O
  O4       1.0000 0.49980  0.61380  0.72960  Biso   1.000  O
  O5       1.0000 0.38620  0.49980  0.72960  Biso   1.000  O
  O6       1.0000 0.61380  0.50020  0.72960  Biso   1.000  O
  O7       1.0000 0.00020  0.88620  0.22960  Biso   1.000  O
  O8       1.0000 0.50020  0.38620  0.72960  Biso   1.000  O
  O9       1.0000 0.00020  0.88620  0.77040  Biso   1.000  O
  O10      1.0000 0.11380  0.00020  0.77040  Biso   1.000  O
  O11      1.0000 0.88620  0.99980  0.77040  Biso   1.000  O
  O12      1.0000 0.50020  0.38620  0.27040  Biso   1.000  O
  O13      1.0000 0.61380  0.50020  0.27040  Biso   1.000  O
  O14      1.0000 0.38620  0.49980  0.27040  Biso   1.000  O
  O15      1.0000 0.99980  0.11380  0.77040  Biso   1.000  O
  O16      1.0000 0.49980  0.61380  0.27040  Biso   1.000  O
  N1       1.0000 0.93000  0.15110  0.23630  Biso   1.000  N
  N2       1.0000 0.84890  0.93000  0.23630  Biso   1.000  N
  N3       1.0000 0.15110  0.07000  0.23630  Biso   1.000  N
  N4       1.0000 0.43000  0.65110  0.73630  Biso   1.000  N
  N5       1.0000 0.34890  0.43000  0.73630  Biso   1.000  N
  N6       1.0000 0.65110  0.57000  0.73630  Biso   1.000  N
  N7       1.0000 0.07000  0.84890  0.23630  Biso   1.000  N
  N8       1.0000 0.57000  0.34890  0.73630  Biso   1.000  N
  N9       1.0000 0.07000  0.84890  0.76370  Biso   1.000  N
  N10      1.0000 0.15110  0.07000  0.76370  Biso   1.000  N
  N11      1.0000 0.84890  0.93000  0.76370  Biso   1.000  N
  N12      1.0000 0.57000  0.34890  0.26370  Biso   1.000  N
  N13      1.0000 0.65110  0.57000  0.26370  Biso   1.000  N
  N14      1.0000 0.34890  0.43000  0.26370  Biso   1.000  N
  N15      1.0000 0.93000  0.15110  0.76370  Biso   1.000  N
  N16      1.0000 0.43000  0.65110  0.26370  Biso   1.000  N
  C1       1.0000 0.89500  0.15740  0.31290  Biso   1.000  C
  C2       1.0000 0.84260  0.89500  0.31290  Biso   1.000  C
  C3       1.0000 0.15740  0.10500  0.31290  Biso   1.000  C
  C4       1.0000 0.39500  0.65740  0.81290  Biso   1.000  C
  C5       1.0000 0.34260  0.39500  0.81290  Biso   1.000  C
  C6       1.0000 0.65740  0.60500  0.81290  Biso   1.000  C
  C7       1.0000 0.10500  0.84260  0.31290  Biso   1.000  C
  C8       1.0000 0.60500  0.34260  0.81290  Biso   1.000  C
  C9       1.0000 0.10500  0.84260  0.68710  Biso   1.000  C
  C10      1.0000 0.15740  0.10500  0.68710  Biso   1.000  C
  C11      1.0000 0.84260  0.89500  0.68710  Biso   1.000  C
  C12      1.0000 0.60500  0.34260  0.18710  Biso   1.000  C
  C13      1.0000 0.65740  0.60500  0.18710  Biso   1.000  C
  C14      1.0000 0.34260  0.39500  0.18710  Biso   1.000  C
  C15      1.0000 0.89500  0.15740  0.68710  Biso   1.000  C
  C16      1.0000 0.39500  0.65740  0.18710  Biso   1.000  C
  H1       1.0000 0.91920  0.13530  0.36300  Biso   1.000  H
  H2       1.0000 0.86470  0.91920  0.36300  Biso   1.000  H
  H3       1.0000 0.13530  0.08080  0.36300  Biso   1.000  H
  H4       1.0000 0.41920  0.63530  0.86300  Biso   1.000  H
  H5       1.0000 0.36470  0.41920  0.86300  Biso   1.000  H
  H6       1.0000 0.63530  0.58080  0.86300  Biso   1.000  H
  H7       1.0000 0.08080  0.86470  0.36300  Biso   1.000  H
  H8       1.0000 0.58080  0.36470  0.86300  Biso   1.000  H
  H9       1.0000 0.08080  0.86470  0.63700  Biso   1.000  H
  H10      1.0000 0.13530  0.08080  0.63700  Biso   1.000  H
  H11      1.0000 0.86470  0.91920  0.63700  Biso   1.000  H
  H12      1.0000 0.58080  0.36470  0.13700  Biso   1.000  H
  H13      1.0000 0.63530  0.58080  0.13700  Biso   1.000  H
  H14      1.0000 0.36470  0.41920  0.13700  Biso   1.000  H
  H15      1.0000 0.91920  0.13530  0.63700  Biso   1.000  H
  H16      1.0000 0.41920  0.63530  0.13700  Biso   1.000  H
  C17      1.0000 0.82330  0.19600  0.32040  Biso   1.000  C
  C18      1.0000 0.80400  0.82330  0.32040  Biso   1.000  C
  C19      1.0000 0.19600  0.17670  0.32040  Biso   1.000  C
  C20      1.0000 0.32330  0.69600  0.82040  Biso   1.000  C
  C21      1.0000 0.30400  0.32330  0.82040  Biso   1.000  C
  C22      1.0000 0.69600  0.67670  0.82040  Biso   1.000  C
  C23      1.0000 0.17670  0.80400  0.32040  Biso   1.000  C
  C24      1.0000 0.67670  0.30400  0.82040  Biso   1.000  C
  C25      1.0000 0.17670  0.80400  0.67960  Biso   1.000  C
  C26      1.0000 0.19600  0.17670  0.67960  Biso   1.000  C
  C27      1.0000 0.80400  0.82330  0.67960  Biso   1.000  C
  C28      1.0000 0.67670  0.30400  0.17960  Biso   1.000  C
  C29      1.0000 0.69600  0.67670  0.17960  Biso   1.000  C
  C30      1.0000 0.30400  0.32330  0.17960  Biso   1.000  C
  C31      1.0000 0.82330  0.19600  0.67960  Biso   1.000  C
  C32      1.0000 0.32330  0.69600  0.17960  Biso   1.000  C
  H17      1.0000 0.79790  0.19980  0.37530  Biso   1.000  H
  H18      1.0000 0.80020  0.79790  0.37530  Biso   1.000  H
  H19      1.0000 0.19980  0.20210  0.37530  Biso   1.000  H
  H20      1.0000 0.29790  0.69980  0.87530  Biso   1.000  H
  H21      1.0000 0.30020  0.29790  0.87530  Biso   1.000  H
  H22      1.0000 0.69980  0.70210  0.87530  Biso   1.000  H
  H23      1.0000 0.20210  0.80020  0.37530  Biso   1.000  H
  H24      1.0000 0.70210  0.30020  0.87530  Biso   1.000  H
  H25      1.0000 0.20210  0.80020  0.62470  Biso   1.000  H
  H26      1.0000 0.19980  0.20210  0.62470  Biso   1.000  H
  H27      1.0000 0.80020  0.79790  0.62470  Biso   1.000  H
  H28      1.0000 0.70210  0.30020  0.12470  Biso   1.000  H
  H29      1.0000 0.69980  0.70210  0.12470  Biso   1.000  H
  H30      1.0000 0.30020  0.29790  0.12470  Biso   1.000  H
  H31      1.0000 0.79790  0.19980  0.62470  Biso   1.000  H
  H32      1.0000 0.29790  0.69980  0.12470  Biso   1.000  H
  C33      1.0000 0.78840  0.22940  0.24610  Biso   1.000  C
  C34      1.0000 0.77060  0.78840  0.24610  Biso   1.000  C
  C35      1.0000 0.22940  0.21160  0.24610  Biso   1.000  C
  C36      1.0000 0.28840  0.72940  0.74610  Biso   1.000  C
  C37      1.0000 0.27060  0.28840  0.74610  Biso   1.000  C
  C38      1.0000 0.72940  0.71160  0.74610  Biso   1.000  C
  C39      1.0000 0.21160  0.77060  0.24610  Biso   1.000  C
  C40      1.0000 0.71160  0.27060  0.74610  Biso   1.000  C
  C41      1.0000 0.21160  0.77060  0.75390  Biso   1.000  C
  C42      1.0000 0.22940  0.21160  0.75390  Biso   1.000  C
  C43      1.0000 0.77060  0.78840  0.75390  Biso   1.000  C
  C44      1.0000 0.71160  0.27060  0.25390  Biso   1.000  C
  C45      1.0000 0.72940  0.71160  0.25390  Biso   1.000  C
  C46      1.0000 0.27060  0.28840  0.25390  Biso   1.000  C
  C47      1.0000 0.78840  0.22940  0.75390  Biso   1.000  C
  C48      1.0000 0.28840  0.72940  0.25390  Biso   1.000  C
  C49      1.0000 0.82640  0.21990  0.16980  Biso   1.000  C
  C50      1.0000 0.78010  0.82640  0.16980  Biso   1.000  C
  C51      1.0000 0.21990  0.17360  0.16980  Biso   1.000  C
  C52      1.0000 0.32640  0.71990  0.66980  Biso   1.000  C
  C53      1.0000 0.28010  0.32640  0.66980  Biso   1.000  C
  C54      1.0000 0.71990  0.67360  0.66980  Biso   1.000  C
  C55      1.0000 0.17360  0.78010  0.16980  Biso   1.000  C
  C56      1.0000 0.67360  0.28010  0.66980  Biso   1.000  C
  C57      1.0000 0.17360  0.78010  0.83020  Biso   1.000  C
  C58      1.0000 0.21990  0.17360  0.83020  Biso   1.000  C
  C59      1.0000 0.78010  0.82640  0.83020  Biso   1.000  C
  C60      1.0000 0.67360  0.28010  0.33020  Biso   1.000  C
  C61      1.0000 0.71990  0.67360  0.33020  Biso   1.000  C
  C62      1.0000 0.28010  0.32640  0.33020  Biso   1.000  C
  C63      1.0000 0.82640  0.21990  0.83020  Biso   1.000  C
  C64      1.0000 0.32640  0.71990  0.33020  Biso   1.000  C
  H33      1.0000 0.80370  0.24060  0.11820  Biso   1.000  H
  H34      1.0000 0.75940  0.80370  0.11820  Biso   1.000  H
  H35      1.0000 0.24060  0.19630  0.11820  Biso   1.000  H
  H36      1.0000 0.30370  0.74060  0.61820  Biso   1.000  H
  H37      1.0000 0.25940  0.30370  0.61820  Biso   1.000  H
  H38      1.0000 0.74060  0.69630  0.61820  Biso   1.000  H
  H39      1.0000 0.19630  0.75940  0.11820  Biso   1.000  H
  H40      1.0000 0.69630  0.25940  0.61820  Biso   1.000  H
  H41      1.0000 0.19630  0.75940  0.88180  Biso   1.000  H
  H42      1.0000 0.24060  0.19630  0.88180  Biso   1.000  H
  H43      1.0000 0.75940  0.80370  0.88180  Biso   1.000  H
  H44      1.0000 0.69630  0.25940  0.38180  Biso   1.000  H
  H45      1.0000 0.74060  0.69630  0.38180  Biso   1.000  H
  H46      1.0000 0.25940  0.30370  0.38180  Biso   1.000  H
  H47      1.0000 0.80370  0.24060  0.88180  Biso   1.000  H
  H48      1.0000 0.30370  0.74060  0.38180  Biso   1.000  H
  C65      1.0000 0.89760  0.18050  0.16500  Biso   1.000  C
  C66      1.0000 0.81950  0.89760  0.16500  Biso   1.000  C
  C67      1.0000 0.18050  0.10240  0.16500  Biso   1.000  C
  C68      1.0000 0.39760  0.68050  0.66500  Biso   1.000  C
  C69      1.0000 0.31950  0.39760  0.66500  Biso   1.000  C
  C70      1.0000 0.68050  0.60240  0.66500  Biso   1.000  C
  C71      1.0000 0.10240  0.81950  0.16500  Biso   1.000  C
  C72      1.0000 0.60240  0.31950  0.66500  Biso   1.000  C
  C73      1.0000 0.10240  0.81950  0.83500  Biso   1.000  C
  C74      1.0000 0.18050  0.10240  0.83500  Biso   1.000  C
  C75      1.0000 0.81950  0.89760  0.83500  Biso   1.000  C
  C76      1.0000 0.60240  0.31950  0.33500  Biso   1.000  C
  C77      1.0000 0.68050  0.60240  0.33500  Biso   1.000  C
  C78      1.0000 0.31950  0.39760  0.33500  Biso   1.000  C
  C79      1.0000 0.89760  0.18050  0.83500  Biso   1.000  C
  C80      1.0000 0.39760  0.68050  0.33500  Biso   1.000  C
  H49      1.0000 0.92340  0.17460  0.11050  Biso   1.000  H
  H50      1.0000 0.82540  0.92340  0.11050  Biso   1.000  H
  H51      1.0000 0.17460  0.07660  0.11050  Biso   1.000  H
  H52      1.0000 0.42340  0.67460  0.61050  Biso   1.000  H
  H53      1.0000 0.32540  0.42340  0.61050  Biso   1.000  H
  H54      1.0000 0.67460  0.57660  0.61050  Biso   1.000  H
  H55      1.0000 0.07660  0.82540  0.11050  Biso   1.000  H
  H56      1.0000 0.57660  0.32540  0.61050  Biso   1.000  H
  H57      1.0000 0.07660  0.82540  0.88950  Biso   1.000  H
  H58      1.0000 0.17460  0.07660  0.88950  Biso   1.000  H
  H59      1.0000 0.82540  0.92340  0.88950  Biso   1.000  H
  H60      1.0000 0.57660  0.32540  0.38950  Biso   1.000  H
  H61      1.0000 0.67460  0.57660  0.38950  Biso   1.000  H
  H62      1.0000 0.32540  0.42340  0.38950  Biso   1.000  H
  H63      1.0000 0.92340  0.17460  0.88950  Biso   1.000  H
  H64      1.0000 0.42340  0.67460  0.38950  Biso   1.000  H
  Sb1      1.0000 0.07247  0.29252  0.00000  Biso   1.000  Sb
  Sb2      1.0000 0.70748  0.07247  0.00000  Biso   1.000  Sb
  Sb3      1.0000 0.29252  0.92753  0.00000  Biso   1.000  Sb
  Sb4      1.0000 0.57247  0.79252  0.50000  Biso   1.000  Sb
  Sb5      1.0000 0.20748  0.57247  0.50000  Biso   1.000  Sb
  Sb6      1.0000 0.79252  0.42753  0.50000  Biso   1.000  Sb
  Sb7      1.0000 0.92753  0.70748  0.00000  Biso   1.000  Sb
  Sb8      1.0000 0.42753  0.20748  0.50000  Biso   1.000  Sb
  F1       1.0000 0.07210  0.29220  0.12150  Biso   1.000  F
  F2       1.0000 0.70780  0.07210  0.12150  Biso   1.000  F
  F3       1.0000 0.29220  0.92790  0.12150  Biso   1.000  F
  F4       1.0000 0.57210  0.79220  0.62150  Biso   1.000  F
  F5       1.0000 0.20780  0.57210  0.62150  Biso   1.000  F
  F6       1.0000 0.79220  0.42790  0.62150  Biso   1.000  F
  F7       1.0000 0.92790  0.70780  0.12150  Biso   1.000  F
  F8       1.0000 0.42790  0.20780  0.62150  Biso   1.000  F
  F9       1.0000 0.92790  0.70780  0.87850  Biso   1.000  F
  F10      1.0000 0.29220  0.92790  0.87850  Biso   1.000  F
  F11      1.0000 0.70780  0.07210  0.87850  Biso   1.000  F
  F12      1.0000 0.42790  0.20780  0.37850  Biso   1.000  F
  F13      1.0000 0.79220  0.42790  0.37850  Biso   1.000  F
  F14      1.0000 0.20780  0.57210  0.37850  Biso   1.000  F
  F15      1.0000 0.07210  0.29220  0.87850  Biso   1.000  F
  F16      1.0000 0.57210  0.79220  0.37850  Biso   1.000  F
  F17      1.0000 0.05080  0.40090  0.00000  Biso   1.000  F
  F18      1.0000 0.59910  0.05080  0.00000  Biso   1.000  F
  F19      1.0000 0.40090  0.94920  0.00000  Biso   1.000  F
  F20      1.0000 0.55080  0.90090  0.50000  Biso   1.000  F
  F21      1.0000 0.09910  0.55080  0.50000  Biso   1.000  F
  F22      1.0000 0.90090  0.44920  0.50000  Biso   1.000  F
  F23      1.0000 0.94920  0.59910  0.00000  Biso   1.000  F
  F24      1.0000 0.44920  0.09910  0.50000  Biso   1.000  F
  F25      1.0000 0.18060  0.31360  0.00000  Biso   1.000  F
  F26      1.0000 0.68640  0.18060  0.00000  Biso   1.000  F
  F27      1.0000 0.31360  0.81940  0.00000  Biso   1.000  F
  F28      1.0000 0.68060  0.81360  0.50000  Biso   1.000  F
  F29      1.0000 0.18640  0.68060  0.50000  Biso   1.000  F
  F30      1.0000 0.81360  0.31940  0.50000  Biso   1.000  F
  F31      1.0000 0.81940  0.68640  0.00000  Biso   1.000  F
  F32      1.0000 0.31940  0.18640  0.50000  Biso   1.000  F
  F33      1.0000 0.96370  0.27140  0.00000  Biso   1.000  F
  F34      1.0000 0.72860  0.96370  0.00000  Biso   1.000  F
  F35      1.0000 0.27140  0.03630  0.00000  Biso   1.000  F
  F36      1.0000 0.46370  0.77140  0.50000  Biso   1.000  F
  F37      1.0000 0.22860  0.46370  0.50000  Biso   1.000  F
  F38      1.0000 0.77140  0.53630  0.50000  Biso   1.000  F
  F39      1.0000 0.03630  0.72860  0.00000  Biso   1.000  F
  F40      1.0000 0.53630  0.22860  0.50000  Biso   1.000  F
  F41      1.0000 0.09320  0.18390  0.00000  Biso   1.000  F
  F42      1.0000 0.81610  0.09320  0.00000  Biso   1.000  F
  F43      1.0000 0.18390  0.90680  0.00000  Biso   1.000  F
  F44      1.0000 0.59320  0.68390  0.50000  Biso   1.000  F
  F45      1.0000 0.31610  0.59320  0.50000  Biso   1.000  F
  F46      1.0000 0.68390  0.40680  0.50000  Biso   1.000  F
  F47      1.0000 0.90680  0.81610  0.00000  Biso   1.000  F
  F48      1.0000 0.40680  0.31610  0.50000  Biso   1.000  F
  F49      1.0000 0.08970  0.40290  0.00000  Biso   1.000  F
  F50      1.0000 0.59710  0.08970  0.00000  Biso   1.000  F
  F51      1.0000 0.40290  0.91030  0.00000  Biso   1.000  F
  F52      1.0000 0.58970  0.90290  0.50000  Biso   1.000  F
  F53      1.0000 0.09710  0.58970  0.50000  Biso   1.000  F
  F54      1.0000 0.90290  0.41030  0.50000  Biso   1.000  F
  F55      1.0000 0.91030  0.59710  0.00000  Biso   1.000  F
  F56      1.0000 0.41030  0.09710  0.50000  Biso   1.000  F
  F57      1.0000 0.18310  0.27550  0.00000  Biso   1.000  F
  F58      1.0000 0.72450  0.18310  0.00000  Biso   1.000  F
  F59      1.0000 0.27550  0.81690  0.00000  Biso   1.000  F
  F60      1.0000 0.68310  0.77550  0.50000  Biso   1.000  F
  F61      1.0000 0.22450  0.68310  0.50000  Biso   1.000  F
  F62      1.0000 0.77550  0.31690  0.50000  Biso   1.000  F
  F63      1.0000 0.81690  0.72450  0.00000  Biso   1.000  F
  F64      1.0000 0.31690  0.22450  0.50000  Biso   1.000  F
  F65      1.0000 0.96190  0.30960  0.00000  Biso   1.000  F
  F66      1.0000 0.69040  0.96190  0.00000  Biso   1.000  F
  F67      1.0000 0.30960  0.03810  0.00000  Biso   1.000  F
  F68      1.0000 0.46190  0.80960  0.50000  Biso   1.000  F
  F69      1.0000 0.19040  0.46190  0.50000  Biso   1.000  F
  F70      1.0000 0.80960  0.53810  0.50000  Biso   1.000  F
  F71      1.0000 0.03810  0.69040  0.00000  Biso   1.000  F
  F72      1.0000 0.53810  0.19040  0.50000  Biso   1.000  F
  F73      1.0000 0.05540  0.18230  0.00000  Biso   1.000  F
  F74      1.0000 0.81770  0.05540  0.00000  Biso   1.000  F
  F75      1.0000 0.18230  0.94460  0.00000  Biso   1.000  F
  F76      1.0000 0.55540  0.68230  0.50000  Biso   1.000  F
  F77      1.0000 0.31770  0.55540  0.50000  Biso   1.000  F
  F78      1.0000 0.68230  0.44460  0.50000  Biso   1.000  F
  F79      1.0000 0.94460  0.81770  0.00000  Biso   1.000  F
  F80      1.0000 0.44460  0.31770  0.50000  Biso   1.000  F
  Si1      1.0000 0.00000  0.00000  0.50000  Biso   1.000  Si
  Si2      1.0000 0.50000  0.50000  0.00000  Biso   1.000  Si
  F81      1.0000 0.07830  0.06100  0.50000  Biso   1.000  F
  F82      1.0000 0.93900  0.07830  0.50000  Biso   1.000  F
  F83      1.0000 0.06100  0.92170  0.50000  Biso   1.000  F
  F84      1.0000 0.57830  0.56100  0.00000  Biso   1.000  F
  F85      1.0000 0.43900  0.57830  0.00000  Biso   1.000  F
  F86      1.0000 0.56100  0.42170  0.00000  Biso   1.000  F
  F87      1.0000 0.92170  0.93900  0.50000  Biso   1.000  F
  F88      1.0000 0.42170  0.43900  0.00000  Biso   1.000  F
  F89      1.0000 0.09590  0.02560  0.50000  Biso   1.000  F
  F90      1.0000 0.97440  0.09590  0.50000  Biso   1.000  F
  F91      1.0000 0.02560  0.90410  0.50000  Biso   1.000  F
  F92      1.0000 0.59590  0.52560  0.00000  Biso   1.000  F
  F93      1.0000 0.47440  0.59590  0.00000  Biso   1.000  F
  F94      1.0000 0.52560  0.40410  0.00000  Biso   1.000  F
  F95      1.0000 0.90410  0.97440  0.50000  Biso   1.000  F
  F96      1.0000 0.40410  0.47440  0.00000  Biso   1.000  F
  F97      1.0000 0.00000  0.00000  0.39080  Biso   1.000  F
  F98      1.0000 0.50000  0.50000  0.89080  Biso   1.000  F
  F99      1.0000 0.00000  0.00000  0.60920  Biso   1.000  F
  F100     1.0000 0.50000  0.50000  0.10920  Biso   1.000  F
  N17      1.0000 0.00000  0.50000  0.25000  Biso   1.000  N
  N18      1.0000 0.50000  0.00000  0.25000  Biso   1.000  N
  N19      1.0000 0.50000  0.00000  0.75000  Biso   1.000  N
  N20      1.0000 0.00000  0.50000  0.75000  Biso   1.000  N
  C81      1.0000 0.97980  0.43490  0.30980  Biso   1.000  C
  C82      1.0000 0.56510  0.97980  0.30980  Biso   1.000  C
  C83      1.0000 0.43490  0.02020  0.30980  Biso   1.000  C
  C84      1.0000 0.47980  0.93490  0.80980  Biso   1.000  C
  C85      1.0000 0.06510  0.47980  0.80980  Biso   1.000  C
  C86      1.0000 0.93490  0.52020  0.80980  Biso   1.000  C
  C87      1.0000 0.02020  0.56510  0.30980  Biso   1.000  C
  C88      1.0000 0.52020  0.06510  0.80980  Biso   1.000  C
  C89      1.0000 0.02020  0.56510  0.69020  Biso   1.000  C
  C90      1.0000 0.43490  0.02020  0.69020  Biso   1.000  C
  C91      1.0000 0.56510  0.97980  0.69020  Biso   1.000  C
  C92      1.0000 0.52020  0.06510  0.19020  Biso   1.000  C
  C93      1.0000 0.93490  0.52020  0.19020  Biso   1.000  C
  C94      1.0000 0.06510  0.47980  0.19020  Biso   1.000  C
  C95      1.0000 0.97980  0.43490  0.69020  Biso   1.000  C
  C96      1.0000 0.47980  0.93490  0.19020  Biso   1.000  C
  C97      1.0000 0.94040  0.36530  0.26470  Biso   1.000  C
  C98      1.0000 0.63470  0.94040  0.26470  Biso   1.000  C
  C99      1.0000 0.36530  0.05960  0.26470  Biso   1.000  C
  C100     1.0000 0.44040  0.86530  0.76470  Biso   1.000  C
  C101     1.0000 0.13470  0.44040  0.76470  Biso   1.000  C
  C102     1.0000 0.86530  0.55960  0.76470  Biso   1.000  C
  C103     1.0000 0.05960  0.63470  0.26470  Biso   1.000  C
  C104     1.0000 0.55960  0.13470  0.76470  Biso   1.000  C
  C105     1.0000 0.05960  0.63470  0.73530  Biso   1.000  C
  C106     1.0000 0.36530  0.05960  0.73530  Biso   1.000  C
  C107     1.0000 0.63470  0.94040  0.73530  Biso   1.000  C
  C108     1.0000 0.55960  0.13470  0.23530  Biso   1.000  C
  C109     1.0000 0.86530  0.55960  0.23530  Biso   1.000  C
  C110     1.0000 0.13470  0.44040  0.23530  Biso   1.000  C
  C111     1.0000 0.94040  0.36530  0.73530  Biso   1.000  C
  C112     1.0000 0.44040  0.86530  0.23530  Biso   1.000  C
  C113     1.0000 0.03700  0.36600  0.31000  Biso   1.000  C
  C114     1.0000 0.63400  0.03700  0.31000  Biso   1.000  C
  C115     1.0000 0.36600  0.96300  0.31000  Biso   1.000  C
  C116     1.0000 0.53700  0.86600  0.81000  Biso   1.000  C
  C117     1.0000 0.13400  0.53700  0.81000  Biso   1.000  C
  C118     1.0000 0.86600  0.46300  0.81000  Biso   1.000  C
  C119     1.0000 0.96300  0.63400  0.31000  Biso   1.000  C
  C120     1.0000 0.46300  0.13400  0.81000  Biso   1.000  C
  C121     1.0000 0.96300  0.63400  0.69000  Biso   1.000  C
  C122     1.0000 0.36600  0.96300  0.69000  Biso   1.000  C
  C123     1.0000 0.63400  0.03700  0.69000  Biso   1.000  C
  C124     1.0000 0.46300  0.13400  0.19000  Biso   1.000  C
  C125     1.0000 0.86600  0.46300  0.19000  Biso   1.000  C
  C126     1.0000 0.13400  0.53700  0.19000  Biso   1.000  C
  C127     1.0000 0.03700  0.36600  0.69000  Biso   1.000  C
  C128     1.0000 0.53700  0.86600  0.19000  Biso   1.000  C
  C129     1.0000 0.00000  0.00000  0.00000  Biso   1.000  C
  C130     1.0000 0.50000  0.50000  0.50000  Biso   1.000  C
  O17      1.0000 0.01700  0.03400  0.08180  Biso   1.000  O
  O18      1.0000 0.96600  0.01700  0.08180  Biso   1.000  O
  O19      1.0000 0.03400  0.98300  0.08180  Biso   1.000  O
  O20      1.0000 0.51700  0.53400  0.58180  Biso   1.000  O
  O21      1.0000 0.46600  0.51700  0.58180  Biso   1.000  O
  O22      1.0000 0.53400  0.48300  0.58180  Biso   1.000  O
  O23      1.0000 0.98300  0.96600  0.08180  Biso   1.000  O
  O24      1.0000 0.48300  0.46600  0.58180  Biso   1.000  O
  O25      1.0000 0.98300  0.96600  0.91820  Biso   1.000  O
  O26      1.0000 0.03400  0.98300  0.91820  Biso   1.000  O
  O27      1.0000 0.96600  0.01700  0.91820  Biso   1.000  O
  O28      1.0000 0.48300  0.46600  0.41820  Biso   1.000  O
  O29      1.0000 0.53400  0.48300  0.41820  Biso   1.000  O
  O30      1.0000 0.46600  0.51700  0.41820  Biso   1.000  O
  O31      1.0000 0.01700  0.03400  0.91820  Biso   1.000  O
  O32      1.0000 0.51700  0.53400  0.41820  Biso   1.000  O
