data_image0
_cell_length_a       38.135
_cell_length_b       8.1185
_cell_length_c       5.2249
_cell_angle_alpha    90
_cell_angle_beta     92.816
_cell_angle_gamma    90

_symmetry_space_group_name_H-M    "P 1"
_symmetry_int_tables_number       1

loop_
  _symmetry_equiv_pos_as_xyz
  'x, y, z'

loop_
  _atom_site_label
  _atom_site_occupancy
  _atom_site_fract_x
  _atom_site_fract_y
  _atom_site_fract_z
  _atom_site_thermal_displace_type
  _atom_site_B_iso_or_equiv
  _atom_site_type_symbol
  C1       1.0000 0.90927  0.25260  0.83960  Biso   1.000  C
  C2       1.0000 0.40927  0.75260  0.83960  Biso   1.000  C
  C3       1.0000 0.09073  0.25260  0.66040  Biso   1.000  C
  C4       1.0000 0.59073  0.75260  0.66040  Biso   1.000  C
  C5       1.0000 0.09073  0.74740  0.16040  Biso   1.000  C
  C6       1.0000 0.59073  0.24740  0.16040  Biso   1.000  C
  C7       1.0000 0.90927  0.74740  0.33960  Biso   1.000  C
  C8       1.0000 0.40927  0.24740  0.33960  Biso   1.000  C
  C9       1.0000 0.89518  0.16820  0.04490  Biso   1.000  C
  C10      1.0000 0.39518  0.66820  0.04490  Biso   1.000  C
  C11      1.0000 0.10482  0.16820  0.45510  Biso   1.000  C
  C12      1.0000 0.60482  0.66820  0.45510  Biso   1.000  C
  C13      1.0000 0.10482  0.83180  0.95510  Biso   1.000  C
  C14      1.0000 0.60482  0.33180  0.95510  Biso   1.000  C
  C15      1.0000 0.89518  0.83180  0.54490  Biso   1.000  C
  C16      1.0000 0.39518  0.33180  0.54490  Biso   1.000  C
  H1       1.0000 0.91020  0.11490  0.16360  Biso   1.000  H
  H2       1.0000 0.41020  0.61490  0.16360  Biso   1.000  H
  H3       1.0000 0.08980  0.11490  0.33640  Biso   1.000  H
  H4       1.0000 0.58980  0.61490  0.33640  Biso   1.000  H
  H5       1.0000 0.08980  0.88510  0.83640  Biso   1.000  H
  H6       1.0000 0.58980  0.38510  0.83640  Biso   1.000  H
  H7       1.0000 0.91020  0.88510  0.66360  Biso   1.000  H
  H8       1.0000 0.41020  0.38510  0.66360  Biso   1.000  H
  C17      1.0000 0.85966  0.16290  0.07390  Biso   1.000  C
  C18      1.0000 0.35966  0.66290  0.07390  Biso   1.000  C
  C19      1.0000 0.14034  0.16290  0.42610  Biso   1.000  C
  C20      1.0000 0.64034  0.66290  0.42610  Biso   1.000  C
  C21      1.0000 0.14034  0.83710  0.92610  Biso   1.000  C
  C22      1.0000 0.64034  0.33710  0.92610  Biso   1.000  C
  C23      1.0000 0.85966  0.83710  0.57390  Biso   1.000  C
  C24      1.0000 0.35966  0.33710  0.57390  Biso   1.000  C
  H9       1.0000 0.85070  0.10410  0.20870  Biso   1.000  H
  H10      1.0000 0.35070  0.60410  0.20870  Biso   1.000  H
  H11      1.0000 0.14930  0.10410  0.29130  Biso   1.000  H
  H12      1.0000 0.64930  0.60410  0.29130  Biso   1.000  H
  H13      1.0000 0.14930  0.89590  0.79130  Biso   1.000  H
  H14      1.0000 0.64930  0.39590  0.79130  Biso   1.000  H
  H15      1.0000 0.85070  0.89590  0.70870  Biso   1.000  H
  H16      1.0000 0.35070  0.39590  0.70870  Biso   1.000  H
  C25      1.0000 0.83704  0.24610  0.90040  Biso   1.000  C
  C26      1.0000 0.33704  0.74610  0.90040  Biso   1.000  C
  C27      1.0000 0.16296  0.24610  0.59960  Biso   1.000  C
  C28      1.0000 0.66296  0.74610  0.59960  Biso   1.000  C
  C29      1.0000 0.16296  0.75390  0.09960  Biso   1.000  C
  C30      1.0000 0.66296  0.25390  0.09960  Biso   1.000  C
  C31      1.0000 0.83704  0.75390  0.40040  Biso   1.000  C
  C32      1.0000 0.33704  0.25390  0.40040  Biso   1.000  C
  C33      1.0000 0.85076  0.32970  0.69660  Biso   1.000  C
  C34      1.0000 0.35076  0.82970  0.69660  Biso   1.000  C
  C35      1.0000 0.14924  0.32970  0.80340  Biso   1.000  C
  C36      1.0000 0.64924  0.82970  0.80340  Biso   1.000  C
  C37      1.0000 0.14924  0.67030  0.30340  Biso   1.000  C
  C38      1.0000 0.64924  0.17030  0.30340  Biso   1.000  C
  C39      1.0000 0.85076  0.67030  0.19660  Biso   1.000  C
  C40      1.0000 0.35076  0.17030  0.19660  Biso   1.000  C
  H17      1.0000 0.83560  0.38380  0.57970  Biso   1.000  H
  H18      1.0000 0.33560  0.88380  0.57970  Biso   1.000  H
  H19      1.0000 0.16440  0.38380  0.92030  Biso   1.000  H
  H20      1.0000 0.66440  0.88380  0.92030  Biso   1.000  H
  H21      1.0000 0.16440  0.61620  0.42030  Biso   1.000  H
  H22      1.0000 0.66440  0.11620  0.42030  Biso   1.000  H
  H23      1.0000 0.83560  0.61620  0.07970  Biso   1.000  H
  H24      1.0000 0.33560  0.11620  0.07970  Biso   1.000  H
  C41      1.0000 0.88642  0.33420  0.66390  Biso   1.000  C
  C42      1.0000 0.38642  0.83420  0.66390  Biso   1.000  C
  C43      1.0000 0.11358  0.33420  0.83610  Biso   1.000  C
  C44      1.0000 0.61358  0.83420  0.83610  Biso   1.000  C
  C45      1.0000 0.11358  0.66580  0.33610  Biso   1.000  C
  C46      1.0000 0.61358  0.16580  0.33610  Biso   1.000  C
  C47      1.0000 0.88642  0.66580  0.16390  Biso   1.000  C
  C48      1.0000 0.38642  0.16580  0.16390  Biso   1.000  C
  H25      1.0000 0.89520  0.39100  0.52640  Biso   1.000  H
  H26      1.0000 0.39520  0.89100  0.52640  Biso   1.000  H
  H27      1.0000 0.10480  0.39100  0.97360  Biso   1.000  H
  H28      1.0000 0.60480  0.89100  0.97360  Biso   1.000  H
  H29      1.0000 0.10480  0.60900  0.47360  Biso   1.000  H
  H30      1.0000 0.60480  0.10900  0.47360  Biso   1.000  H
  H31      1.0000 0.89520  0.60900  0.02640  Biso   1.000  H
  H32      1.0000 0.39520  0.10900  0.02640  Biso   1.000  H
  C49      1.0000 0.79797  0.24390  0.93780  Biso   1.000  C
  C50      1.0000 0.29797  0.74390  0.93780  Biso   1.000  C
  C51      1.0000 0.20203  0.24390  0.56220  Biso   1.000  C
  C52      1.0000 0.70203  0.74390  0.56220  Biso   1.000  C
  C53      1.0000 0.20203  0.75610  0.06220  Biso   1.000  C
  C54      1.0000 0.70203  0.25610  0.06220  Biso   1.000  C
  C55      1.0000 0.79797  0.75610  0.43780  Biso   1.000  C
  C56      1.0000 0.29797  0.25610  0.43780  Biso   1.000  C
  Cu1      1.0000 0.00000  0.93112  0.75000  Biso   1.000  Cu
  Cu2      1.0000 0.50000  0.43112  0.75000  Biso   1.000  Cu
  Cu3      1.0000 0.00000  0.06888  0.25000  Biso   1.000  Cu
  Cu4      1.0000 0.50000  0.56888  0.25000  Biso   1.000  Cu
  Cu5      1.0000 0.00000  0.57137  0.75000  Biso   1.000  Cu
  Cu6      1.0000 0.50000  0.07137  0.75000  Biso   1.000  Cu
  Cu7      1.0000 0.00000  0.42863  0.25000  Biso   1.000  Cu
  Cu8      1.0000 0.50000  0.92863  0.25000  Biso   1.000  Cu
  O1       1.0000 0.96485  0.09550  0.66030  Biso   1.000  O
  O2       1.0000 0.46485  0.59550  0.66030  Biso   1.000  O
  O3       1.0000 0.03515  0.09550  0.83970  Biso   1.000  O
  O4       1.0000 0.53515  0.59550  0.83970  Biso   1.000  O
  O5       1.0000 0.03515  0.90450  0.33970  Biso   1.000  O
  O6       1.0000 0.53515  0.40450  0.33970  Biso   1.000  O
  O7       1.0000 0.96485  0.90450  0.16030  Biso   1.000  O
  O8       1.0000 0.46485  0.40450  0.16030  Biso   1.000  O
  O9       1.0000 0.96521  0.40700  0.65870  Biso   1.000  O
  O10      1.0000 0.46521  0.90700  0.65870  Biso   1.000  O
  O11      1.0000 0.03479  0.40700  0.84130  Biso   1.000  O
  O12      1.0000 0.53479  0.90700  0.84130  Biso   1.000  O
  O13      1.0000 0.03479  0.59300  0.34130  Biso   1.000  O
  O14      1.0000 0.53479  0.09300  0.34130  Biso   1.000  O
  O15      1.0000 0.96521  0.59300  0.15870  Biso   1.000  O
  O16      1.0000 0.46521  0.09300  0.15870  Biso   1.000  O
  O17      1.0000 0.97312  0.24950  0.08020  Biso   1.000  O
  O18      1.0000 0.47312  0.74950  0.08020  Biso   1.000  O
  O19      1.0000 0.02688  0.24950  0.41980  Biso   1.000  O
  O20      1.0000 0.52688  0.74950  0.41980  Biso   1.000  O
  O21      1.0000 0.02688  0.75050  0.91980  Biso   1.000  O
  O22      1.0000 0.52688  0.25050  0.91980  Biso   1.000  O
  O23      1.0000 0.97312  0.75050  0.58020  Biso   1.000  O
  O24      1.0000 0.47312  0.25050  0.58020  Biso   1.000  O
  O25      1.0000 0.77856  0.32270  0.78070  Biso   1.000  O
  O26      1.0000 0.27856  0.82270  0.78070  Biso   1.000  O
  O27      1.0000 0.22144  0.32270  0.71930  Biso   1.000  O
  O28      1.0000 0.72144  0.82270  0.71930  Biso   1.000  O
  O29      1.0000 0.22144  0.67730  0.21930  Biso   1.000  O
  O30      1.0000 0.72144  0.17730  0.21930  Biso   1.000  O
  O31      1.0000 0.77856  0.67730  0.28070  Biso   1.000  O
  O32      1.0000 0.27856  0.17730  0.28070  Biso   1.000  O
  H33      1.0000 0.75730  0.31300  0.81900  Biso   1.000  H
  H34      1.0000 0.25730  0.81300  0.81900  Biso   1.000  H
  H35      1.0000 0.24270  0.31300  0.68100  Biso   1.000  H
  H36      1.0000 0.74270  0.81300  0.68100  Biso   1.000  H
  H37      1.0000 0.24270  0.68700  0.18100  Biso   1.000  H
  H38      1.0000 0.74270  0.18700  0.18100  Biso   1.000  H
  H39      1.0000 0.75730  0.68700  0.31900  Biso   1.000  H
  H40      1.0000 0.25730  0.18700  0.31900  Biso   1.000  H
  O33      1.0000 0.78863  0.16520  0.13080  Biso   1.000  O
  O34      1.0000 0.28863  0.66520  0.13080  Biso   1.000  O
  O35      1.0000 0.21137  0.16520  0.36920  Biso   1.000  O
  O36      1.0000 0.71137  0.66520  0.36920  Biso   1.000  O
  O37      1.0000 0.21137  0.83480  0.86920  Biso   1.000  O
  O38      1.0000 0.71137  0.33480  0.86920  Biso   1.000  O
  O39      1.0000 0.78863  0.83480  0.63080  Biso   1.000  O
  O40      1.0000 0.28863  0.33480  0.63080  Biso   1.000  O
  P1       1.0000 0.95560  0.25190  0.80240  Biso   1.000  P
  P2       1.0000 0.45560  0.75190  0.80240  Biso   1.000  P
  P3       1.0000 0.04440  0.25190  0.69760  Biso   1.000  P
  P4       1.0000 0.54440  0.75190  0.69760  Biso   1.000  P
  P5       1.0000 0.04440  0.74810  0.19760  Biso   1.000  P
  P6       1.0000 0.54440  0.24810  0.19760  Biso   1.000  P
  P7       1.0000 0.95560  0.74810  0.30240  Biso   1.000  P
  P8       1.0000 0.45560  0.24810  0.30240  Biso   1.000  P
