data_image0
_cell_length_a       5.2031
_cell_length_b       8.122
_cell_length_c       19.378
_cell_angle_alpha    90
_cell_angle_beta     100.604
_cell_angle_gamma    90

_symmetry_space_group_name_H-M    "P 1"
_symmetry_int_tables_number       1

loop_
  _symmetry_equiv_pos_as_xyz
  'x, y, z'

loop_
  _atom_site_label
  _atom_site_occupancy
  _atom_site_fract_x
  _atom_site_fract_y
  _atom_site_fract_z
  _atom_site_thermal_displace_type
  _atom_site_B_iso_or_equiv
  _atom_site_type_symbol
  Cu1      1.0000 0.00000  0.17975  0.00000  Biso   1.000  Cu
  Cu2      1.0000 0.50000  0.67975  0.00000  Biso   1.000  Cu
  Cu3      1.0000 0.00000  0.82025  0.00000  Biso   1.000  Cu
  Cu4      1.0000 0.50000  0.32025  0.00000  Biso   1.000  Cu
  P1       1.0000 0.99510  0.50000  0.08874  Biso   1.000  P
  P2       1.0000 0.00490  0.50000  0.91126  Biso   1.000  P
  P3       1.0000 0.49510  0.00000  0.08874  Biso   1.000  P
  P4       1.0000 0.50490  0.00000  0.91126  Biso   1.000  P
  O1       1.0000 0.69790  0.50000  0.05370  Biso   1.000  O
  O2       1.0000 0.30210  0.50000  0.94630  Biso   1.000  O
  O3       1.0000 0.19790  0.00000  0.05370  Biso   1.000  O
  O4       1.0000 0.80210  0.00000  0.94630  Biso   1.000  O
  O5       1.0000 0.13160  0.34430  0.06981  Biso   1.000  O
  O6       1.0000 0.86840  0.34430  0.93019  Biso   1.000  O
  O7       1.0000 0.63160  0.84430  0.06981  Biso   1.000  O
  O8       1.0000 0.36840  0.84430  0.93019  Biso   1.000  O
  O9       1.0000 0.86840  0.65570  0.93019  Biso   1.000  O
  O10      1.0000 0.13160  0.65570  0.06981  Biso   1.000  O
  O11      1.0000 0.36840  0.15570  0.93019  Biso   1.000  O
  O12      1.0000 0.63160  0.15570  0.06981  Biso   1.000  O
  C1       1.0000 0.00620  0.50000  0.18220  Biso   1.000  C
  C2       1.0000 0.99380  0.50000  0.81780  Biso   1.000  C
  C3       1.0000 0.50620  0.00000  0.18220  Biso   1.000  C
  C4       1.0000 0.49380  0.00000  0.81780  Biso   1.000  C
  C5       1.0000 0.01940  0.50000  0.32620  Biso   1.000  C
  C6       1.0000 0.98060  0.50000  0.67380  Biso   1.000  C
  C7       1.0000 0.51940  0.00000  0.32620  Biso   1.000  C
  C8       1.0000 0.48060  0.00000  0.67380  Biso   1.000  C
  C9       1.0000 0.81360  0.41580  0.20960  Biso   1.000  C
  C10      1.0000 0.18640  0.41580  0.79040  Biso   1.000  C
  C11      1.0000 0.31360  0.91580  0.20960  Biso   1.000  C
  C12      1.0000 0.68640  0.91580  0.79040  Biso   1.000  C
  C13      1.0000 0.18640  0.58420  0.79040  Biso   1.000  C
  C14      1.0000 0.81360  0.58420  0.20960  Biso   1.000  C
  C15      1.0000 0.68640  0.08420  0.79040  Biso   1.000  C
  C16      1.0000 0.31360  0.08420  0.20960  Biso   1.000  C
  H1       1.0000 0.67670  0.36130  0.17880  Biso   1.000  H
  H2       1.0000 0.32330  0.36130  0.82120  Biso   1.000  H
  H3       1.0000 0.17670  0.86130  0.17880  Biso   1.000  H
  H4       1.0000 0.82330  0.86130  0.82120  Biso   1.000  H
  H5       1.0000 0.32330  0.63870  0.82120  Biso   1.000  H
  H6       1.0000 0.67670  0.63870  0.17880  Biso   1.000  H
  H7       1.0000 0.82330  0.13870  0.82120  Biso   1.000  H
  H8       1.0000 0.17670  0.13870  0.17880  Biso   1.000  H
  C17      1.0000 0.82100  0.41120  0.28090  Biso   1.000  C
  C18      1.0000 0.17900  0.41120  0.71910  Biso   1.000  C
  C19      1.0000 0.32100  0.91120  0.28090  Biso   1.000  C
  C20      1.0000 0.67900  0.91120  0.71910  Biso   1.000  C
  C21      1.0000 0.17900  0.58880  0.71910  Biso   1.000  C
  C22      1.0000 0.82100  0.58880  0.28090  Biso   1.000  C
  C23      1.0000 0.67900  0.08880  0.71910  Biso   1.000  C
  C24      1.0000 0.32100  0.08880  0.28090  Biso   1.000  C
  H9       1.0000 0.69510  0.34930  0.29960  Biso   1.000  H
  H10      1.0000 0.30490  0.34930  0.70040  Biso   1.000  H
  H11      1.0000 0.19510  0.84930  0.29960  Biso   1.000  H
  H12      1.0000 0.80490  0.84930  0.70040  Biso   1.000  H
  H13      1.0000 0.30490  0.65070  0.70040  Biso   1.000  H
  H14      1.0000 0.69510  0.65070  0.29960  Biso   1.000  H
  H15      1.0000 0.80490  0.15070  0.70040  Biso   1.000  H
  H16      1.0000 0.19510  0.15070  0.29960  Biso   1.000  H
  C25      1.0000 0.01530  0.50000  0.40350  Biso   1.000  C
  C26      1.0000 0.98470  0.50000  0.59650  Biso   1.000  C
  C27      1.0000 0.51530  0.00000  0.40350  Biso   1.000  C
  C28      1.0000 0.48470  0.00000  0.59650  Biso   1.000  C
  O13      1.0000 0.84160  0.41430  0.42400  Biso   1.000  O
  O14      1.0000 0.15840  0.41430  0.57600  Biso   1.000  O
  O15      1.0000 0.34160  0.91430  0.42400  Biso   1.000  O
  O16      1.0000 0.65840  0.91430  0.57600  Biso   1.000  O
  O17      1.0000 0.15840  0.58570  0.57600  Biso   1.000  O
  O18      1.0000 0.84160  0.58570  0.42400  Biso   1.000  O
  O19      1.0000 0.65840  0.08570  0.57600  Biso   1.000  O
  O20      1.0000 0.34160  0.08570  0.42400  Biso   1.000  O
  H17      1.0000 0.85650  0.42300  0.46770  Biso   1.000  H
  H18      1.0000 0.14350  0.42300  0.53230  Biso   1.000  H
  H19      1.0000 0.35650  0.92300  0.46770  Biso   1.000  H
  H20      1.0000 0.64350  0.92300  0.53230  Biso   1.000  H
  H21      1.0000 0.14350  0.57700  0.53230  Biso   1.000  H
  H22      1.0000 0.85650  0.57700  0.46770  Biso   1.000  H
  H23      1.0000 0.64350  0.07700  0.53230  Biso   1.000  H
  H24      1.0000 0.35650  0.07700  0.46770  Biso   1.000  H
  C29      1.0000 0.20900  0.41900  0.29890  Biso   1.000  C
  C30      1.0000 0.79100  0.41900  0.70110  Biso   1.000  C
  C31      1.0000 0.70900  0.91900  0.29890  Biso   1.000  C
  C32      1.0000 0.29100  0.91900  0.70110  Biso   1.000  C
  C33      1.0000 0.79100  0.58100  0.70110  Biso   1.000  C
  C34      1.0000 0.20900  0.58100  0.29890  Biso   1.000  C
  C35      1.0000 0.29100  0.08100  0.70110  Biso   1.000  C
  C36      1.0000 0.70900  0.08100  0.29890  Biso   1.000  C
  H25      1.0000 0.34520  0.36370  0.32960  Biso   1.000  H
  H26      1.0000 0.65480  0.36370  0.67040  Biso   1.000  H
  H27      1.0000 0.84520  0.86370  0.32960  Biso   1.000  H
  H28      1.0000 0.15480  0.86370  0.67040  Biso   1.000  H
  H29      1.0000 0.65480  0.63630  0.67040  Biso   1.000  H
  H30      1.0000 0.34520  0.63630  0.32960  Biso   1.000  H
  H31      1.0000 0.15480  0.13630  0.67040  Biso   1.000  H
  H32      1.0000 0.84520  0.13630  0.32960  Biso   1.000  H
  C37      1.0000 0.20490  0.41680  0.22700  Biso   1.000  C
  C38      1.0000 0.79510  0.41680  0.77300  Biso   1.000  C
  C39      1.0000 0.70490  0.91680  0.22700  Biso   1.000  C
  C40      1.0000 0.29510  0.91680  0.77300  Biso   1.000  C
  C41      1.0000 0.79510  0.58320  0.77300  Biso   1.000  C
  C42      1.0000 0.20490  0.58320  0.22700  Biso   1.000  C
  C43      1.0000 0.29510  0.08320  0.77300  Biso   1.000  C
  C44      1.0000 0.70490  0.08320  0.22700  Biso   1.000  C
  H33      1.0000 0.33600  0.35910  0.20860  Biso   1.000  H
  H34      1.0000 0.66400  0.35910  0.79140  Biso   1.000  H
  H35      1.0000 0.83600  0.85910  0.20860  Biso   1.000  H
  H36      1.0000 0.16400  0.85910  0.79140  Biso   1.000  H
  H37      1.0000 0.66400  0.64090  0.79140  Biso   1.000  H
  H38      1.0000 0.33600  0.64090  0.20860  Biso   1.000  H
  H39      1.0000 0.16400  0.14090  0.79140  Biso   1.000  H
  H40      1.0000 0.83600  0.14090  0.20860  Biso   1.000  H
  O21      1.0000 0.19310  0.41740  0.44150  Biso   1.000  O
  O22      1.0000 0.80690  0.41740  0.55850  Biso   1.000  O
  O23      1.0000 0.69310  0.91740  0.44150  Biso   1.000  O
  O24      1.0000 0.30690  0.91740  0.55850  Biso   1.000  O
  O25      1.0000 0.80690  0.58260  0.55850  Biso   1.000  O
  O26      1.0000 0.19310  0.58260  0.44150  Biso   1.000  O
  O27      1.0000 0.30690  0.08260  0.55850  Biso   1.000  O
  O28      1.0000 0.69310  0.08260  0.44150  Biso   1.000  O
