data_image0
_cell_length_a       19.0951
_cell_length_b       8.0968
_cell_length_c       5.2111
_cell_angle_alpha    90
_cell_angle_beta     94.914
_cell_angle_gamma    90

_symmetry_space_group_name_H-M    "P 1"
_symmetry_int_tables_number       1

loop_
  _symmetry_equiv_pos_as_xyz
  'x, y, z'

loop_
  _atom_site_label
  _atom_site_occupancy
  _atom_site_fract_x
  _atom_site_fract_y
  _atom_site_fract_z
  _atom_site_thermal_displace_type
  _atom_site_B_iso_or_equiv
  _atom_site_type_symbol
  Cu1      1.0000 0.00061  0.17999  0.50342  Biso   1.000  Cu
  Cu2      1.0000 0.99939  0.67999  0.99658  Biso   1.000  Cu
  Cu3      1.0000 0.99939  0.82001  0.49658  Biso   1.000  Cu
  Cu4      1.0000 0.00061  0.32001  0.00342  Biso   1.000  Cu
  P1       1.0000 0.08872  0.00054  0.09586  Biso   1.000  P
  P2       1.0000 0.91128  0.50054  0.40414  Biso   1.000  P
  P3       1.0000 0.91128  0.99946  0.90414  Biso   1.000  P
  P4       1.0000 0.08872  0.49946  0.59586  Biso   1.000  P
  O1       1.0000 0.05406  0.99960  0.35630  Biso   1.000  O
  O2       1.0000 0.94594  0.49960  0.14370  Biso   1.000  O
  O3       1.0000 0.94594  0.00040  0.64370  Biso   1.000  O
  O4       1.0000 0.05406  0.50040  0.85630  Biso   1.000  O
  O5       1.0000 0.06985  0.15530  0.94000  Biso   1.000  O
  O6       1.0000 0.93015  0.65530  0.56000  Biso   1.000  O
  O7       1.0000 0.93015  0.84470  0.06000  Biso   1.000  O
  O8       1.0000 0.06985  0.34470  0.44000  Biso   1.000  O
  O9       1.0000 0.07003  0.84410  0.94160  Biso   1.000  O
  O10      1.0000 0.92997  0.34410  0.55840  Biso   1.000  O
  O11      1.0000 0.92997  0.15590  0.05840  Biso   1.000  O
  O12      1.0000 0.07003  0.65590  0.44160  Biso   1.000  O
  C1       1.0000 0.18168  0.00090  0.17860  Biso   1.000  C
  C2       1.0000 0.81832  0.50090  0.32140  Biso   1.000  C
  C3       1.0000 0.81832  0.99910  0.82140  Biso   1.000  C
  C4       1.0000 0.18168  0.49910  0.67860  Biso   1.000  C
  C5       1.0000 0.28100  0.91400  0.46210  Biso   1.000  C
  C6       1.0000 0.71900  0.41400  0.03790  Biso   1.000  C
  C7       1.0000 0.71900  0.08600  0.53790  Biso   1.000  C
  C8       1.0000 0.28100  0.58600  0.96210  Biso   1.000  C
  H1       1.0000 0.29900  0.85740  0.60830  Biso   1.000  H
  H2       1.0000 0.70100  0.35740  0.89170  Biso   1.000  H
  H3       1.0000 0.70100  0.14260  0.39170  Biso   1.000  H
  H4       1.0000 0.29900  0.64260  0.10830  Biso   1.000  H
  C9       1.0000 0.20930  0.91570  0.39530  Biso   1.000  C
  C10      1.0000 0.79070  0.41570  0.10470  Biso   1.000  C
  C11      1.0000 0.79070  0.08430  0.60470  Biso   1.000  C
  C12      1.0000 0.20930  0.58430  0.89530  Biso   1.000  C
  H5       1.0000 0.17930  0.86030  0.49780  Biso   1.000  H
  H6       1.0000 0.82070  0.36030  0.00220  Biso   1.000  H
  H7       1.0000 0.82070  0.13970  0.50220  Biso   1.000  H
  H8       1.0000 0.17930  0.63970  0.99780  Biso   1.000  H
  C13      1.0000 0.22700  0.08380  0.02740  Biso   1.000  C
  C14      1.0000 0.77300  0.58380  0.47260  Biso   1.000  C
  C15      1.0000 0.77300  0.91620  0.97260  Biso   1.000  C
  C16      1.0000 0.22700  0.41620  0.52740  Biso   1.000  C
  H9       1.0000 0.20910  0.14080  0.88140  Biso   1.000  H
  H10      1.0000 0.79090  0.64080  0.61860  Biso   1.000  H
  H11      1.0000 0.79090  0.85920  0.11860  Biso   1.000  H
  H12      1.0000 0.20910  0.35920  0.38140  Biso   1.000  H
  C17      1.0000 0.29940  0.08170  0.09290  Biso   1.000  C
  C18      1.0000 0.70060  0.58170  0.40710  Biso   1.000  C
  C19      1.0000 0.70060  0.91830  0.90710  Biso   1.000  C
  C20      1.0000 0.29940  0.41830  0.59290  Biso   1.000  C
  H13      1.0000 0.32960  0.13820  0.99280  Biso   1.000  H
  H14      1.0000 0.67040  0.63820  0.50720  Biso   1.000  H
  H15      1.0000 0.67040  0.86180  0.00720  Biso   1.000  H
  H16      1.0000 0.32960  0.36180  0.49280  Biso   1.000  H
  C21      1.0000 0.32560  0.99650  0.31060  Biso   1.000  C
  C22      1.0000 0.67440  0.49650  0.18940  Biso   1.000  C
  C23      1.0000 0.67440  0.00350  0.68940  Biso   1.000  C
  C24      1.0000 0.32560  0.50350  0.81060  Biso   1.000  C
  C25      1.0000 0.40290  0.99650  0.38960  Biso   1.000  C
  C26      1.0000 0.59710  0.49650  0.11040  Biso   1.000  C
  C27      1.0000 0.59710  0.00350  0.61040  Biso   1.000  C
  C28      1.0000 0.40290  0.50350  0.88960  Biso   1.000  C
  O13      1.0000 0.44140  0.07820  0.25290  Biso   1.000  O
  O14      1.0000 0.55860  0.57820  0.24710  Biso   1.000  O
  O15      1.0000 0.55860  0.92180  0.74710  Biso   1.000  O
  O16      1.0000 0.44140  0.42180  0.75290  Biso   1.000  O
  H17      1.0000 0.48240  0.07140  0.31340  Biso   1.000  H
  H18      1.0000 0.51760  0.57140  0.18660  Biso   1.000  H
  H19      1.0000 0.51760  0.92860  0.68660  Biso   1.000  H
  H20      1.0000 0.48240  0.42860  0.81340  Biso   1.000  H
  O17      1.0000 0.42460  0.91530  0.58360  Biso   1.000  O
  O18      1.0000 0.57540  0.41530  0.91640  Biso   1.000  O
  O19      1.0000 0.57540  0.08470  0.41640  Biso   1.000  O
  O20      1.0000 0.42460  0.58470  0.08360  Biso   1.000  O
