data_image0
_cell_length_a       7.2921
_cell_length_b       7.5161
_cell_length_c       7.6282
_cell_angle_alpha    88.9
_cell_angle_beta     78.627
_cell_angle_gamma    80.188

_symmetry_space_group_name_H-M    "P 1"
_symmetry_int_tables_number       1

loop_
  _symmetry_equiv_pos_as_xyz
  'x, y, z'

loop_
  _atom_site_label
  _atom_site_occupancy
  _atom_site_fract_x
  _atom_site_fract_y
  _atom_site_fract_z
  _atom_site_thermal_displace_type
  _atom_site_B_iso_or_equiv
  _atom_site_type_symbol
  Cu1      1.0000 0.35386  0.20392  0.52769  Biso   1.000  Cu
  Cu2      1.0000 0.64614  0.79608  0.47231  Biso   1.000  Cu
  O1       1.0000 0.58610  0.08310  0.36060  Biso   1.000  O
  O2       1.0000 0.41390  0.91690  0.63940  Biso   1.000  O
  O3       1.0000 0.58520  0.33460  0.20170  Biso   1.000  O
  O4       1.0000 0.41480  0.66540  0.79830  Biso   1.000  O
  O5       1.0000 0.21640  0.12390  0.35790  Biso   1.000  O
  O6       1.0000 0.78360  0.87610  0.64210  Biso   1.000  O
  O7       1.0000 0.91400  0.26530  0.42080  Biso   1.000  O
  O8       1.0000 0.08600  0.73470  0.57920  Biso   1.000  O
  O9       1.0000 0.24550  0.42300  0.04390  Biso   1.000  O
  O10      1.0000 0.75450  0.57700  0.95610  Biso   1.000  O
  H1       1.0000 0.27820  0.51590  0.99890  Biso   1.000  H
  H2       1.0000 0.72180  0.48410  0.00110  Biso   1.000  H
  H3       1.0000 0.33940  0.38690  0.10800  Biso   1.000  H
  H4       1.0000 0.66060  0.61310  0.89200  Biso   1.000  H
  N1       1.0000 0.53330  0.28880  0.66140  Biso   1.000  N
  N2       1.0000 0.46670  0.71120  0.33860  Biso   1.000  N
  H5       1.0000 0.65470  0.24070  0.60970  Biso   1.000  H
  H6       1.0000 0.34530  0.75930  0.39030  Biso   1.000  H
  H7       1.0000 0.50850  0.25290  0.77700  Biso   1.000  H
  H8       1.0000 0.49150  0.74710  0.22300  Biso   1.000  H
  H9       1.0000 0.51860  0.41140  0.65830  Biso   1.000  H
  H10      1.0000 0.48140  0.58860  0.34170  Biso   1.000  H
  N3       1.0000 0.13060  0.34170  0.68780  Biso   1.000  N
  N4       1.0000 0.86940  0.65830  0.31220  Biso   1.000  N
  H11      1.0000 0.12290  0.46150  0.66330  Biso   1.000  H
  H12      1.0000 0.87710  0.53850  0.33670  Biso   1.000  H
  H13      1.0000 0.14260  0.32350  0.80360  Biso   1.000  H
  H14      1.0000 0.85740  0.67650  0.19640  Biso   1.000  H
  H15      1.0000 0.02350  0.30380  0.67030  Biso   1.000  H
  H16      1.0000 0.97650  0.69620  0.32970  Biso   1.000  H
  C1       1.0000 0.04900  0.16480  0.32830  Biso   1.000  C
  C2       1.0000 0.95100  0.83520  0.67170  Biso   1.000  C
  C3       1.0000 0.02030  0.07880  0.16010  Biso   1.000  C
  C4       1.0000 0.97970  0.92120  0.83990  Biso   1.000  C
  C5       1.0000 0.82270  0.01160  0.95920  Biso   1.000  C
  C6       1.0000 0.17730  0.98840  0.04080  Biso   1.000  C
  H17      1.0000 0.70000  0.01950  0.93170  Biso   1.000  H
  H18      1.0000 0.30000  0.98050  0.06830  Biso   1.000  H
  C7       1.0000 0.84040  0.09030  0.11650  Biso   1.000  C
  C8       1.0000 0.15960  0.90970  0.88350  Biso   1.000  C
  C9       1.0000 0.65970  0.18040  0.23620  Biso   1.000  C
  C10      1.0000 0.34030  0.81960  0.76380  Biso   1.000  C
