data_image0
_cell_length_a       7.5307
_cell_length_b       8.7478
_cell_length_c       8.7673
_cell_angle_alpha    100.595
_cell_angle_beta     93.595
_cell_angle_gamma    115.24

_symmetry_space_group_name_H-M    "P 1"
_symmetry_int_tables_number       1

loop_
  _symmetry_equiv_pos_as_xyz
  'x, y, z'

loop_
  _atom_site_label
  _atom_site_occupancy
  _atom_site_fract_x
  _atom_site_fract_y
  _atom_site_fract_z
  _atom_site_thermal_displace_type
  _atom_site_B_iso_or_equiv
  _atom_site_type_symbol
  Cu1      1.0000 0.50000  0.00000  0.00000  Biso   1.000  Cu
  Cu2      1.0000 0.00000  0.50000  0.00000  Biso   1.000  Cu
  O1       1.0000 0.72910  0.03600  0.15960  Biso   1.000  O
  O2       1.0000 0.27090  0.96400  0.84040  Biso   1.000  O
  N1       1.0000 0.34360  0.03300  0.16900  Biso   1.000  N
  N2       1.0000 0.65640  0.96700  0.83100  Biso   1.000  N
  H1       1.0000 0.23350  0.92680  0.17220  Biso   1.000  H
  H2       1.0000 0.76650  0.07320  0.82780  Biso   1.000  H
  H3       1.0000 0.28800  0.10720  0.13550  Biso   1.000  H
  H4       1.0000 0.71200  0.89280  0.86450  Biso   1.000  H
  O3       1.0000 0.69980  0.76520  0.10850  Biso   1.000  O
  O4       1.0000 0.30020  0.23480  0.89150  Biso   1.000  O
  O5       1.0000 0.79890  0.53410  0.31380  Biso   1.000  O
  O6       1.0000 0.20110  0.46590  0.68620  Biso   1.000  O
  O7       1.0000 0.03130  0.68820  0.18190  Biso   1.000  O
  O8       1.0000 0.96870  0.31180  0.81810  Biso   1.000  O
  N3       1.0000 0.89630  0.61990  0.86840  Biso   1.000  N
  N4       1.0000 0.10370  0.38010  0.13160  Biso   1.000  N
  H5       1.0000 0.82140  0.66400  0.94390  Biso   1.000  H
  H6       1.0000 0.17860  0.33600  0.05610  Biso   1.000  H
  H7       1.0000 0.00190  0.69620  0.84370  Biso   1.000  H
  H8       1.0000 0.99810  0.30380  0.15630  Biso   1.000  H
  O9       1.0000 0.33460  0.69010  0.96510  Biso   1.000  O
  O10      1.0000 0.66540  0.30990  0.03490  Biso   1.000  O
  H9       1.0000 0.44500  0.69600  0.01380  Biso   1.000  H
  H10      1.0000 0.55500  0.30400  0.98620  Biso   1.000  H
  H11      1.0000 0.30560  0.61850  0.86780  Biso   1.000  H
  H12      1.0000 0.69440  0.38150  0.13220  Biso   1.000  H
  C1       1.0000 0.44190  0.12060  0.33270  Biso   1.000  C
  C2       1.0000 0.55810  0.87940  0.66730  Biso   1.000  C
  H13      1.0000 0.48930  0.04730  0.37710  Biso   1.000  H
  H14      1.0000 0.51070  0.95270  0.62290  Biso   1.000  H
  H15      1.0000 0.34680  0.14050  0.39490  Biso   1.000  H
  H16      1.0000 0.65320  0.85950  0.60510  Biso   1.000  H
  H17      1.0000 0.55480  0.23230  0.33490  Biso   1.000  H
  H18      1.0000 0.44520  0.76770  0.66510  Biso   1.000  H
  C3       1.0000 0.76570  0.91510  0.19210  Biso   1.000  C
  C4       1.0000 0.23430  0.08490  0.80790  Biso   1.000  C
  C5       1.0000 0.89370  0.95910  0.34920  Biso   1.000  C
  C6       1.0000 0.10630  0.04090  0.65080  Biso   1.000  C
  C7       1.0000 0.94090  0.11630  0.45460  Biso   1.000  C
  C8       1.0000 0.05910  0.88370  0.54540  Biso   1.000  C
  H19      1.0000 0.90070  0.19660  0.42320  Biso   1.000  H
  H20      1.0000 0.09930  0.80340  0.57680  Biso   1.000  H
  C9       1.0000 0.95380  0.84190  0.39460  Biso   1.000  C
  C10      1.0000 0.04620  0.15810  0.60540  Biso   1.000  C
  C11      1.0000 0.91960  0.67230  0.28740  Biso   1.000  C
  C12      1.0000 0.08040  0.32770  0.71260  Biso   1.000  C
  C13      1.0000 0.75270  0.51960  0.72210  Biso   1.000  C
  C14      1.0000 0.24730  0.48040  0.27790  Biso   1.000  C
  H21      1.0000 0.63580  0.42570  0.74560  Biso   1.000  H
  H22      1.0000 0.36420  0.57430  0.25440  Biso   1.000  H
  H23      1.0000 0.71180  0.59670  0.67760  Biso   1.000  H
  H24      1.0000 0.28820  0.40330  0.32240  Biso   1.000  H
  H25      1.0000 0.81530  0.47010  0.64620  Biso   1.000  H
  H26      1.0000 0.18470  0.52990  0.35380  Biso   1.000  H
