data_image0
_cell_length_a       6.861
_cell_length_b       22.857
_cell_length_c       13.351
_cell_angle_alpha    90
_cell_angle_beta     90
_cell_angle_gamma    90

_symmetry_space_group_name_H-M    "P 1"
_symmetry_int_tables_number       1

loop_
  _symmetry_equiv_pos_as_xyz
  'x, y, z'

loop_
  _atom_site_label
  _atom_site_occupancy
  _atom_site_fract_x
  _atom_site_fract_y
  _atom_site_fract_z
  _atom_site_thermal_displace_type
  _atom_site_B_iso_or_equiv
  _atom_site_type_symbol
  C1       1.0000 0.50000  0.81400  0.38610  Biso   1.000  C
  C2       1.0000 0.50000  0.18600  0.88610  Biso   1.000  C
  C3       1.0000 0.00000  0.31400  0.38610  Biso   1.000  C
  C4       1.0000 0.00000  0.68600  0.88610  Biso   1.000  C
  C5       1.0000 0.50000  0.86700  0.45320  Biso   1.000  C
  C6       1.0000 0.50000  0.13300  0.95320  Biso   1.000  C
  C7       1.0000 0.00000  0.36700  0.45320  Biso   1.000  C
  C8       1.0000 0.00000  0.63300  0.95320  Biso   1.000  C
  C9       1.0000 0.50000  0.87240  0.55910  Biso   1.000  C
  C10      1.0000 0.50000  0.12760  0.05910  Biso   1.000  C
  C11      1.0000 0.00000  0.37240  0.55910  Biso   1.000  C
  C12      1.0000 0.00000  0.62760  0.05910  Biso   1.000  C
  H1       1.0000 0.50000  0.83870  0.59820  Biso   1.000  H
  H2       1.0000 0.50000  0.16130  0.09820  Biso   1.000  H
  H3       1.0000 0.00000  0.33870  0.59820  Biso   1.000  H
  H4       1.0000 0.00000  0.66130  0.09820  Biso   1.000  H
  C13      1.0000 0.50000  0.92570  0.60520  Biso   1.000  C
  C14      1.0000 0.50000  0.07430  0.10520  Biso   1.000  C
  C15      1.0000 0.00000  0.42570  0.60520  Biso   1.000  C
  C16      1.0000 0.00000  0.57430  0.10520  Biso   1.000  C
  H5       1.0000 0.50000  0.92810  0.67480  Biso   1.000  H
  H6       1.0000 0.50000  0.07190  0.17480  Biso   1.000  H
  H7       1.0000 0.00000  0.42810  0.67480  Biso   1.000  H
  H8       1.0000 0.00000  0.57190  0.17480  Biso   1.000  H
  C17      1.0000 0.50000  0.97380  0.55090  Biso   1.000  C
  C18      1.0000 0.50000  0.02620  0.05090  Biso   1.000  C
  C19      1.0000 0.00000  0.47380  0.55090  Biso   1.000  C
  C20      1.0000 0.00000  0.52620  0.05090  Biso   1.000  C
  H9       1.0000 0.50000  0.00960  0.58400  Biso   1.000  H
  H10      1.0000 0.50000  0.99040  0.08400  Biso   1.000  H
  H11      1.0000 0.00000  0.50960  0.58400  Biso   1.000  H
  H12      1.0000 0.00000  0.49040  0.08400  Biso   1.000  H
  C21      1.0000 0.50000  0.97400  0.44850  Biso   1.000  C
  C22      1.0000 0.50000  0.02600  0.94850  Biso   1.000  C
  C23      1.0000 0.00000  0.47400  0.44850  Biso   1.000  C
  C24      1.0000 0.00000  0.52600  0.94850  Biso   1.000  C
  H13      1.0000 0.50000  0.00880  0.41220  Biso   1.000  H
  H14      1.0000 0.50000  0.99120  0.91220  Biso   1.000  H
  H15      1.0000 0.00000  0.50880  0.41220  Biso   1.000  H
  H16      1.0000 0.00000  0.49120  0.91220  Biso   1.000  H
  C25      1.0000 0.50000  0.92010  0.40130  Biso   1.000  C
  C26      1.0000 0.50000  0.07990  0.90130  Biso   1.000  C
  C27      1.0000 0.00000  0.42010  0.40130  Biso   1.000  C
  C28      1.0000 0.00000  0.57990  0.90130  Biso   1.000  C
  C29      1.0000 0.50000  0.66490  0.06020  Biso   1.000  C
  C30      1.0000 0.50000  0.33510  0.56020  Biso   1.000  C
  C31      1.0000 0.00000  0.16490  0.06020  Biso   1.000  C
  C32      1.0000 0.00000  0.83510  0.56020  Biso   1.000  C
  C33      1.0000 0.50000  0.60010  0.04750  Biso   1.000  C
  C34      1.0000 0.50000  0.39990  0.54750  Biso   1.000  C
  C35      1.0000 0.00000  0.10010  0.04750  Biso   1.000  C
  C36      1.0000 0.00000  0.89990  0.54750  Biso   1.000  C
  C37      1.0000 0.50000  0.56740  0.95790  Biso   1.000  C
  C38      1.0000 0.50000  0.43260  0.45790  Biso   1.000  C
  C39      1.0000 0.00000  0.06740  0.95790  Biso   1.000  C
  C40      1.0000 0.00000  0.93260  0.45790  Biso   1.000  C
  H17      1.0000 0.50000  0.58470  0.89490  Biso   1.000  H
  H18      1.0000 0.50000  0.41530  0.39490  Biso   1.000  H
  H19      1.0000 0.00000  0.08470  0.89490  Biso   1.000  H
  H20      1.0000 0.00000  0.91530  0.39490  Biso   1.000  H
  C41      1.0000 0.50000  0.50540  0.97170  Biso   1.000  C
  C42      1.0000 0.50000  0.49460  0.47170  Biso   1.000  C
  C43      1.0000 0.00000  0.00540  0.97170  Biso   1.000  C
  C44      1.0000 0.00000  0.99460  0.47170  Biso   1.000  C
  H21      1.0000 0.50000  0.48150  0.91530  Biso   1.000  H
  H22      1.0000 0.50000  0.51850  0.41530  Biso   1.000  H
  H23      1.0000 0.00000  0.98150  0.91530  Biso   1.000  H
  H24      1.0000 0.00000  0.01850  0.41530  Biso   1.000  H
  C45      1.0000 0.50000  0.48060  0.06060  Biso   1.000  C
  C46      1.0000 0.50000  0.51940  0.56060  Biso   1.000  C
  C47      1.0000 0.00000  0.98060  0.06060  Biso   1.000  C
  C48      1.0000 0.00000  0.01940  0.56060  Biso   1.000  C
  H25      1.0000 0.50000  0.44000  0.06460  Biso   1.000  H
  H26      1.0000 0.50000  0.56000  0.56460  Biso   1.000  H
  H27      1.0000 0.00000  0.94000  0.06460  Biso   1.000  H
  H28      1.0000 0.00000  0.06000  0.56460  Biso   1.000  H
  C49      1.0000 0.50000  0.51210  0.14680  Biso   1.000  C
  C50      1.0000 0.50000  0.48790  0.64680  Biso   1.000  C
  C51      1.0000 0.00000  0.01210  0.14680  Biso   1.000  C
  C52      1.0000 0.00000  0.98790  0.64680  Biso   1.000  C
  H29      1.0000 0.50000  0.49410  0.20930  Biso   1.000  H
  H30      1.0000 0.50000  0.50590  0.70930  Biso   1.000  H
  H31      1.0000 0.00000  0.99410  0.20930  Biso   1.000  H
  H32      1.0000 0.00000  0.00590  0.70930  Biso   1.000  H
  C53      1.0000 0.50000  0.57090  0.13730  Biso   1.000  C
  C54      1.0000 0.50000  0.42910  0.63730  Biso   1.000  C
  C55      1.0000 0.00000  0.07090  0.13730  Biso   1.000  C
  C56      1.0000 0.00000  0.92910  0.63730  Biso   1.000  C
  C57      1.0000 0.89830  0.79310  0.12580  Biso   1.000  C
  C58      1.0000 0.10170  0.20690  0.62580  Biso   1.000  C
  C59      1.0000 0.10170  0.79310  0.12580  Biso   1.000  C
  C60      1.0000 0.89830  0.20690  0.62580  Biso   1.000  C
  C61      1.0000 0.39830  0.29310  0.12580  Biso   1.000  C
  C62      1.0000 0.60170  0.70690  0.62580  Biso   1.000  C
  C63      1.0000 0.60170  0.29310  0.12580  Biso   1.000  C
  C64      1.0000 0.39830  0.70690  0.62580  Biso   1.000  C
  H33      1.0000 0.82960  0.81150  0.07390  Biso   1.000  H
  H34      1.0000 0.17040  0.18850  0.57390  Biso   1.000  H
  H35      1.0000 0.17040  0.81150  0.07390  Biso   1.000  H
  H36      1.0000 0.82960  0.18850  0.57390  Biso   1.000  H
  H37      1.0000 0.32960  0.31150  0.07390  Biso   1.000  H
  H38      1.0000 0.67040  0.68850  0.57390  Biso   1.000  H
  H39      1.0000 0.67040  0.31150  0.07390  Biso   1.000  H
  H40      1.0000 0.32960  0.68850  0.57390  Biso   1.000  H
  C65      1.0000 0.77550  0.82320  0.04540  Biso   1.000  C
  C66      1.0000 0.22450  0.17680  0.54540  Biso   1.000  C
  C67      1.0000 0.22450  0.82320  0.04540  Biso   1.000  C
  C68      1.0000 0.77550  0.17680  0.54540  Biso   1.000  C
  C69      1.0000 0.27550  0.32320  0.04540  Biso   1.000  C
  C70      1.0000 0.72450  0.67680  0.54540  Biso   1.000  C
  C71      1.0000 0.72450  0.32320  0.04540  Biso   1.000  C
  C72      1.0000 0.27550  0.67680  0.54540  Biso   1.000  C
  H41      1.0000 0.64780  0.80610  0.04390  Biso   1.000  H
  H42      1.0000 0.35220  0.19390  0.54390  Biso   1.000  H
  H43      1.0000 0.35220  0.80610  0.04390  Biso   1.000  H
  H44      1.0000 0.64780  0.19390  0.54390  Biso   1.000  H
  H45      1.0000 0.14780  0.30610  0.04390  Biso   1.000  H
  H46      1.0000 0.85220  0.69390  0.54390  Biso   1.000  H
  H47      1.0000 0.85220  0.30610  0.04390  Biso   1.000  H
  H48      1.0000 0.14780  0.69390  0.54390  Biso   1.000  H
  H49      1.0000 0.83670  0.81840  0.98120  Biso   1.000  H
  H50      1.0000 0.16330  0.18160  0.48120  Biso   1.000  H
  H51      1.0000 0.16330  0.81840  0.98120  Biso   1.000  H
  H52      1.0000 0.83670  0.18160  0.48120  Biso   1.000  H
  H53      1.0000 0.33670  0.31840  0.98120  Biso   1.000  H
  H54      1.0000 0.66330  0.68160  0.48120  Biso   1.000  H
  H55      1.0000 0.66330  0.31840  0.98120  Biso   1.000  H
  H56      1.0000 0.33670  0.68160  0.48120  Biso   1.000  H
  H57      1.0000 0.76490  0.86420  0.06040  Biso   1.000  H
  H58      1.0000 0.23510  0.13580  0.56040  Biso   1.000  H
  H59      1.0000 0.23510  0.86420  0.06040  Biso   1.000  H
  H60      1.0000 0.76490  0.13580  0.56040  Biso   1.000  H
  H61      1.0000 0.26490  0.36420  0.06040  Biso   1.000  H
  H62      1.0000 0.73510  0.63580  0.56040  Biso   1.000  H
  H63      1.0000 0.73510  0.36420  0.06040  Biso   1.000  H
  H64      1.0000 0.26490  0.63580  0.56040  Biso   1.000  H
  C73      1.0000 0.89920  0.74360  0.27460  Biso   1.000  C
  C74      1.0000 0.10080  0.25640  0.77460  Biso   1.000  C
  C75      1.0000 0.10080  0.74360  0.27460  Biso   1.000  C
  C76      1.0000 0.89920  0.25640  0.77460  Biso   1.000  C
  C77      1.0000 0.39920  0.24360  0.27460  Biso   1.000  C
  C78      1.0000 0.60080  0.75640  0.77460  Biso   1.000  C
  C79      1.0000 0.60080  0.24360  0.27460  Biso   1.000  C
  C80      1.0000 0.39920  0.75640  0.77460  Biso   1.000  C
  H65      1.0000 0.83280  0.72660  0.32790  Biso   1.000  H
  H66      1.0000 0.16720  0.27340  0.82790  Biso   1.000  H
  H67      1.0000 0.16720  0.72660  0.32790  Biso   1.000  H
  H68      1.0000 0.83280  0.27340  0.82790  Biso   1.000  H
  H69      1.0000 0.33280  0.22660  0.32790  Biso   1.000  H
  H70      1.0000 0.66720  0.77340  0.82790  Biso   1.000  H
  H71      1.0000 0.66720  0.22660  0.32790  Biso   1.000  H
  H72      1.0000 0.33280  0.77340  0.82790  Biso   1.000  H
  N1       1.0000 0.50000  0.83150  0.29130  Biso   1.000  N
  N2       1.0000 0.50000  0.16850  0.79130  Biso   1.000  N
  N3       1.0000 0.00000  0.33150  0.29130  Biso   1.000  N
  N4       1.0000 0.00000  0.66850  0.79130  Biso   1.000  N
  N5       1.0000 0.50000  0.68010  0.15730  Biso   1.000  N
  N6       1.0000 0.50000  0.31990  0.65730  Biso   1.000  N
  N7       1.0000 0.00000  0.18010  0.15730  Biso   1.000  N
  N8       1.0000 0.00000  0.81990  0.65730  Biso   1.000  N
  N9       1.0000 0.79890  0.76722  0.20030  Biso   1.000  N
  N10      1.0000 0.20110  0.23278  0.70030  Biso   1.000  N
  N11      1.0000 0.20110  0.76722  0.20030  Biso   1.000  N
  N12      1.0000 0.79890  0.23278  0.70030  Biso   1.000  N
  N13      1.0000 0.29890  0.26722  0.20030  Biso   1.000  N
  N14      1.0000 0.70110  0.73278  0.70030  Biso   1.000  N
  N15      1.0000 0.70110  0.26722  0.20030  Biso   1.000  N
  N16      1.0000 0.29890  0.73278  0.70030  Biso   1.000  N
  O1       1.0000 0.67640  0.91870  0.22660  Biso   1.000  O
  O2       1.0000 0.32360  0.08130  0.72660  Biso   1.000  O
  O3       1.0000 0.32360  0.91870  0.22660  Biso   1.000  O
  O4       1.0000 0.67640  0.08130  0.72660  Biso   1.000  O
  O5       1.0000 0.17640  0.41870  0.22660  Biso   1.000  O
  O6       1.0000 0.82360  0.58130  0.72660  Biso   1.000  O
  O7       1.0000 0.82360  0.41870  0.22660  Biso   1.000  O
  O8       1.0000 0.17640  0.58130  0.72660  Biso   1.000  O
  O9       1.0000 0.50000  0.76590  0.41870  Biso   1.000  O
  O10      1.0000 0.50000  0.23410  0.91870  Biso   1.000  O
  O11      1.0000 0.00000  0.26590  0.41870  Biso   1.000  O
  O12      1.0000 0.00000  0.73410  0.91870  Biso   1.000  O
  O13      1.0000 0.67750  0.62310  0.29030  Biso   1.000  O
  O14      1.0000 0.32250  0.37690  0.79030  Biso   1.000  O
  O15      1.0000 0.32250  0.62310  0.29030  Biso   1.000  O
  O16      1.0000 0.67750  0.37690  0.79030  Biso   1.000  O
  O17      1.0000 0.17750  0.12310  0.29030  Biso   1.000  O
  O18      1.0000 0.82250  0.87690  0.79030  Biso   1.000  O
  O19      1.0000 0.82250  0.12310  0.29030  Biso   1.000  O
  O20      1.0000 0.17750  0.87690  0.79030  Biso   1.000  O
  O21      1.0000 0.50000  0.69900  0.98630  Biso   1.000  O
  O22      1.0000 0.50000  0.30100  0.48630  Biso   1.000  O
  O23      1.0000 0.00000  0.19900  0.98630  Biso   1.000  O
  O24      1.0000 0.00000  0.80100  0.48630  Biso   1.000  O
  S1       1.0000 0.50000  0.90159  0.27310  Biso   1.000  S
  S2       1.0000 0.50000  0.09841  0.77310  Biso   1.000  S
  S3       1.0000 0.00000  0.40159  0.27310  Biso   1.000  S
  S4       1.0000 0.00000  0.59841  0.77310  Biso   1.000  S
  S5       1.0000 0.50000  0.62461  0.23224  Biso   1.000  S
  S6       1.0000 0.50000  0.37539  0.73224  Biso   1.000  S
  S7       1.0000 0.00000  0.12461  0.23224  Biso   1.000  S
  S8       1.0000 0.00000  0.87539  0.73224  Biso   1.000  S
  Cu1      1.0000 0.50000  0.76354  0.20260  Biso   1.000  Cu
  Cu2      1.0000 0.50000  0.23646  0.70260  Biso   1.000  Cu
  Cu3      1.0000 0.00000  0.26354  0.20260  Biso   1.000  Cu
  Cu4      1.0000 0.00000  0.73646  0.70260  Biso   1.000  Cu
