data_image0
_cell_length_a       11.285
_cell_length_b       13.116
_cell_length_c       14.29
_cell_angle_alpha    90
_cell_angle_beta     113.02
_cell_angle_gamma    90

_symmetry_space_group_name_H-M    "P 1"
_symmetry_int_tables_number       1

loop_
  _symmetry_equiv_pos_as_xyz
  'x, y, z'

loop_
  _atom_site_label
  _atom_site_occupancy
  _atom_site_fract_x
  _atom_site_fract_y
  _atom_site_fract_z
  _atom_site_thermal_displace_type
  _atom_site_B_iso_or_equiv
  _atom_site_type_symbol
  Cu1      1.0000 0.84381  0.01933  0.30675  Biso   1.000  Cu
  Cu2      1.0000 0.15619  0.51933  0.19325  Biso   1.000  Cu
  Cu3      1.0000 0.15619  0.98067  0.69325  Biso   1.000  Cu
  Cu4      1.0000 0.84381  0.48067  0.80675  Biso   1.000  Cu
  S1       1.0000 0.78187  0.27226  0.06212  Biso   1.000  S
  S2       1.0000 0.21813  0.77226  0.43788  Biso   1.000  S
  S3       1.0000 0.21813  0.72774  0.93788  Biso   1.000  S
  S4       1.0000 0.78187  0.22774  0.56212  Biso   1.000  S
  N1       1.0000 0.83200  0.11400  0.20120  Biso   1.000  N
  N2       1.0000 0.16800  0.61400  0.29880  Biso   1.000  N
  N3       1.0000 0.16800  0.88600  0.79880  Biso   1.000  N
  N4       1.0000 0.83200  0.38600  0.70120  Biso   1.000  N
  C1       1.0000 0.81200  0.17950  0.14420  Biso   1.000  C
  C2       1.0000 0.18800  0.67950  0.35580  Biso   1.000  C
  C3       1.0000 0.18800  0.82050  0.85580  Biso   1.000  C
  C4       1.0000 0.81200  0.32050  0.64420  Biso   1.000  C
  O1       1.0000 0.96920  0.10800  0.41980  Biso   1.000  O
  O2       1.0000 0.03080  0.60800  0.08020  Biso   1.000  O
  O3       1.0000 0.03080  0.89200  0.58020  Biso   1.000  O
  O4       1.0000 0.96920  0.39200  0.91980  Biso   1.000  O
  N5       1.0000 0.10410  0.08190  0.58890  Biso   1.000  N
  N6       1.0000 0.89590  0.58190  0.91110  Biso   1.000  N
  N7       1.0000 0.89590  0.91810  0.41110  Biso   1.000  N
  N8       1.0000 0.10410  0.41810  0.08890  Biso   1.000  N
  C5       1.0000 0.02030  0.05560  0.50150  Biso   1.000  C
  C6       1.0000 0.97970  0.55560  0.99850  Biso   1.000  C
  C7       1.0000 0.97970  0.94440  0.49850  Biso   1.000  C
  C8       1.0000 0.02030  0.44440  0.00150  Biso   1.000  C
  C9       1.0000 0.15700  0.18430  0.61610  Biso   1.000  C
  C10      1.0000 0.84300  0.68430  0.88390  Biso   1.000  C
  C11      1.0000 0.84300  0.81570  0.38390  Biso   1.000  C
  C12      1.0000 0.15700  0.31570  0.11610  Biso   1.000  C
  H1       1.0000 0.17650  0.21370  0.56150  Biso   1.000  H
  H2       1.0000 0.82350  0.71370  0.93850  Biso   1.000  H
  H3       1.0000 0.82350  0.78630  0.43850  Biso   1.000  H
  H4       1.0000 0.17650  0.28630  0.06150  Biso   1.000  H
  H5       1.0000 0.09610  0.22820  0.62920  Biso   1.000  H
  H6       1.0000 0.90390  0.72820  0.87080  Biso   1.000  H
  H7       1.0000 0.90390  0.77180  0.37080  Biso   1.000  H
  H8       1.0000 0.09610  0.27180  0.12920  Biso   1.000  H
  C13      1.0000 0.27920  0.17220  0.71150  Biso   1.000  C
  C14      1.0000 0.72080  0.67220  0.78850  Biso   1.000  C
  C15      1.0000 0.72080  0.82780  0.28850  Biso   1.000  C
  C16      1.0000 0.27920  0.32780  0.21150  Biso   1.000  C
  H9       1.0000 0.30580  0.23800  0.74400  Biso   1.000  H
  H10      1.0000 0.69420  0.73800  0.75600  Biso   1.000  H
  H11      1.0000 0.69420  0.76200  0.25600  Biso   1.000  H
  H12      1.0000 0.30580  0.26200  0.24400  Biso   1.000  H
  H13      1.0000 0.34790  0.14590  0.69360  Biso   1.000  H
  H14      1.0000 0.65210  0.64590  0.80640  Biso   1.000  H
  H15      1.0000 0.65210  0.85410  0.30640  Biso   1.000  H
  H16      1.0000 0.34790  0.35410  0.19360  Biso   1.000  H
  N9       1.0000 0.25480  0.10100  0.78270  Biso   1.000  N
  N10      1.0000 0.74520  0.60100  0.71730  Biso   1.000  N
  N11      1.0000 0.74520  0.89900  0.21730  Biso   1.000  N
  N12      1.0000 0.25480  0.39900  0.28270  Biso   1.000  N
  H17      1.0000 0.20070  0.13260  0.80680  Biso   1.000  H
  H18      1.0000 0.79930  0.63260  0.69320  Biso   1.000  H
  H19      1.0000 0.79930  0.86740  0.19320  Biso   1.000  H
  H20      1.0000 0.20070  0.36740  0.30680  Biso   1.000  H
  C17      1.0000 0.37240  0.07250  0.87100  Biso   1.000  C
  C18      1.0000 0.62760  0.57250  0.62900  Biso   1.000  C
  C19      1.0000 0.62760  0.92750  0.12900  Biso   1.000  C
  C20      1.0000 0.37240  0.42750  0.37100  Biso   1.000  C
  H21      1.0000 0.34950  0.02220  0.91090  Biso   1.000  H
  H22      1.0000 0.65050  0.52220  0.58910  Biso   1.000  H
  H23      1.0000 0.65050  0.97780  0.08910  Biso   1.000  H
  H24      1.0000 0.34950  0.47780  0.41090  Biso   1.000  H
  H25      1.0000 0.43190  0.04030  0.84610  Biso   1.000  H
  H26      1.0000 0.56810  0.54030  0.65390  Biso   1.000  H
  H27      1.0000 0.56810  0.95970  0.15390  Biso   1.000  H
  H28      1.0000 0.43190  0.45970  0.34610  Biso   1.000  H
  C21      1.0000 0.44010  0.15870  0.93910  Biso   1.000  C
  C22      1.0000 0.55990  0.65870  0.56090  Biso   1.000  C
  C23      1.0000 0.55990  0.84130  0.06090  Biso   1.000  C
  C24      1.0000 0.44010  0.34130  0.43910  Biso   1.000  C
  H29      1.0000 0.46280  0.21050  0.90060  Biso   1.000  H
  H30      1.0000 0.53720  0.71050  0.59940  Biso   1.000  H
  H31      1.0000 0.53720  0.78950  0.09940  Biso   1.000  H
  H32      1.0000 0.46280  0.28950  0.40060  Biso   1.000  H
  H33      1.0000 0.51860  0.13440  0.99260  Biso   1.000  H
  H34      1.0000 0.48140  0.63440  0.50740  Biso   1.000  H
  H35      1.0000 0.48140  0.86560  0.00740  Biso   1.000  H
  H36      1.0000 0.51860  0.36560  0.49260  Biso   1.000  H
  O5       1.0000 0.35550  0.20050  0.98210  Biso   1.000  O
  O6       1.0000 0.64450  0.70050  0.51790  Biso   1.000  O
  O7       1.0000 0.64450  0.79950  0.01790  Biso   1.000  O
  O8       1.0000 0.35550  0.29950  0.48210  Biso   1.000  O
  H37      1.0000 0.37870  0.25850  0.00240  Biso   1.000  H
  H38      1.0000 0.62130  0.75850  0.49760  Biso   1.000  H
  H39      1.0000 0.62130  0.74150  0.99760  Biso   1.000  H
  H40      1.0000 0.37870  0.24150  0.50240  Biso   1.000  H
  Cu5      1.0000 0.63361  0.39024  0.16151  Biso   1.000  Cu
  Cu6      1.0000 0.36639  0.89024  0.33849  Biso   1.000  Cu
  Cu7      1.0000 0.36639  0.60976  0.83849  Biso   1.000  Cu
  Cu8      1.0000 0.63361  0.10976  0.66151  Biso   1.000  Cu
  S5       1.0000 0.61536  0.08928  0.32926  Biso   1.000  S
  S6       1.0000 0.38464  0.58928  0.17074  Biso   1.000  S
  S7       1.0000 0.38464  0.91072  0.67074  Biso   1.000  S
  S8       1.0000 0.61536  0.41072  0.82926  Biso   1.000  S
  N13      1.0000 0.60390  0.27410  0.22990  Biso   1.000  N
  N14      1.0000 0.39610  0.77410  0.27010  Biso   1.000  N
  N15      1.0000 0.39610  0.72590  0.77010  Biso   1.000  N
  N16      1.0000 0.60390  0.22590  0.72990  Biso   1.000  N
  C25      1.0000 0.60800  0.19760  0.27050  Biso   1.000  C
  C26      1.0000 0.39200  0.69760  0.22950  Biso   1.000  C
  C27      1.0000 0.39200  0.80240  0.72950  Biso   1.000  C
  C28      1.0000 0.60800  0.30240  0.77050  Biso   1.000  C
  O9       1.0000 0.45500  0.38970  0.04880  Biso   1.000  O
  O10      1.0000 0.54500  0.88970  0.45120  Biso   1.000  O
  O11      1.0000 0.54500  0.61030  0.95120  Biso   1.000  O
  O12      1.0000 0.45500  0.11030  0.54880  Biso   1.000  O
  N17      1.0000 0.34750  0.48860  0.90620  Biso   1.000  N
  N18      1.0000 0.65250  0.98860  0.59380  Biso   1.000  N
  N19      1.0000 0.65250  0.51140  0.09380  Biso   1.000  N
  N20      1.0000 0.34750  0.01140  0.40620  Biso   1.000  N
  C29      1.0000 0.44310  0.46420  0.98820  Biso   1.000  C
  C30      1.0000 0.55690  0.96420  0.51180  Biso   1.000  C
  C31      1.0000 0.55690  0.53580  0.01180  Biso   1.000  C
  C32      1.0000 0.44310  0.03580  0.48820  Biso   1.000  C
  C33      1.0000 0.22420  0.43770  0.86420  Biso   1.000  C
  C34      1.0000 0.77580  0.93770  0.63580  Biso   1.000  C
  C35      1.0000 0.77580  0.56230  0.13580  Biso   1.000  C
  C36      1.0000 0.22420  0.06230  0.36420  Biso   1.000  C
  H41      1.0000 0.23560  0.36440  0.87210  Biso   1.000  H
  H42      1.0000 0.76440  0.86440  0.62790  Biso   1.000  H
  H43      1.0000 0.76440  0.63560  0.12790  Biso   1.000  H
  H44      1.0000 0.23560  0.13560  0.37210  Biso   1.000  H
  H45      1.0000 0.16990  0.45980  0.89880  Biso   1.000  H
  H46      1.0000 0.83010  0.95980  0.60120  Biso   1.000  H
  H47      1.0000 0.83010  0.54020  0.10120  Biso   1.000  H
  H48      1.0000 0.16990  0.04020  0.39880  Biso   1.000  H
  C37      1.0000 0.16470  0.46470  0.75550  Biso   1.000  C
  C38      1.0000 0.83530  0.96470  0.74450  Biso   1.000  C
  C39      1.0000 0.83530  0.53530  0.24450  Biso   1.000  C
  C40      1.0000 0.16470  0.03530  0.25550  Biso   1.000  C
  H49      1.0000 0.07230  0.45510  0.73150  Biso   1.000  H
  H50      1.0000 0.92770  0.95510  0.76850  Biso   1.000  H
  H51      1.0000 0.92770  0.54490  0.26850  Biso   1.000  H
  H52      1.0000 0.07230  0.04490  0.23150  Biso   1.000  H
  H53      1.0000 0.19670  0.41880  0.71750  Biso   1.000  H
  H54      1.0000 0.80330  0.91880  0.78250  Biso   1.000  H
  H55      1.0000 0.80330  0.58120  0.28250  Biso   1.000  H
  H56      1.0000 0.19670  0.08120  0.21750  Biso   1.000  H
  N21      1.0000 0.19040  0.56870  0.73480  Biso   1.000  N
  N22      1.0000 0.80960  0.06870  0.76520  Biso   1.000  N
  N23      1.0000 0.80960  0.43130  0.26520  Biso   1.000  N
  N24      1.0000 0.19040  0.93130  0.23480  Biso   1.000  N
  H57      1.0000 0.13870  0.60310  0.75950  Biso   1.000  H
  H58      1.0000 0.86130  0.10310  0.74050  Biso   1.000  H
  H59      1.0000 0.86130  0.39690  0.24050  Biso   1.000  H
  H60      1.0000 0.13870  0.89690  0.25950  Biso   1.000  H
  H61      1.0000 0.86840  0.39110  0.25380  Biso   1.000  H
  H62      1.0000 0.13160  0.89110  0.24620  Biso   1.000  H
  H63      1.0000 0.13160  0.60890  0.74620  Biso   1.000  H
  H64      1.0000 0.86840  0.10890  0.75380  Biso   1.000  H
  C41      1.0000 0.13910  0.60610  0.62910  Biso   1.000  C
  C42      1.0000 0.86090  0.10610  0.87090  Biso   1.000  C
  C43      1.0000 0.86090  0.39390  0.37090  Biso   1.000  C
  C44      1.0000 0.13910  0.89390  0.12910  Biso   1.000  C
  H65      1.0000 0.17900  0.67100  0.62690  Biso   1.000  H
  H66      1.0000 0.82100  0.17100  0.87310  Biso   1.000  H
  H67      1.0000 0.82100  0.32900  0.37310  Biso   1.000  H
  H68      1.0000 0.17900  0.82900  0.12690  Biso   1.000  H
  H69      1.0000 0.16270  0.55840  0.58740  Biso   1.000  H
  H70      1.0000 0.83730  0.05840  0.91260  Biso   1.000  H
  H71      1.0000 0.83730  0.44160  0.41260  Biso   1.000  H
  H72      1.0000 0.16270  0.94160  0.08740  Biso   1.000  H
  C45      1.0000 0.99600  0.61910  0.58450  Biso   1.000  C
  C46      1.0000 0.00400  0.11910  0.91550  Biso   1.000  C
  C47      1.0000 0.00400  0.38090  0.41550  Biso   1.000  C
  C48      1.0000 0.99600  0.88090  0.08450  Biso   1.000  C
  H73      1.0000 0.96850  0.64360  0.51520  Biso   1.000  H
  H74      1.0000 0.03150  0.14360  0.98480  Biso   1.000  H
  H75      1.0000 0.03150  0.35640  0.48480  Biso   1.000  H
  H76      1.0000 0.96850  0.85640  0.01520  Biso   1.000  H
  H77      1.0000 0.95510  0.55380  0.58300  Biso   1.000  H
  H78      1.0000 0.04490  0.05380  0.91700  Biso   1.000  H
  H79      1.0000 0.04490  0.44620  0.41700  Biso   1.000  H
  H80      1.0000 0.95510  0.94620  0.08300  Biso   1.000  H
  O13      1.0000 0.95420  0.69420  0.64640  Biso   1.000  O
  O14      1.0000 0.04580  0.19420  0.85360  Biso   1.000  O
  O15      1.0000 0.04580  0.30580  0.35360  Biso   1.000  O
  O16      1.0000 0.95420  0.80580  0.14640  Biso   1.000  O
  H81      1.0000 0.97820  0.75010  0.62490  Biso   1.000  H
  H82      1.0000 0.02180  0.25010  0.87510  Biso   1.000  H
  H83      1.0000 0.02180  0.24990  0.37510  Biso   1.000  H
  H84      1.0000 0.97820  0.74990  0.12490  Biso   1.000  H
  H85      1.0000 0.09990  0.33790  0.41030  Biso   1.000  H
  H86      1.0000 0.90010  0.83790  0.08970  Biso   1.000  H
  H87      1.0000 0.90010  0.66210  0.58970  Biso   1.000  H
  H88      1.0000 0.09990  0.16210  0.91030  Biso   1.000  H
  O17      1.0000 0.67580  0.56910  0.37910  Biso   1.000  O
  O18      1.0000 0.32420  0.06910  0.12090  Biso   1.000  O
  O19      1.0000 0.32420  0.43090  0.62090  Biso   1.000  O
  O20      1.0000 0.67580  0.93090  0.87910  Biso   1.000  O
  H89      1.0000 0.68130  0.60860  0.43310  Biso   1.000  H
  H90      1.0000 0.31870  0.10860  0.06690  Biso   1.000  H
  H91      1.0000 0.31870  0.39140  0.56690  Biso   1.000  H
  H92      1.0000 0.68130  0.89140  0.93310  Biso   1.000  H
  H93      1.0000 0.59710  0.56680  0.33450  Biso   1.000  H
  H94      1.0000 0.40290  0.06680  0.16550  Biso   1.000  H
  H95      1.0000 0.40290  0.43320  0.66550  Biso   1.000  H
  H96      1.0000 0.59710  0.93320  0.83450  Biso   1.000  H
  C49      1.0000 0.83200  0.42000  0.37310  Biso   1.000  C
  C50      1.0000 0.16800  0.92000  0.12690  Biso   1.000  C
  C51      1.0000 0.16800  0.58000  0.62690  Biso   1.000  C
  C52      1.0000 0.83200  0.08000  0.87310  Biso   1.000  C
  H97      1.0000 0.91990  0.44140  0.41250  Biso   1.000  H
  H98      1.0000 0.08010  0.94140  0.08750  Biso   1.000  H
  H99      1.0000 0.08010  0.55860  0.58750  Biso   1.000  H
  H100     1.0000 0.91990  0.05860  0.91250  Biso   1.000  H
  H101     1.0000 0.82770  0.34760  0.38600  Biso   1.000  H
  H102     1.0000 0.17230  0.84760  0.11400  Biso   1.000  H
  H103     1.0000 0.17230  0.65240  0.61400  Biso   1.000  H
  H104     1.0000 0.82770  0.15240  0.88600  Biso   1.000  H
  C53      1.0000 0.74800  0.47330  0.41470  Biso   1.000  C
  C54      1.0000 0.25200  0.97330  0.08530  Biso   1.000  C
  C55      1.0000 0.25200  0.52670  0.58530  Biso   1.000  C
  C56      1.0000 0.74800  0.02670  0.91470  Biso   1.000  C
  H105     1.0000 0.73850  0.43130  0.46720  Biso   1.000  H
  H106     1.0000 0.26150  0.93130  0.03280  Biso   1.000  H
  H107     1.0000 0.26150  0.56870  0.53280  Biso   1.000  H
  H108     1.0000 0.73850  0.06870  0.96720  Biso   1.000  H
  H109     1.0000 0.66340  0.48180  0.36100  Biso   1.000  H
  H110     1.0000 0.33660  0.98180  0.13900  Biso   1.000  H
  H111     1.0000 0.33660  0.51820  0.63900  Biso   1.000  H
  H112     1.0000 0.66340  0.01820  0.86100  Biso   1.000  H
  O21      1.0000 0.79930  0.57790  0.45970  Biso   1.000  O
  O22      1.0000 0.20070  0.07790  0.04030  Biso   1.000  O
  O23      1.0000 0.20070  0.42210  0.54030  Biso   1.000  O
  O24      1.0000 0.79930  0.92210  0.95970  Biso   1.000  O
  H113     1.0000 0.73440  0.61270  0.46600  Biso   1.000  H
  H114     1.0000 0.26560  0.11270  0.03400  Biso   1.000  H
  H115     1.0000 0.26560  0.38730  0.53400  Biso   1.000  H
  H116     1.0000 0.73440  0.88730  0.96600  Biso   1.000  H
