data_image0
_cell_length_a       9.6562
_cell_length_b       9.6858
_cell_length_c       10.903
_cell_angle_alpha    80.984
_cell_angle_beta     69.776
_cell_angle_gamma    80.729

_symmetry_space_group_name_H-M    "P 1"
_symmetry_int_tables_number       1

loop_
  _symmetry_equiv_pos_as_xyz
  'x, y, z'

loop_
  _atom_site_label
  _atom_site_occupancy
  _atom_site_fract_x
  _atom_site_fract_y
  _atom_site_fract_z
  _atom_site_thermal_displace_type
  _atom_site_B_iso_or_equiv
  _atom_site_type_symbol
  Cu1      1.0000 0.02111  0.57277  0.66220  Biso   1.000  Cu
  Cu2      1.0000 0.97889  0.42723  0.33780  Biso   1.000  Cu
  Mn1      1.0000 0.18517  0.00453  0.73550  Biso   1.000  Mn
  Mn2      1.0000 0.81483  0.99547  0.26450  Biso   1.000  Mn
  N1       1.0000 0.18390  0.43580  0.56710  Biso   1.000  N
  N2       1.0000 0.81610  0.56420  0.43290  Biso   1.000  N
  N3       1.0000 0.94660  0.40900  0.77860  Biso   1.000  N
  N4       1.0000 0.05340  0.59100  0.22140  Biso   1.000  N
  N5       1.0000 0.85630  0.70990  0.75800  Biso   1.000  N
  N6       1.0000 0.14370  0.29010  0.24200  Biso   1.000  N
  H1       1.0000 0.89610  0.78740  0.75910  Biso   1.000  H
  H2       1.0000 0.10390  0.21260  0.24090  Biso   1.000  H
  H3       1.0000 0.79470  0.73550  0.71040  Biso   1.000  H
  H4       1.0000 0.20530  0.26450  0.28960  Biso   1.000  H
  O1       1.0000 0.24590  0.19170  0.59270  Biso   1.000  O
  O2       1.0000 0.75410  0.80830  0.40730  Biso   1.000  O
  O3       1.0000 0.02680  0.17570  0.82140  Biso   1.000  O
  O4       1.0000 0.97320  0.82430  0.17860  Biso   1.000  O
  O5       1.0000 0.07780  0.72340  0.52210  Biso   1.000  O
  O6       1.0000 0.92220  0.27660  0.47790  Biso   1.000  O
  O7       1.0000 0.20920  0.84160  0.34330  Biso   1.000  O
  O8       1.0000 0.79080  0.15840  0.65670  Biso   1.000  O
  O9       1.0000 0.82750  0.34820  0.22160  Biso   1.000  O
  O10      1.0000 0.17250  0.65180  0.77840  Biso   1.000  O
  O11      1.0000 0.68570  0.18080  0.34130  Biso   1.000  O
  O12      1.0000 0.31430  0.81920  0.65870  Biso   1.000  O
  O13      1.0000 0.35550  0.02020  0.81620  Biso   1.000  O
  O14      1.0000 0.64450  0.97980  0.18380  Biso   1.000  O
  H5       1.0000 0.38940  0.09860  0.78510  Biso   1.000  H
  H6       1.0000 0.61060  0.90140  0.21490  Biso   1.000  H
  H7       1.0000 0.39860  0.98010  0.87060  Biso   1.000  H
  H8       1.0000 0.60140  0.01990  0.12940  Biso   1.000  H
  O15      1.0000 0.04310  0.87360  0.90940  Biso   1.000  O
  O16      1.0000 0.95690  0.12640  0.09060  Biso   1.000  O
  H9       1.0000 0.00570  0.83240  0.98620  Biso   1.000  H
  H10      1.0000 0.99430  0.16760  0.01380  Biso   1.000  H
  H11      1.0000 0.03980  0.82170  0.85470  Biso   1.000  H
  H12      1.0000 0.96020  0.17830  0.14530  Biso   1.000  H
  O17      1.0000 0.03420  0.97070  0.63740  Biso   1.000  O
  O18      1.0000 0.96580  0.02930  0.36260  Biso   1.000  O
  H13      1.0000 0.00560  0.05780  0.62410  Biso   1.000  H
  H14      1.0000 0.99440  0.94220  0.37590  Biso   1.000  H
  H15      1.0000 0.97730  0.92470  0.61920  Biso   1.000  H
  H16      1.0000 0.02270  0.07530  0.38080  Biso   1.000  H
  C1       1.0000 0.16880  0.30620  0.62450  Biso   1.000  C
  C2       1.0000 0.83120  0.69380  0.37550  Biso   1.000  C
  C3       1.0000 0.03570  0.29550  0.75290  Biso   1.000  C
  C4       1.0000 0.96430  0.70450  0.24710  Biso   1.000  C
  C5       1.0000 0.81760  0.40340  0.90010  Biso   1.000  C
  C6       1.0000 0.18240  0.59660  0.09990  Biso   1.000  C
  H17      1.0000 0.85160  0.39600  0.97510  Biso   1.000  H
  H18      1.0000 0.14840  0.60400  0.02490  Biso   1.000  H
  H19      1.0000 0.77110  0.31960  0.90720  Biso   1.000  H
  H20      1.0000 0.22890  0.68040  0.09280  Biso   1.000  H
  C7       1.0000 0.70410  0.53020  0.90480  Biso   1.000  C
  C8       1.0000 0.29590  0.46980  0.09520  Biso   1.000  C
  H21      1.0000 0.66560  0.53390  0.83300  Biso   1.000  H
  H22      1.0000 0.33440  0.46610  0.16700  Biso   1.000  H
  H23      1.0000 0.62190  0.51980  0.98640  Biso   1.000  H
  H24      1.0000 0.37810  0.48020  0.01360  Biso   1.000  H
  C9       1.0000 0.76430  0.66610  0.89550  Biso   1.000  C
  C10      1.0000 0.23570  0.33390  0.10450  Biso   1.000  C
  H25      1.0000 0.68250  0.73880  0.92540  Biso   1.000  H
  H26      1.0000 0.31750  0.26120  0.07460  Biso   1.000  H
  H27      1.0000 0.82430  0.65520  0.95240  Biso   1.000  H
  H28      1.0000 0.17570  0.34480  0.04760  Biso   1.000  H
  C11      1.0000 0.19450  0.73130  0.42070  Biso   1.000  C
  C12      1.0000 0.80550  0.26870  0.57930  Biso   1.000  C
  C13      1.0000 0.31770  0.61180  0.39390  Biso   1.000  C
  C14      1.0000 0.68230  0.38820  0.60610  Biso   1.000  C
  C15      1.0000 0.31200  0.47350  0.46060  Biso   1.000  C
  C16      1.0000 0.68800  0.52650  0.53940  Biso   1.000  C
  C17      1.0000 0.44060  0.37810  0.42430  Biso   1.000  C
  C18      1.0000 0.55940  0.62190  0.57570  Biso   1.000  C
  H29      1.0000 0.43880  0.28660  0.46590  Biso   1.000  H
  H30      1.0000 0.56120  0.71340  0.53410  Biso   1.000  H
  C19      1.0000 0.57070  0.41540  0.32830  Biso   1.000  C
  C20      1.0000 0.42930  0.58460  0.67170  Biso   1.000  C
  C21      1.0000 0.70550  0.30610  0.29490  Biso   1.000  C
  C22      1.0000 0.29450  0.69390  0.70510  Biso   1.000  C
  C23      1.0000 0.57680  0.55160  0.26560  Biso   1.000  C
  C24      1.0000 0.42320  0.44840  0.73440  Biso   1.000  C
  H31      1.0000 0.66440  0.57820  0.20280  Biso   1.000  H
  H32      1.0000 0.33560  0.42180  0.79720  Biso   1.000  H
  C25      1.0000 0.45120  0.64630  0.29780  Biso   1.000  C
  C26      1.0000 0.54880  0.35370  0.70220  Biso   1.000  C
  H33      1.0000 0.45480  0.73690  0.25420  Biso   1.000  H
  H34      1.0000 0.54520  0.26310  0.74580  Biso   1.000  H
  O19      1.0000 0.63790  0.93270  0.65750  Biso   1.000  O
  O20      1.0000 0.36210  0.06730  0.34250  Biso   1.000  O
  H35      1.0000 0.65990  0.92280  0.57660  Biso   1.000  H
  H36      1.0000 0.34010  0.07720  0.42340  Biso   1.000  H
  H37      1.0000 0.63530  0.85100  0.69980  Biso   1.000  H
  H38      1.0000 0.36470  0.14900  0.30020  Biso   1.000  H
  O21      1.0000 0.25750  0.99050  0.08160  Biso   1.000  O
  O22      1.0000 0.74250  0.00950  0.91840  Biso   1.000  O
  H39      1.0000 0.18980  0.93640  0.11580  Biso   1.000  H
  H40      1.0000 0.81020  0.06360  0.88420  Biso   1.000  H
  H41      1.0000 0.30720  0.98390  0.13360  Biso   1.000  H
  H42      1.0000 0.69280  0.01610  0.86640  Biso   1.000  H
