data_image0
_cell_length_a       8.113
_cell_length_b       10.649
_cell_length_c       19.59
_cell_angle_alpha    76.83
_cell_angle_beta     88.48
_cell_angle_gamma    88.62

_symmetry_space_group_name_H-M    "P 1"
_symmetry_int_tables_number       1

loop_
  _symmetry_equiv_pos_as_xyz
  'x, y, z'

loop_
  _atom_site_label
  _atom_site_occupancy
  _atom_site_fract_x
  _atom_site_fract_y
  _atom_site_fract_z
  _atom_site_thermal_displace_type
  _atom_site_B_iso_or_equiv
  _atom_site_type_symbol
  Cu1      1.0000 0.21680  0.36970  0.41021  Biso   1.000  Cu
  Cu2      1.0000 0.78320  0.63030  0.58979  Biso   1.000  Cu
  Cu3      1.0000 0.50000  0.50000  0.50000  Biso   1.000  Cu
  Cu4      1.0000 0.00000  0.50000  0.50000  Biso   1.000  Cu
  Cu5      1.0000 0.71730  0.62850  0.09004  Biso   1.000  Cu
  Cu6      1.0000 0.28270  0.37150  0.90996  Biso   1.000  Cu
  Cu7      1.0000 0.00000  0.50000  0.00000  Biso   1.000  Cu
  Cu8      1.0000 0.50000  0.50000  0.00000  Biso   1.000  Cu
  O1       1.0000 0.47500  0.30500  0.23420  Biso   1.000  O
  O2       1.0000 0.52500  0.69500  0.76580  Biso   1.000  O
  O3       1.0000 0.48200  0.94300  0.41480  Biso   1.000  O
  O4       1.0000 0.51800  0.05700  0.58520  Biso   1.000  O
  O5       1.0000 0.00900  0.05300  0.27430  Biso   1.000  O
  O6       1.0000 0.99100  0.94700  0.72570  Biso   1.000  O
  O7       1.0000 0.40000  0.27800  0.42530  Biso   1.000  O
  O8       1.0000 0.60000  0.72200  0.57470  Biso   1.000  O
  O9       1.0000 0.61400  0.37500  0.46650  Biso   1.000  O
  O10      1.0000 0.38600  0.62500  0.53350  Biso   1.000  O
  O11      1.0000 0.97600  0.67550  0.44690  Biso   1.000  O
  O12      1.0000 0.02400  0.32450  0.55310  Biso   1.000  O
  O13      1.0000 0.90800  0.77800  0.53370  Biso   1.000  O
  O14      1.0000 0.09200  0.22200  0.46630  Biso   1.000  O
  O15      1.0000 0.83000  0.51400  0.16420  Biso   1.000  O
  O16      1.0000 0.17000  0.48600  0.83580  Biso   1.000  O
  O17      1.0000 0.95300  0.40040  0.09270  Biso   1.000  O
  O18      1.0000 0.04700  0.59960  0.90730  Biso   1.000  O
  O19      1.0000 0.03100  0.46510  0.40380  Biso   1.000  O
  O20      1.0000 0.96900  0.53490  0.59620  Biso   1.000  O
  O21      1.0000 0.97400  0.69400  0.26630  Biso   1.000  O
  O22      1.0000 0.02600  0.30600  0.73370  Biso   1.000  O
  O23      1.0000 0.97700  0.05060  0.08680  Biso   1.000  O
  O24      1.0000 0.02300  0.94940  0.91320  Biso   1.000  O
  O25      1.0000 0.51600  0.95160  0.22480  Biso   1.000  O
  O26      1.0000 0.48400  0.04840  0.77520  Biso   1.000  O
  O27      1.0000 0.13900  0.62100  0.03710  Biso   1.000  O
  O28      1.0000 0.86100  0.37900  0.96290  Biso   1.000  O
  O29      1.0000 0.91300  0.73530  0.07130  Biso   1.000  O
  O30      1.0000 0.08700  0.26470  0.92870  Biso   1.000  O
  O31      1.0000 0.45900  0.33000  0.05470  Biso   1.000  O
  O32      1.0000 0.54100  0.67000  0.94530  Biso   1.000  O
  O33      1.0000 0.40900  0.22280  0.96490  Biso   1.000  O
  O34      1.0000 0.59100  0.77720  0.03510  Biso   1.000  O
  O35      1.0000 0.32700  0.48800  0.33700  Biso   1.000  O
  O36      1.0000 0.67300  0.51200  0.66300  Biso   1.000  O
  O37      1.0000 0.46300  0.60070  0.40850  Biso   1.000  O
  O38      1.0000 0.53700  0.39930  0.59150  Biso   1.000  O
  O39      1.0000 0.51500  0.53700  0.09510  Biso   1.000  O
  O40      1.0000 0.48500  0.46300  0.90490  Biso   1.000  O
  N1       1.0000 0.23500  0.17900  0.25490  Biso   1.000  N
  N2       1.0000 0.76500  0.82100  0.74510  Biso   1.000  N
  N3       1.0000 0.47600  0.13550  0.32570  Biso   1.000  N
  N4       1.0000 0.52400  0.86450  0.67430  Biso   1.000  N
  N5       1.0000 0.26200  0.99910  0.34720  Biso   1.000  N
  N6       1.0000 0.73800  0.00090  0.65280  Biso   1.000  N
  N7       1.0000 0.75500  0.81810  0.24390  Biso   1.000  N
  N8       1.0000 0.24500  0.18190  0.75610  Biso   1.000  N
  N9       1.0000 0.99500  0.86800  0.17490  Biso   1.000  N
  N10      1.0000 0.00500  0.13200  0.82510  Biso   1.000  N
  N11      1.0000 0.75700  0.00300  0.15520  Biso   1.000  N
  N12      1.0000 0.24300  0.99700  0.84480  Biso   1.000  N
  C1       1.0000 0.41300  0.21900  0.27330  Biso   1.000  C
  C2       1.0000 0.58700  0.78100  0.72670  Biso   1.000  C
  C3       1.0000 0.15600  0.07800  0.28970  Biso   1.000  C
  C4       1.0000 0.84400  0.92200  0.71030  Biso   1.000  C
  C5       1.0000 0.42700  0.01400  0.36660  Biso   1.000  C
  C6       1.0000 0.57300  0.98600  0.63340  Biso   1.000  C
  C7       1.0000 0.65800  0.16400  0.35160  Biso   1.000  C
  C8       1.0000 0.34200  0.83600  0.64840  Biso   1.000  C
  H1       1.0000 0.70390  0.23410  0.31580  Biso   1.000  H
  H2       1.0000 0.29610  0.76590  0.68420  Biso   1.000  H
  H3       1.0000 0.72690  0.08860  0.35160  Biso   1.000  H
  H4       1.0000 0.27310  0.91140  0.64840  Biso   1.000  H
  C9       1.0000 0.67800  0.19600  0.41420  Biso   1.000  C
  C10      1.0000 0.32200  0.80400  0.58580  Biso   1.000  C
  H5       1.0000 0.79100  0.22310  0.41510  Biso   1.000  H
  H6       1.0000 0.20900  0.77690  0.58490  Biso   1.000  H
  H7       1.0000 0.66730  0.11670  0.45020  Biso   1.000  H
  H8       1.0000 0.33270  0.88330  0.54980  Biso   1.000  H
  C11      1.0000 0.58000  0.28600  0.43380  Biso   1.000  C
  C12      1.0000 0.42000  0.71400  0.56620  Biso   1.000  C
  C13      1.0000 0.18700  0.87700  0.38490  Biso   1.000  C
  C14      1.0000 0.81300  0.12300  0.61510  Biso   1.000  C
  H9       1.0000 0.14510  0.83140  0.35170  Biso   1.000  H
  H10      1.0000 0.85490  0.16860  0.64830  Biso   1.000  H
  H11      1.0000 0.26800  0.82270  0.41360  Biso   1.000  H
  H12      1.0000 0.73200  0.17730  0.58640  Biso   1.000  H
  C15      1.0000 0.04300  0.91300  0.43210  Biso   1.000  C
  C16      1.0000 0.95700  0.08700  0.56790  Biso   1.000  C
  H13      1.0000 0.08310  0.96240  0.46370  Biso   1.000  H
  H14      1.0000 0.91690  0.03760  0.53630  Biso   1.000  H
  H15      1.0000 0.95810  0.96300  0.40340  Biso   1.000  H
  H16      1.0000 0.04190  0.03700  0.59660  Biso   1.000  H
  C17      1.0000 0.96600  0.77300  0.47770  Biso   1.000  C
  C18      1.0000 0.03400  0.22700  0.52230  Biso   1.000  C
  C19      1.0000 0.15800  0.25400  0.19360  Biso   1.000  C
  C20      1.0000 0.84200  0.74600  0.80640  Biso   1.000  C
  H17      1.0000 0.24010  0.30300  0.16250  Biso   1.000  H
  H18      1.0000 0.75990  0.69700  0.83750  Biso   1.000  H
  H19      1.0000 0.10500  0.19760  0.16870  Biso   1.000  H
  H20      1.0000 0.89500  0.80240  0.83130  Biso   1.000  H
  C21      1.0000 0.03300  0.34400  0.21370  Biso   1.000  C
  C22      1.0000 0.96700  0.65600  0.78630  Biso   1.000  C
  H21      1.0000 0.96050  0.29490  0.24990  Biso   1.000  H
  H22      1.0000 0.03950  0.70510  0.75010  Biso   1.000  H
  H23      1.0000 0.08890  0.40570  0.23390  Biso   1.000  H
  H24      1.0000 0.91110  0.59430  0.76610  Biso   1.000  H
  C23      1.0000 0.92300  0.42000  0.15140  Biso   1.000  C
  C24      1.0000 0.07700  0.58000  0.84860  Biso   1.000  C
  C25      1.0000 0.91800  0.78400  0.23140  Biso   1.000  C
  C26      1.0000 0.08200  0.21600  0.76860  Biso   1.000  C
  C27      1.0000 0.91700  0.97500  0.13680  Biso   1.000  C
  C28      1.0000 0.08300  0.02500  0.86320  Biso   1.000  C
  C29      1.0000 0.67800  0.91400  0.21450  Biso   1.000  C
  C30      1.0000 0.32200  0.08600  0.78550  Biso   1.000  C
  C31      1.0000 0.15800  0.83700  0.15100  Biso   1.000  C
  C32      1.0000 0.84200  0.16300  0.84900  Biso   1.000  C
  H25      1.0000 0.22360  0.91290  0.14880  Biso   1.000  H
  H26      1.0000 0.77640  0.08710  0.85120  Biso   1.000  H
  H27      1.0000 0.20290  0.77010  0.18860  Biso   1.000  H
  H28      1.0000 0.79710  0.22990  0.81140  Biso   1.000  H
  C33      1.0000 0.18900  0.79900  0.09150  Biso   1.000  C
  C34      1.0000 0.81100  0.20100  0.90850  Biso   1.000  C
  H29      1.0000 0.30280  0.76800  0.09410  Biso   1.000  H
  H30      1.0000 0.69720  0.23200  0.90590  Biso   1.000  H
  H31      1.0000 0.18690  0.87680  0.05450  Biso   1.000  H
  H32      1.0000 0.81310  0.12320  0.94550  Biso   1.000  H
  C35      1.0000 0.08800  0.69300  0.06170  Biso   1.000  C
  C36      1.0000 0.91200  0.30700  0.93830  Biso   1.000  C
  C37      1.0000 0.67300  0.13000  0.11620  Biso   1.000  C
  C38      1.0000 0.32700  0.87000  0.88380  Biso   1.000  C
  H33      1.0000 0.61860  0.17380  0.14920  Biso   1.000  H
  H34      1.0000 0.38140  0.82620  0.85080  Biso   1.000  H
  H35      1.0000 0.75330  0.18750  0.08850  Biso   1.000  H
  H36      1.0000 0.24670  0.81250  0.91150  Biso   1.000  H
  C39      1.0000 0.54900  0.08900  0.06960  Biso   1.000  C
  C40      1.0000 0.45100  0.91100  0.93040  Biso   1.000  C
  H37      1.0000 0.46550  0.03540  0.09740  Biso   1.000  H
  H38      1.0000 0.53450  0.96460  0.90260  Biso   1.000  H
  H39      1.0000 0.60270  0.04200  0.03810  Biso   1.000  H
  H40      1.0000 0.39730  0.95800  0.96190  Biso   1.000  H
  C41      1.0000 0.46100  0.23200  0.02270  Biso   1.000  C
  C42      1.0000 0.53900  0.76800  0.97730  Biso   1.000  C
  C43      1.0000 0.64200  0.75000  0.30390  Biso   1.000  C
  C44      1.0000 0.35800  0.25000  0.69610  Biso   1.000  C
  H41      1.0000 0.57080  0.81340  0.31870  Biso   1.000  H
  H42      1.0000 0.42920  0.18660  0.68130  Biso   1.000  H
  H43      1.0000 0.70910  0.70900  0.34340  Biso   1.000  H
  H44      1.0000 0.29090  0.29100  0.65660  Biso   1.000  H
  C45      1.0000 0.53300  0.64600  0.28470  Biso   1.000  C
  C46      1.0000 0.46700  0.35400  0.71530  Biso   1.000  C
  H45      1.0000 0.60420  0.58430  0.26810  Biso   1.000  H
  H46      1.0000 0.39580  0.41570  0.73190  Biso   1.000  H
  H47      1.0000 0.46280  0.68730  0.24660  Biso   1.000  H
  H48      1.0000 0.53720  0.31270  0.75340  Biso   1.000  H
  C47      1.0000 0.42300  0.57200  0.34740  Biso   1.000  C
  C48      1.0000 0.57700  0.42800  0.65260  Biso   1.000  C
