data_image0
_cell_length_a       13.339
_cell_length_b       7.519
_cell_length_c       20.096
_cell_angle_alpha    90
_cell_angle_beta     99.96
_cell_angle_gamma    90

_symmetry_space_group_name_H-M    "P 1"
_symmetry_int_tables_number       1

loop_
  _symmetry_equiv_pos_as_xyz
  'x, y, z'

loop_
  _atom_site_label
  _atom_site_occupancy
  _atom_site_fract_x
  _atom_site_fract_y
  _atom_site_fract_z
  _atom_site_thermal_displace_type
  _atom_site_B_iso_or_equiv
  _atom_site_type_symbol
  Cu1      1.0000 0.66653  0.76811  0.08044  Biso   1.000  Cu
  Cu2      1.0000 0.83347  0.26811  0.41956  Biso   1.000  Cu
  Cu3      1.0000 0.33347  0.23189  0.91956  Biso   1.000  Cu
  Cu4      1.0000 0.16653  0.73189  0.58044  Biso   1.000  Cu
  Cu5      1.0000 0.50000  0.50000  0.00000  Biso   1.000  Cu
  Cu6      1.0000 0.00000  0.00000  0.50000  Biso   1.000  Cu
  Cu7      1.0000 0.50000  0.00000  0.00000  Biso   1.000  Cu
  Cu8      1.0000 0.00000  0.50000  0.50000  Biso   1.000  Cu
  O1       1.0000 0.82420  0.99640  0.92180  Biso   1.000  O
  O2       1.0000 0.67580  0.49640  0.57820  Biso   1.000  O
  O3       1.0000 0.17580  0.00360  0.07820  Biso   1.000  O
  O4       1.0000 0.32420  0.50360  0.42180  Biso   1.000  O
  O5       1.0000 0.99660  0.98540  0.74580  Biso   1.000  O
  O6       1.0000 0.50340  0.48540  0.75420  Biso   1.000  O
  O7       1.0000 0.00340  0.01460  0.25420  Biso   1.000  O
  O8       1.0000 0.49660  0.51460  0.24580  Biso   1.000  O
  O9       1.0000 0.78930  0.44980  0.77020  Biso   1.000  O
  O10      1.0000 0.71070  0.94980  0.72980  Biso   1.000  O
  O11      1.0000 0.21070  0.55020  0.22980  Biso   1.000  O
  O12      1.0000 0.28930  0.05020  0.27020  Biso   1.000  O
  O13      1.0000 0.09510  0.53740  0.87360  Biso   1.000  O
  O14      1.0000 0.40490  0.03740  0.62640  Biso   1.000  O
  O15      1.0000 0.90490  0.46260  0.12640  Biso   1.000  O
  O16      1.0000 0.59510  0.96260  0.37360  Biso   1.000  O
  O17      1.0000 0.23100  0.70590  0.90570  Biso   1.000  O
  O18      1.0000 0.26900  0.20590  0.59430  Biso   1.000  O
  O19      1.0000 0.76900  0.29410  0.09430  Biso   1.000  O
  O20      1.0000 0.73100  0.79410  0.40570  Biso   1.000  O
  O21      1.0000 0.98230  0.45260  0.59100  Biso   1.000  O
  O22      1.0000 0.51770  0.95260  0.90900  Biso   1.000  O
  O23      1.0000 0.01770  0.54740  0.40900  Biso   1.000  O
  O24      1.0000 0.48230  0.04740  0.09100  Biso   1.000  O
  O25      1.0000 0.11480  0.59490  0.65130  Biso   1.000  O
  O26      1.0000 0.38520  0.09490  0.84870  Biso   1.000  O
  O27      1.0000 0.88520  0.40510  0.34870  Biso   1.000  O
  O28      1.0000 0.61480  0.90510  0.15130  Biso   1.000  O
  O29      1.0000 0.73550  0.65440  0.01250  Biso   1.000  O
  O30      1.0000 0.76450  0.15440  0.48750  Biso   1.000  O
  O31      1.0000 0.26450  0.34560  0.98750  Biso   1.000  O
  O32      1.0000 0.23550  0.84560  0.51250  Biso   1.000  O
  O33      1.0000 0.61460  0.47760  0.95590  Biso   1.000  O
  O34      1.0000 0.88540  0.97760  0.54410  Biso   1.000  O
  O35      1.0000 0.38540  0.52240  0.04410  Biso   1.000  O
  O36      1.0000 0.11460  0.02240  0.45590  Biso   1.000  O
  O37      1.0000 0.52500  0.75360  0.02560  Biso   1.000  O
  O38      1.0000 0.97500  0.25360  0.47440  Biso   1.000  O
  O39      1.0000 0.47500  0.24640  0.97440  Biso   1.000  O
  O40      1.0000 0.02500  0.74640  0.52560  Biso   1.000  O
  O41      1.0000 0.79110  0.73460  0.14870  Biso   1.000  O
  O42      1.0000 0.70890  0.23460  0.35130  Biso   1.000  O
  O43      1.0000 0.20890  0.26540  0.85130  Biso   1.000  O
  O44      1.0000 0.29110  0.76540  0.64870  Biso   1.000  O
  O45      1.0000 0.68960  0.02240  0.02510  Biso   1.000  O
  O46      1.0000 0.81040  0.52240  0.47490  Biso   1.000  O
  O47      1.0000 0.31040  0.97760  0.97490  Biso   1.000  O
  O48      1.0000 0.18960  0.47760  0.52510  Biso   1.000  O
  O49      1.0000 0.60460  0.47080  0.11420  Biso   1.000  O
  O50      1.0000 0.89540  0.97080  0.38580  Biso   1.000  O
  O51      1.0000 0.39540  0.52920  0.88580  Biso   1.000  O
  O52      1.0000 0.10460  0.02920  0.61420  Biso   1.000  O
  O53      1.0000 0.72340  0.59590  0.25740  Biso   1.000  O
  O54      1.0000 0.77660  0.09590  0.24260  Biso   1.000  O
  O55      1.0000 0.27660  0.40410  0.74260  Biso   1.000  O
  O56      1.0000 0.22340  0.90410  0.75740  Biso   1.000  O
  O57      1.0000 0.97780  0.72660  0.04070  Biso   1.000  O
  O58      1.0000 0.52220  0.22660  0.45930  Biso   1.000  O
  O59      1.0000 0.02220  0.27340  0.95930  Biso   1.000  O
  O60      1.0000 0.47780  0.77340  0.54070  Biso   1.000  O
  N1       1.0000 0.80550  0.22610  0.84680  Biso   1.000  N
  N2       1.0000 0.69450  0.72610  0.65320  Biso   1.000  N
  N3       1.0000 0.19450  0.77390  0.15320  Biso   1.000  N
  N4       1.0000 0.30550  0.27390  0.34680  Biso   1.000  N
  N5       1.0000 0.91400  0.98890  0.83580  Biso   1.000  N
  N6       1.0000 0.58600  0.48890  0.66420  Biso   1.000  N
  N7       1.0000 0.08600  0.01110  0.16420  Biso   1.000  N
  N8       1.0000 0.41400  0.51110  0.33580  Biso   1.000  N
  N9       1.0000 0.89420  0.22080  0.75650  Biso   1.000  N
  N10      1.0000 0.60580  0.72080  0.74350  Biso   1.000  N
  N11      1.0000 0.10580  0.77920  0.24350  Biso   1.000  N
  N12      1.0000 0.39420  0.27920  0.25650  Biso   1.000  N
  C1       1.0000 0.84700  0.06610  0.87170  Biso   1.000  C
  C2       1.0000 0.65300  0.56610  0.62830  Biso   1.000  C
  C3       1.0000 0.15300  0.93390  0.12830  Biso   1.000  C
  C4       1.0000 0.34700  0.43390  0.37170  Biso   1.000  C
  C5       1.0000 0.93820  0.05950  0.77660  Biso   1.000  C
  C6       1.0000 0.56180  0.55950  0.72340  Biso   1.000  C
  C7       1.0000 0.06180  0.94050  0.22340  Biso   1.000  C
  C8       1.0000 0.43820  0.44050  0.27660  Biso   1.000  C
  C9       1.0000 0.82700  0.30820  0.78970  Biso   1.000  C
  C10      1.0000 0.67300  0.80820  0.71030  Biso   1.000  C
  C11      1.0000 0.17300  0.69180  0.21030  Biso   1.000  C
  C12      1.0000 0.32700  0.19180  0.28970  Biso   1.000  C
  C13      1.0000 0.96180  0.81810  0.85860  Biso   1.000  C
  C14      1.0000 0.53820  0.31810  0.64140  Biso   1.000  C
  C15      1.0000 0.03820  0.18190  0.14140  Biso   1.000  C
  C16      1.0000 0.46180  0.68190  0.35860  Biso   1.000  C
  H1       1.0000 0.96240  0.74160  0.81980  Biso   1.000  H
  H2       1.0000 0.53760  0.24160  0.68020  Biso   1.000  H
  H3       1.0000 0.03760  0.25840  0.18020  Biso   1.000  H
  H4       1.0000 0.46240  0.75840  0.31980  Biso   1.000  H
  H5       1.0000 0.92190  0.75990  0.88830  Biso   1.000  H
  H6       1.0000 0.57810  0.25990  0.61170  Biso   1.000  H
  H7       1.0000 0.07810  0.24010  0.11170  Biso   1.000  H
  H8       1.0000 0.42190  0.74010  0.38830  Biso   1.000  H
  C17      1.0000 0.07050  0.84370  0.89590  Biso   1.000  C
  C18      1.0000 0.42950  0.34370  0.60410  Biso   1.000  C
  C19      1.0000 0.92950  0.15630  0.10410  Biso   1.000  C
  C20      1.0000 0.57050  0.65630  0.39590  Biso   1.000  C
  H9       1.0000 0.10030  0.94590  0.87720  Biso   1.000  H
  H10      1.0000 0.39970  0.44590  0.62280  Biso   1.000  H
  H11      1.0000 0.89970  0.05410  0.12280  Biso   1.000  H
  H12      1.0000 0.60030  0.55410  0.37720  Biso   1.000  H
  H13      1.0000 0.06920  0.86800  0.94310  Biso   1.000  H
  H14      1.0000 0.43080  0.36800  0.55690  Biso   1.000  H
  H15      1.0000 0.93080  0.13200  0.05690  Biso   1.000  H
  H16      1.0000 0.56920  0.63200  0.44310  Biso   1.000  H
  C21      1.0000 0.13650  0.68240  0.89080  Biso   1.000  C
  C22      1.0000 0.36350  0.18240  0.60920  Biso   1.000  C
  C23      1.0000 0.86350  0.31760  0.10920  Biso   1.000  C
  C24      1.0000 0.63650  0.81760  0.39080  Biso   1.000  C
  C25      1.0000 0.91720  0.29850  0.69370  Biso   1.000  C
  C26      1.0000 0.58280  0.79850  0.80630  Biso   1.000  C
  C27      1.0000 0.08280  0.70150  0.30630  Biso   1.000  C
  C28      1.0000 0.41720  0.20150  0.19370  Biso   1.000  C
  H17      1.0000 0.86040  0.37100  0.67260  Biso   1.000  H
  H18      1.0000 0.63960  0.87100  0.82740  Biso   1.000  H
  H19      1.0000 0.13960  0.62900  0.32740  Biso   1.000  H
  H20      1.0000 0.36040  0.12900  0.17260  Biso   1.000  H
  H21      1.0000 0.92700  0.20420  0.66250  Biso   1.000  H
  H22      1.0000 0.57300  0.70420  0.83750  Biso   1.000  H
  H23      1.0000 0.07300  0.79580  0.33750  Biso   1.000  H
  H24      1.0000 0.42700  0.29580  0.16250  Biso   1.000  H
  C29      1.0000 0.01310  0.41250  0.70840  Biso   1.000  C
  C30      1.0000 0.48690  0.91250  0.79160  Biso   1.000  C
  C31      1.0000 0.98690  0.58750  0.29160  Biso   1.000  C
  C32      1.0000 0.51310  0.08750  0.20840  Biso   1.000  C
  H25      1.0000 0.00340  0.50530  0.74020  Biso   1.000  H
  H26      1.0000 0.49660  0.00530  0.75980  Biso   1.000  H
  H27      1.0000 0.99660  0.49470  0.25980  Biso   1.000  H
  H28      1.0000 0.50340  0.99470  0.24020  Biso   1.000  H
  H29      1.0000 0.06980  0.33920  0.72910  Biso   1.000  H
  H30      1.0000 0.43020  0.83920  0.77090  Biso   1.000  H
  H31      1.0000 0.93020  0.66080  0.27090  Biso   1.000  H
  H32      1.0000 0.56980  0.16080  0.22910  Biso   1.000  H
  C33      1.0000 0.03800  0.49620  0.64520  Biso   1.000  C
  C34      1.0000 0.46200  0.99620  0.85480  Biso   1.000  C
  C35      1.0000 0.96200  0.50380  0.35480  Biso   1.000  C
  C36      1.0000 0.53800  0.00380  0.14520  Biso   1.000  C
  C37      1.0000 0.73070  0.31330  0.88170  Biso   1.000  C
  C38      1.0000 0.76930  0.81330  0.61830  Biso   1.000  C
  C39      1.0000 0.26930  0.68670  0.11830  Biso   1.000  C
  C40      1.0000 0.23070  0.18670  0.38170  Biso   1.000  C
  H33      1.0000 0.70070  0.22530  0.90760  Biso   1.000  H
  H34      1.0000 0.79930  0.72530  0.59240  Biso   1.000  H
  H35      1.0000 0.29930  0.77470  0.09240  Biso   1.000  H
  H36      1.0000 0.20070  0.27470  0.40760  Biso   1.000  H
  H37      1.0000 0.67670  0.36300  0.84840  Biso   1.000  H
  H38      1.0000 0.82330  0.86300  0.65160  Biso   1.000  H
  H39      1.0000 0.32330  0.63700  0.15160  Biso   1.000  H
  H40      1.0000 0.17670  0.13700  0.34840  Biso   1.000  H
  C41      1.0000 0.77790  0.45970  0.92850  Biso   1.000  C
  C42      1.0000 0.72210  0.95970  0.57150  Biso   1.000  C
  C43      1.0000 0.22210  0.54030  0.07150  Biso   1.000  C
  C44      1.0000 0.27790  0.04030  0.42850  Biso   1.000  C
  H41      1.0000 0.83610  0.41240  0.95900  Biso   1.000  H
  H42      1.0000 0.66390  0.91240  0.54100  Biso   1.000  H
  H43      1.0000 0.16390  0.58760  0.04100  Biso   1.000  H
  H44      1.0000 0.33610  0.08760  0.45900  Biso   1.000  H
  H45      1.0000 0.80200  0.55320  0.90200  Biso   1.000  H
  H46      1.0000 0.69800  0.05320  0.59800  Biso   1.000  H
  H47      1.0000 0.19800  0.44680  0.09800  Biso   1.000  H
  H48      1.0000 0.30200  0.94680  0.40200  Biso   1.000  H
  C45      1.0000 0.70360  0.53770  0.96940  Biso   1.000  C
  C46      1.0000 0.79640  0.03770  0.53060  Biso   1.000  C
  C47      1.0000 0.29640  0.46230  0.03060  Biso   1.000  C
  C48      1.0000 0.20360  0.96230  0.46940  Biso   1.000  C
