data_image0
_cell_length_a       10.0735
_cell_length_b       15.3951
_cell_length_c       6.2152
_cell_angle_alpha    90
_cell_angle_beta     111.293
_cell_angle_gamma    90

_symmetry_space_group_name_H-M    "P 1"
_symmetry_int_tables_number       1

loop_
  _symmetry_equiv_pos_as_xyz
  'x, y, z'

loop_
  _atom_site_label
  _atom_site_occupancy
  _atom_site_fract_x
  _atom_site_fract_y
  _atom_site_fract_z
  _atom_site_thermal_displace_type
  _atom_site_B_iso_or_equiv
  _atom_site_type_symbol
  Cu1      1.0000 0.50000  0.45036  0.25000  Biso   1.000  Cu
  Cu2      1.0000 0.00000  0.95036  0.25000  Biso   1.000  Cu
  Cu3      1.0000 0.50000  0.54964  0.75000  Biso   1.000  Cu
  Cu4      1.0000 0.00000  0.04964  0.75000  Biso   1.000  Cu
  Cl1      1.0000 0.34425  0.45558  0.44194  Biso   1.000  Cl
  Cl2      1.0000 0.65575  0.45558  0.05806  Biso   1.000  Cl
  Cl3      1.0000 0.84425  0.95558  0.44194  Biso   1.000  Cl
  Cl4      1.0000 0.15575  0.95558  0.05806  Biso   1.000  Cl
  Cl5      1.0000 0.65575  0.54442  0.55806  Biso   1.000  Cl
  Cl6      1.0000 0.34425  0.54442  0.94194  Biso   1.000  Cl
  Cl7      1.0000 0.15575  0.04442  0.55806  Biso   1.000  Cl
  Cl8      1.0000 0.84425  0.04442  0.94194  Biso   1.000  Cl
  N1       1.0000 0.46820  0.32770  0.15730  Biso   1.000  N
  N2       1.0000 0.53180  0.32770  0.34270  Biso   1.000  N
  N3       1.0000 0.96820  0.82770  0.15730  Biso   1.000  N
  N4       1.0000 0.03180  0.82770  0.34270  Biso   1.000  N
  N5       1.0000 0.53180  0.67230  0.84270  Biso   1.000  N
  N6       1.0000 0.46820  0.67230  0.65730  Biso   1.000  N
  N7       1.0000 0.03180  0.17230  0.84270  Biso   1.000  N
  N8       1.0000 0.96820  0.17230  0.65730  Biso   1.000  N
  C1       1.0000 0.50990  0.25970  0.30140  Biso   1.000  C
  C2       1.0000 0.49010  0.25970  0.19860  Biso   1.000  C
  C3       1.0000 0.00990  0.75970  0.30140  Biso   1.000  C
  C4       1.0000 0.99010  0.75970  0.19860  Biso   1.000  C
  C5       1.0000 0.49010  0.74030  0.69860  Biso   1.000  C
  C6       1.0000 0.50990  0.74030  0.80140  Biso   1.000  C
  C7       1.0000 0.99010  0.24030  0.69860  Biso   1.000  C
  C8       1.0000 0.00990  0.24030  0.80140  Biso   1.000  C
  C9       1.0000 0.48800  0.17400  0.22600  Biso   1.000  C
  C10      1.0000 0.51200  0.17400  0.27400  Biso   1.000  C
  C11      1.0000 0.98800  0.67400  0.22600  Biso   1.000  C
  C12      1.0000 0.01200  0.67400  0.27400  Biso   1.000  C
  C13      1.0000 0.51200  0.82600  0.77400  Biso   1.000  C
  C14      1.0000 0.48800  0.82600  0.72600  Biso   1.000  C
  C15      1.0000 0.01200  0.32600  0.77400  Biso   1.000  C
  C16      1.0000 0.98800  0.32600  0.72600  Biso   1.000  C
  C17      1.0000 0.36510  0.22600  0.85350  Biso   1.000  C
  C18      1.0000 0.63490  0.22600  0.64650  Biso   1.000  C
  C19      1.0000 0.86510  0.72600  0.85350  Biso   1.000  C
  C20      1.0000 0.13490  0.72600  0.64650  Biso   1.000  C
  C21      1.0000 0.63490  0.77400  0.14650  Biso   1.000  C
  C22      1.0000 0.36510  0.77400  0.35350  Biso   1.000  C
  C23      1.0000 0.13490  0.27400  0.14650  Biso   1.000  C
  C24      1.0000 0.86510  0.27400  0.35350  Biso   1.000  C
  H1       1.0000 0.33200  0.21300  0.70000  Biso   1.000  H
  H2       1.0000 0.66800  0.21300  0.80000  Biso   1.000  H
  H3       1.0000 0.83200  0.71300  0.70000  Biso   1.000  H
  H4       1.0000 0.16800  0.71300  0.80000  Biso   1.000  H
  H5       1.0000 0.66800  0.78700  0.30000  Biso   1.000  H
  H6       1.0000 0.33200  0.78700  0.20000  Biso   1.000  H
  H7       1.0000 0.16800  0.28700  0.30000  Biso   1.000  H
  H8       1.0000 0.83200  0.28700  0.20000  Biso   1.000  H
  Cl9      1.0000 0.61150  0.28740  0.58710  Biso   1.000  Cl
  Cl10     1.0000 0.38850  0.28740  0.91290  Biso   1.000  Cl
  Cl11     1.0000 0.11150  0.78740  0.58710  Biso   1.000  Cl
  Cl12     1.0000 0.88850  0.78740  0.91290  Biso   1.000  Cl
  Cl13     1.0000 0.38850  0.71260  0.41290  Biso   1.000  Cl
  Cl14     1.0000 0.61150  0.71260  0.08710  Biso   1.000  Cl
  Cl15     1.0000 0.88850  0.21260  0.41290  Biso   1.000  Cl
  Cl16     1.0000 0.11150  0.21260  0.08710  Biso   1.000  Cl
  C25      1.0000 0.52920  0.10000  0.40900  Biso   1.000  C
  C26      1.0000 0.47080  0.10000  0.09100  Biso   1.000  C
  C27      1.0000 0.02920  0.60000  0.40900  Biso   1.000  C
  C28      1.0000 0.97080  0.60000  0.09100  Biso   1.000  C
  C29      1.0000 0.47080  0.90000  0.59100  Biso   1.000  C
  C30      1.0000 0.52920  0.90000  0.90900  Biso   1.000  C
  C31      1.0000 0.97080  0.40000  0.59100  Biso   1.000  C
  C32      1.0000 0.02920  0.40000  0.90900  Biso   1.000  C
  H9       1.0000 0.50700  0.04550  0.32700  Biso   1.000  H
  H10      1.0000 0.49300  0.04550  0.17300  Biso   1.000  H
  H11      1.0000 0.00700  0.54550  0.32700  Biso   1.000  H
  H12      1.0000 0.99300  0.54550  0.17300  Biso   1.000  H
  H13      1.0000 0.49300  0.95450  0.67300  Biso   1.000  H
  H14      1.0000 0.50700  0.95450  0.82700  Biso   1.000  H
  H15      1.0000 0.99300  0.45450  0.67300  Biso   1.000  H
  H16      1.0000 0.00700  0.45450  0.82700  Biso   1.000  H
  H17      1.0000 0.62800  0.10200  0.50100  Biso   1.000  H
  H18      1.0000 0.37200  0.10200  0.99900  Biso   1.000  H
  H19      1.0000 0.12800  0.60200  0.50100  Biso   1.000  H
  H20      1.0000 0.87200  0.60200  0.99900  Biso   1.000  H
  H21      1.0000 0.37200  0.89800  0.49900  Biso   1.000  H
  H22      1.0000 0.62800  0.89800  0.00100  Biso   1.000  H
  H23      1.0000 0.87200  0.39800  0.49900  Biso   1.000  H
  H24      1.0000 0.12800  0.39800  0.00100  Biso   1.000  H
  H25      1.0000 0.47400  0.10400  0.50500  Biso   1.000  H
  H26      1.0000 0.52600  0.10400  0.99500  Biso   1.000  H
  H27      1.0000 0.97400  0.60400  0.50500  Biso   1.000  H
  H28      1.0000 0.02600  0.60400  0.99500  Biso   1.000  H
  H29      1.0000 0.52600  0.89600  0.49500  Biso   1.000  H
  H30      1.0000 0.47400  0.89600  0.00500  Biso   1.000  H
  H31      1.0000 0.02600  0.39600  0.49500  Biso   1.000  H
  H32      1.0000 0.97400  0.39600  0.00500  Biso   1.000  H
  C33      1.0000 0.40700  0.30800  0.92900  Biso   1.000  C
  C34      1.0000 0.59300  0.30800  0.57100  Biso   1.000  C
  C35      1.0000 0.90700  0.80800  0.92900  Biso   1.000  C
  C36      1.0000 0.09300  0.80800  0.57100  Biso   1.000  C
  C37      1.0000 0.59300  0.69200  0.07100  Biso   1.000  C
  C38      1.0000 0.40700  0.69200  0.42900  Biso   1.000  C
  C39      1.0000 0.09300  0.19200  0.07100  Biso   1.000  C
  C40      1.0000 0.90700  0.19200  0.42900  Biso   1.000  C
  H33      1.0000 0.36500  0.35700  0.84000  Biso   1.000  H
  H34      1.0000 0.63500  0.35700  0.66000  Biso   1.000  H
  H35      1.0000 0.86500  0.85700  0.84000  Biso   1.000  H
  H36      1.0000 0.13500  0.85700  0.66000  Biso   1.000  H
  H37      1.0000 0.63500  0.64300  0.16000  Biso   1.000  H
  H38      1.0000 0.36500  0.64300  0.34000  Biso   1.000  H
  H39      1.0000 0.13500  0.14300  0.16000  Biso   1.000  H
  H40      1.0000 0.86500  0.14300  0.34000  Biso   1.000  H
  C41      1.0000 0.40930  0.15780  0.00840  Biso   1.000  C
  C42      1.0000 0.59070  0.15780  0.49160  Biso   1.000  C
  C43      1.0000 0.90930  0.65780  0.00840  Biso   1.000  C
  C44      1.0000 0.09070  0.65780  0.49160  Biso   1.000  C
  C45      1.0000 0.59070  0.84220  0.99160  Biso   1.000  C
  C46      1.0000 0.40930  0.84220  0.50840  Biso   1.000  C
  C47      1.0000 0.09070  0.34220  0.99160  Biso   1.000  C
  C48      1.0000 0.90930  0.34220  0.50840  Biso   1.000  C
  H41      1.0000 0.40100  0.10200  0.95000  Biso   1.000  H
  H42      1.0000 0.59900  0.10200  0.55000  Biso   1.000  H
  H43      1.0000 0.90100  0.60200  0.95000  Biso   1.000  H
  H44      1.0000 0.09900  0.60200  0.55000  Biso   1.000  H
  H45      1.0000 0.59900  0.89800  0.05000  Biso   1.000  H
  H46      1.0000 0.40100  0.89800  0.45000  Biso   1.000  H
  H47      1.0000 0.09900  0.39800  0.05000  Biso   1.000  H
  H48      1.0000 0.90100  0.39800  0.45000  Biso   1.000  H
