data_image0
_cell_length_a       10.2252
_cell_length_b       19.0915
_cell_length_c       8.05213
_cell_angle_alpha    90
_cell_angle_beta     98.8239
_cell_angle_gamma    90

_symmetry_space_group_name_H-M    "P 1"
_symmetry_int_tables_number       1

loop_
  _symmetry_equiv_pos_as_xyz
  'x, y, z'

loop_
  _atom_site_label
  _atom_site_occupancy
  _atom_site_fract_x
  _atom_site_fract_y
  _atom_site_fract_z
  _atom_site_thermal_displace_type
  _atom_site_B_iso_or_equiv
  _atom_site_type_symbol
  Cu1      1.0000 0.09730  0.00000  0.40480  Biso   1.000  Cu
  Cu2      1.0000 0.59730  0.50000  0.40480  Biso   1.000  Cu
  Cu3      1.0000 0.90270  0.00000  0.59520  Biso   1.000  Cu
  Cu4      1.0000 0.40270  0.50000  0.59520  Biso   1.000  Cu
  O1       1.0000 0.16960  0.07120  0.57150  Biso   1.000  O
  O2       1.0000 0.16960  0.92880  0.57150  Biso   1.000  O
  O3       1.0000 0.66960  0.57120  0.57150  Biso   1.000  O
  O4       1.0000 0.66960  0.42880  0.57150  Biso   1.000  O
  O5       1.0000 0.83040  0.92880  0.42850  Biso   1.000  O
  O6       1.0000 0.83040  0.07120  0.42850  Biso   1.000  O
  O7       1.0000 0.33040  0.42880  0.42850  Biso   1.000  O
  O8       1.0000 0.33040  0.57120  0.42850  Biso   1.000  O
  O9       1.0000 0.99410  0.07170  0.73650  Biso   1.000  O
  O10      1.0000 0.99410  0.92830  0.73650  Biso   1.000  O
  O11      1.0000 0.49410  0.57170  0.73650  Biso   1.000  O
  O12      1.0000 0.49410  0.42830  0.73650  Biso   1.000  O
  O13      1.0000 0.00590  0.92830  0.26350  Biso   1.000  O
  O14      1.0000 0.00590  0.07170  0.26350  Biso   1.000  O
  O15      1.0000 0.50590  0.42830  0.26350  Biso   1.000  O
  O16      1.0000 0.50590  0.57170  0.26350  Biso   1.000  O
  C1       1.0000 0.14480  0.16760  0.95050  Biso   1.000  C
  C2       1.0000 0.14480  0.83240  0.95050  Biso   1.000  C
  C3       1.0000 0.64480  0.66760  0.95050  Biso   1.000  C
  C4       1.0000 0.64480  0.33240  0.95050  Biso   1.000  C
  C5       1.0000 0.85520  0.83240  0.04950  Biso   1.000  C
  C6       1.0000 0.85520  0.16760  0.04950  Biso   1.000  C
  C7       1.0000 0.35520  0.33240  0.04950  Biso   1.000  C
  C8       1.0000 0.35520  0.66760  0.04950  Biso   1.000  C
  C9       1.0000 0.17580  0.15240  0.79350  Biso   1.000  C
  C10      1.0000 0.17580  0.84760  0.79350  Biso   1.000  C
  C11      1.0000 0.67580  0.65240  0.79350  Biso   1.000  C
  C12      1.0000 0.67580  0.34760  0.79350  Biso   1.000  C
  C13      1.0000 0.82420  0.84760  0.20650  Biso   1.000  C
  C14      1.0000 0.82420  0.15240  0.20650  Biso   1.000  C
  C15      1.0000 0.32420  0.34760  0.20650  Biso   1.000  C
  C16      1.0000 0.32420  0.65240  0.20650  Biso   1.000  C
  C17      1.0000 0.25750  0.19600  0.71300  Biso   1.000  C
  C18      1.0000 0.25750  0.80400  0.71300  Biso   1.000  C
  C19      1.0000 0.75750  0.69600  0.71300  Biso   1.000  C
  C20      1.0000 0.75750  0.30400  0.71300  Biso   1.000  C
  C21      1.0000 0.74250  0.80400  0.28700  Biso   1.000  C
  C22      1.0000 0.74250  0.19600  0.28700  Biso   1.000  C
  C23      1.0000 0.24250  0.30400  0.28700  Biso   1.000  C
  C24      1.0000 0.24250  0.69600  0.28700  Biso   1.000  C
  C25      1.0000 0.31230  0.25670  0.79790  Biso   1.000  C
  C26      1.0000 0.31230  0.74330  0.79790  Biso   1.000  C
  C27      1.0000 0.81230  0.75670  0.79790  Biso   1.000  C
  C28      1.0000 0.81230  0.24330  0.79790  Biso   1.000  C
  C29      1.0000 0.68770  0.74330  0.20210  Biso   1.000  C
  C30      1.0000 0.68770  0.25670  0.20210  Biso   1.000  C
  C31      1.0000 0.18770  0.24330  0.20210  Biso   1.000  C
  C32      1.0000 0.18770  0.75670  0.20210  Biso   1.000  C
  C33      1.0000 0.22970  0.22400  0.05120  Biso   1.000  C
  C34      1.0000 0.22970  0.77600  0.05120  Biso   1.000  C
  C35      1.0000 0.72970  0.72400  0.05120  Biso   1.000  C
  C36      1.0000 0.72970  0.27600  0.05120  Biso   1.000  C
  C37      1.0000 0.77030  0.77600  0.94880  Biso   1.000  C
  C38      1.0000 0.77030  0.22400  0.94880  Biso   1.000  C
  C39      1.0000 0.27030  0.27600  0.94880  Biso   1.000  C
  C40      1.0000 0.27030  0.72400  0.94880  Biso   1.000  C
  C41      1.0000 0.10750  0.08920  0.69310  Biso   1.000  C
  C42      1.0000 0.10750  0.91080  0.69310  Biso   1.000  C
  C43      1.0000 0.60750  0.58920  0.69310  Biso   1.000  C
  C44      1.0000 0.60750  0.41080  0.69310  Biso   1.000  C
  C45      1.0000 0.89250  0.91080  0.30690  Biso   1.000  C
  C46      1.0000 0.89250  0.08920  0.30690  Biso   1.000  C
  C47      1.0000 0.39250  0.41080  0.30690  Biso   1.000  C
  C48      1.0000 0.39250  0.58920  0.30690  Biso   1.000  C
  N1       1.0000 0.27780  0.00000  0.30050  Biso   1.000  N
  N2       1.0000 0.77780  0.50000  0.30050  Biso   1.000  N
  N3       1.0000 0.72220  0.00000  0.69950  Biso   1.000  N
  N4       1.0000 0.22220  0.50000  0.69950  Biso   1.000  N
  C49      1.0000 0.34930  0.06068  0.30820  Biso   1.000  C
  C50      1.0000 0.34930  0.93932  0.30820  Biso   1.000  C
  C51      1.0000 0.84930  0.56068  0.30820  Biso   1.000  C
  C52      1.0000 0.84930  0.43932  0.30820  Biso   1.000  C
  C53      1.0000 0.65070  0.93932  0.69180  Biso   1.000  C
  C54      1.0000 0.65070  0.06068  0.69180  Biso   1.000  C
  C55      1.0000 0.15070  0.43932  0.69180  Biso   1.000  C
  C56      1.0000 0.15070  0.56068  0.69180  Biso   1.000  C
  C57      1.0000 0.46720  0.06200  0.23550  Biso   1.000  C
  C58      1.0000 0.46720  0.93800  0.23550  Biso   1.000  C
  C59      1.0000 0.96720  0.56200  0.23550  Biso   1.000  C
  C60      1.0000 0.96720  0.43800  0.23550  Biso   1.000  C
  C61      1.0000 0.53280  0.93800  0.76450  Biso   1.000  C
  C62      1.0000 0.53280  0.06200  0.76450  Biso   1.000  C
  C63      1.0000 0.03280  0.43800  0.76450  Biso   1.000  C
  C64      1.0000 0.03280  0.56200  0.76450  Biso   1.000  C
  C65      1.0000 0.53110  0.00000  0.21120  Biso   1.000  C
  C66      1.0000 0.03110  0.50000  0.21120  Biso   1.000  C
  C67      1.0000 0.46890  0.00000  0.78880  Biso   1.000  C
  C68      1.0000 0.96890  0.50000  0.78880  Biso   1.000  C
