data_image0
_cell_length_a       3.703
_cell_length_b       7.374
_cell_length_c       14.634
_cell_angle_alpha    77.29
_cell_angle_beta     88.21
_cell_angle_gamma    84.59

_symmetry_space_group_name_H-M    "P 1"
_symmetry_int_tables_number       1

loop_
  _symmetry_equiv_pos_as_xyz
  'x, y, z'

loop_
  _atom_site_label
  _atom_site_occupancy
  _atom_site_fract_x
  _atom_site_fract_y
  _atom_site_fract_z
  _atom_site_thermal_displace_type
  _atom_site_B_iso_or_equiv
  _atom_site_type_symbol
  Cu1      1.0000 0.50000  0.50000  0.50000  Biso   1.000  Cu
  Cl1      1.0000 0.82137  0.27985  0.99279  Biso   1.000  Cl
  Cl2      1.0000 0.17863  0.72015  0.00721  Biso   1.000  Cl
  O1       1.0000 0.51920  0.33659  0.41336  Biso   1.000  O
  O2       1.0000 0.48080  0.66341  0.58664  Biso   1.000  O
  O3       1.0000 0.80130  0.53400  0.30355  Biso   1.000  O
  O4       1.0000 0.19870  0.46600  0.69645  Biso   1.000  O
  O5       1.0000 0.89470  0.33413  0.56981  Biso   1.000  O
  O6       1.0000 0.10530  0.66587  0.43019  Biso   1.000  O
  O7       1.0000 0.37290  0.01990  0.38424  Biso   1.000  O
  O8       1.0000 0.62710  0.98010  0.61576  Biso   1.000  O
  C1       1.0000 0.61380  0.26230  0.26458  Biso   1.000  C
  C2       1.0000 0.38620  0.73770  0.73542  Biso   1.000  C
  C3       1.0000 0.48450  0.08560  0.29440  Biso   1.000  C
  C4       1.0000 0.51550  0.91440  0.70560  Biso   1.000  C
  C5       1.0000 0.47200  0.97030  0.23106  Biso   1.000  C
  C6       1.0000 0.52800  0.02970  0.76894  Biso   1.000  C
  H1       1.0000 0.39310  0.85180  0.25120  Biso   1.000  H
  H2       1.0000 0.60690  0.14820  0.74880  Biso   1.000  H
  C7       1.0000 0.57510  0.03000  0.13929  Biso   1.000  C
  C8       1.0000 0.42490  0.97000  0.86071  Biso   1.000  C
  H3       1.0000 0.56460  0.95270  0.09720  Biso   1.000  H
  H4       1.0000 0.43540  0.04730  0.90280  Biso   1.000  H
  C9       1.0000 0.69490  0.20580  0.10969  Biso   1.000  C
  C10      1.0000 0.30510  0.79420  0.89031  Biso   1.000  C
  C11      1.0000 0.71550  0.32170  0.17107  Biso   1.000  C
  C12      1.0000 0.28450  0.67830  0.82893  Biso   1.000  C
  H5       1.0000 0.79720  0.43930  0.15010  Biso   1.000  H
  H6       1.0000 0.20280  0.56070  0.84990  Biso   1.000  H
  C13      1.0000 0.65050  0.38930  0.32989  Biso   1.000  C
  C14      1.0000 0.34950  0.61070  0.67011  Biso   1.000  C
  H7       1.0000 0.00480  0.35850  0.62000  Biso   1.000  H
  H8       1.0000 0.99520  0.64150  0.38000  Biso   1.000  H
  H9       1.0000 0.83300  0.22210  0.58080  Biso   1.000  H
  H10      1.0000 0.16700  0.77790  0.41920  Biso   1.000  H
  H11      1.0000 0.37270  0.10240  0.42110  Biso   1.000  H
  H12      1.0000 0.62730  0.89760  0.57890  Biso   1.000  H
