data_image0
_cell_length_a       11.6662
_cell_length_b       11.1416
_cell_length_c       14.2188
_cell_angle_alpha    90
_cell_angle_beta     90
_cell_angle_gamma    90

_symmetry_space_group_name_H-M    "P 1"
_symmetry_int_tables_number       1

loop_
  _symmetry_equiv_pos_as_xyz
  'x, y, z'

loop_
  _atom_site_label
  _atom_site_occupancy
  _atom_site_fract_x
  _atom_site_fract_y
  _atom_site_fract_z
  _atom_site_thermal_displace_type
  _atom_site_B_iso_or_equiv
  _atom_site_type_symbol
  Cu1      1.0000 0.52099  0.11412  0.25000  Biso   1.000  Cu
  Cu2      1.0000 0.47901  0.88588  0.75000  Biso   1.000  Cu
  Cu3      1.0000 0.52099  0.38588  0.75000  Biso   1.000  Cu
  Cu4      1.0000 0.47901  0.61412  0.25000  Biso   1.000  Cu
  N1       1.0000 0.39170  0.09680  0.34290  Biso   1.000  N
  N2       1.0000 0.60830  0.90320  0.84290  Biso   1.000  N
  N3       1.0000 0.39170  0.40320  0.65710  Biso   1.000  N
  N4       1.0000 0.60830  0.59680  0.15710  Biso   1.000  N
  N5       1.0000 0.60830  0.90320  0.65710  Biso   1.000  N
  N6       1.0000 0.39170  0.09680  0.15710  Biso   1.000  N
  N7       1.0000 0.60830  0.59680  0.34290  Biso   1.000  N
  N8       1.0000 0.39170  0.40320  0.84290  Biso   1.000  N
  F1       1.0000 0.86650  0.20910  0.18320  Biso   1.000  F
  F2       1.0000 0.13350  0.79090  0.68320  Biso   1.000  F
  F3       1.0000 0.86650  0.29090  0.81680  Biso   1.000  F
  F4       1.0000 0.13350  0.70910  0.31680  Biso   1.000  F
  F5       1.0000 0.13350  0.79090  0.81680  Biso   1.000  F
  F6       1.0000 0.86650  0.20910  0.31680  Biso   1.000  F
  F7       1.0000 0.13350  0.70910  0.18320  Biso   1.000  F
  F8       1.0000 0.86650  0.29090  0.68320  Biso   1.000  F
  O1       1.0000 0.63800  0.13680  0.15550  Biso   1.000  O
  O2       1.0000 0.36200  0.86320  0.65550  Biso   1.000  O
  O3       1.0000 0.63800  0.36320  0.84450  Biso   1.000  O
  O4       1.0000 0.36200  0.63680  0.34450  Biso   1.000  O
  O5       1.0000 0.36200  0.86320  0.84450  Biso   1.000  O
  O6       1.0000 0.63800  0.13680  0.34450  Biso   1.000  O
  O7       1.0000 0.36200  0.63680  0.15550  Biso   1.000  O
  O8       1.0000 0.63800  0.36320  0.65550  Biso   1.000  O
  O9       1.0000 0.58000  0.31510  0.10120  Biso   1.000  O
  O10      1.0000 0.42000  0.68490  0.60120  Biso   1.000  O
  O11      1.0000 0.58000  0.18490  0.89880  Biso   1.000  O
  O12      1.0000 0.42000  0.81510  0.39880  Biso   1.000  O
  O13      1.0000 0.42000  0.68490  0.89880  Biso   1.000  O
  O14      1.0000 0.58000  0.31510  0.39880  Biso   1.000  O
  O15      1.0000 0.42000  0.81510  0.10120  Biso   1.000  O
  O16      1.0000 0.58000  0.18490  0.60120  Biso   1.000  O
  C1       1.0000 0.75590  0.23790  0.04810  Biso   1.000  C
  C2       1.0000 0.24410  0.76210  0.54810  Biso   1.000  C
  C3       1.0000 0.75590  0.26210  0.95190  Biso   1.000  C
  C4       1.0000 0.24410  0.73790  0.45190  Biso   1.000  C
  C5       1.0000 0.24410  0.76210  0.95190  Biso   1.000  C
  C6       1.0000 0.75590  0.23790  0.45190  Biso   1.000  C
  C7       1.0000 0.24410  0.73790  0.04810  Biso   1.000  C
  C8       1.0000 0.75590  0.26210  0.54810  Biso   1.000  C
  C9       1.0000 0.86200  0.22780  0.09280  Biso   1.000  C
  C10      1.0000 0.13800  0.77220  0.59280  Biso   1.000  C
  C11      1.0000 0.86200  0.27220  0.90720  Biso   1.000  C
  C12      1.0000 0.13800  0.72780  0.40720  Biso   1.000  C
  C13      1.0000 0.13800  0.77220  0.90720  Biso   1.000  C
  C14      1.0000 0.86200  0.22780  0.40720  Biso   1.000  C
  C15      1.0000 0.13800  0.72780  0.09280  Biso   1.000  C
  C16      1.0000 0.86200  0.27220  0.59280  Biso   1.000  C
  C17      1.0000 0.96610  0.23940  0.04760  Biso   1.000  C
  C18      1.0000 0.03390  0.76060  0.54760  Biso   1.000  C
  C19      1.0000 0.96610  0.26060  0.95240  Biso   1.000  C
  C20      1.0000 0.03390  0.73940  0.45240  Biso   1.000  C
  C21      1.0000 0.03390  0.76060  0.95240  Biso   1.000  C
  C22      1.0000 0.96610  0.23940  0.45240  Biso   1.000  C
  C23      1.0000 0.03390  0.73940  0.04760  Biso   1.000  C
  C24      1.0000 0.96610  0.26060  0.54760  Biso   1.000  C
  H1       1.0000 0.03450  0.23300  0.08080  Biso   1.000  H
  H2       1.0000 0.96550  0.76700  0.58080  Biso   1.000  H
  H3       1.0000 0.03450  0.26700  0.91920  Biso   1.000  H
  H4       1.0000 0.96550  0.73300  0.41920  Biso   1.000  H
  H5       1.0000 0.96550  0.76700  0.91920  Biso   1.000  H
  H6       1.0000 0.03450  0.23300  0.41920  Biso   1.000  H
  H7       1.0000 0.96550  0.73300  0.08080  Biso   1.000  H
  H8       1.0000 0.03450  0.26700  0.58080  Biso   1.000  H
  C25      1.0000 0.64830  0.23000  0.10500  Biso   1.000  C
  C26      1.0000 0.35170  0.77000  0.60500  Biso   1.000  C
  C27      1.0000 0.64830  0.27000  0.89500  Biso   1.000  C
  C28      1.0000 0.35170  0.73000  0.39500  Biso   1.000  C
  C29      1.0000 0.35170  0.77000  0.89500  Biso   1.000  C
  C30      1.0000 0.64830  0.23000  0.39500  Biso   1.000  C
  C31      1.0000 0.35170  0.73000  0.10500  Biso   1.000  C
  C32      1.0000 0.64830  0.27000  0.60500  Biso   1.000  C
  C33      1.0000 0.39410  0.09870  0.43650  Biso   1.000  C
  C34      1.0000 0.60590  0.90130  0.93650  Biso   1.000  C
  C35      1.0000 0.39410  0.40130  0.56350  Biso   1.000  C
  C36      1.0000 0.60590  0.59870  0.06350  Biso   1.000  C
  C37      1.0000 0.60590  0.90130  0.56350  Biso   1.000  C
  C38      1.0000 0.39410  0.09870  0.06350  Biso   1.000  C
  C39      1.0000 0.60590  0.59870  0.43650  Biso   1.000  C
  C40      1.0000 0.39410  0.40130  0.93650  Biso   1.000  C
  H9       1.0000 0.46240  0.11780  0.46670  Biso   1.000  H
  H10      1.0000 0.53760  0.88220  0.96670  Biso   1.000  H
  H11      1.0000 0.46240  0.38220  0.53330  Biso   1.000  H
  H12      1.0000 0.53760  0.61780  0.03330  Biso   1.000  H
  H13      1.0000 0.53760  0.88220  0.53330  Biso   1.000  H
  H14      1.0000 0.46240  0.11780  0.03330  Biso   1.000  H
  H15      1.0000 0.53760  0.61780  0.46670  Biso   1.000  H
  H16      1.0000 0.46240  0.38220  0.96670  Biso   1.000  H
  C41      1.0000 0.29760  0.07300  0.49090  Biso   1.000  C
  C42      1.0000 0.70240  0.92700  0.99090  Biso   1.000  C
  C43      1.0000 0.29760  0.42700  0.50910  Biso   1.000  C
  C44      1.0000 0.70240  0.57300  0.00910  Biso   1.000  C
  C45      1.0000 0.70240  0.92700  0.50910  Biso   1.000  C
  C46      1.0000 0.29760  0.07300  0.00910  Biso   1.000  C
  C47      1.0000 0.70240  0.57300  0.49090  Biso   1.000  C
  C48      1.0000 0.29760  0.42700  0.99090  Biso   1.000  C
  H17      1.0000 0.30200  0.07670  0.55610  Biso   1.000  H
  H18      1.0000 0.69800  0.92330  0.05610  Biso   1.000  H
  H19      1.0000 0.30200  0.42330  0.44390  Biso   1.000  H
  H20      1.0000 0.69800  0.57670  0.94390  Biso   1.000  H
  H21      1.0000 0.69800  0.92330  0.44390  Biso   1.000  H
  H22      1.0000 0.30200  0.07670  0.94390  Biso   1.000  H
  H23      1.0000 0.69800  0.57670  0.55610  Biso   1.000  H
  H24      1.0000 0.30200  0.42330  0.05610  Biso   1.000  H
  C49      1.0000 0.19720  0.04260  0.44870  Biso   1.000  C
  C50      1.0000 0.80280  0.95740  0.94870  Biso   1.000  C
  C51      1.0000 0.19720  0.45740  0.55130  Biso   1.000  C
  C52      1.0000 0.80280  0.54260  0.05130  Biso   1.000  C
  C53      1.0000 0.80280  0.95740  0.55130  Biso   1.000  C
  C54      1.0000 0.19720  0.04260  0.05130  Biso   1.000  C
  C55      1.0000 0.80280  0.54260  0.44870  Biso   1.000  C
  C56      1.0000 0.19720  0.45740  0.94870  Biso   1.000  C
  H25      1.0000 0.13310  0.02440  0.48480  Biso   1.000  H
  H26      1.0000 0.86690  0.97560  0.98480  Biso   1.000  H
  H27      1.0000 0.13310  0.47560  0.51520  Biso   1.000  H
  H28      1.0000 0.86690  0.52440  0.01520  Biso   1.000  H
  H29      1.0000 0.86690  0.97560  0.51520  Biso   1.000  H
  H30      1.0000 0.13310  0.02440  0.01520  Biso   1.000  H
  H31      1.0000 0.86690  0.52440  0.48480  Biso   1.000  H
  H32      1.0000 0.13310  0.47560  0.98480  Biso   1.000  H
  C57      1.0000 0.19110  0.03890  0.34890  Biso   1.000  C
  C58      1.0000 0.80890  0.96110  0.84890  Biso   1.000  C
  C59      1.0000 0.19110  0.46110  0.65110  Biso   1.000  C
  C60      1.0000 0.80890  0.53890  0.15110  Biso   1.000  C
  C61      1.0000 0.80890  0.96110  0.65110  Biso   1.000  C
  C62      1.0000 0.19110  0.03890  0.15110  Biso   1.000  C
  C63      1.0000 0.80890  0.53890  0.34890  Biso   1.000  C
  C64      1.0000 0.19110  0.46110  0.84890  Biso   1.000  C
  C65      1.0000 0.29040  0.06830  0.30040  Biso   1.000  C
  C66      1.0000 0.70960  0.93170  0.80040  Biso   1.000  C
  C67      1.0000 0.29040  0.43170  0.69960  Biso   1.000  C
  C68      1.0000 0.70960  0.56830  0.19960  Biso   1.000  C
  C69      1.0000 0.70960  0.93170  0.69960  Biso   1.000  C
  C70      1.0000 0.29040  0.06830  0.19960  Biso   1.000  C
  C71      1.0000 0.70960  0.56830  0.30040  Biso   1.000  C
  C72      1.0000 0.29040  0.43170  0.80040  Biso   1.000  C
  C73      1.0000 0.09010  0.01020  0.29690  Biso   1.000  C
  C74      1.0000 0.90990  0.98980  0.79690  Biso   1.000  C
  C75      1.0000 0.09010  0.48980  0.70310  Biso   1.000  C
  C76      1.0000 0.90990  0.51020  0.20310  Biso   1.000  C
  C77      1.0000 0.90990  0.98980  0.70310  Biso   1.000  C
  C78      1.0000 0.09010  0.01020  0.20310  Biso   1.000  C
  C79      1.0000 0.90990  0.51020  0.29690  Biso   1.000  C
  C80      1.0000 0.09010  0.48980  0.79690  Biso   1.000  C
  H33      1.0000 0.02310  0.99120  0.32900  Biso   1.000  H
  H34      1.0000 0.97690  0.00880  0.82900  Biso   1.000  H
  H35      1.0000 0.02310  0.50880  0.67100  Biso   1.000  H
  H36      1.0000 0.97690  0.49120  0.17100  Biso   1.000  H
  H37      1.0000 0.97690  0.00880  0.67100  Biso   1.000  H
  H38      1.0000 0.02310  0.99120  0.17100  Biso   1.000  H
  H39      1.0000 0.97690  0.49120  0.32900  Biso   1.000  H
  H40      1.0000 0.02310  0.50880  0.82900  Biso   1.000  H
  O17      1.0000 0.55030  0.90100  0.25000  Biso   1.000  O
  O18      1.0000 0.44970  0.09900  0.75000  Biso   1.000  O
  O19      1.0000 0.55030  0.59900  0.75000  Biso   1.000  O
  O20      1.0000 0.44970  0.40100  0.25000  Biso   1.000  O
  H41      1.0000 0.50490  0.87840  0.29710  Biso   1.000  H
  H42      1.0000 0.49510  0.12160  0.79710  Biso   1.000  H
  H43      1.0000 0.50490  0.62160  0.70290  Biso   1.000  H
  H44      1.0000 0.49510  0.37840  0.20290  Biso   1.000  H
  H45      1.0000 0.49510  0.12160  0.70290  Biso   1.000  H
  H46      1.0000 0.50490  0.87840  0.20290  Biso   1.000  H
  H47      1.0000 0.49510  0.37840  0.29710  Biso   1.000  H
  H48      1.0000 0.50490  0.62160  0.79710  Biso   1.000  H
  O21      1.0000 0.20170  0.42750  0.25000  Biso   1.000  O
  O22      1.0000 0.79830  0.57250  0.75000  Biso   1.000  O
  O23      1.0000 0.20170  0.07250  0.75000  Biso   1.000  O
  O24      1.0000 0.79830  0.92750  0.25000  Biso   1.000  O
  H49      1.0000 0.17000  0.44440  0.30540  Biso   1.000  H
  H50      1.0000 0.83000  0.55560  0.80540  Biso   1.000  H
  H51      1.0000 0.17000  0.05560  0.69460  Biso   1.000  H
  H52      1.0000 0.83000  0.94440  0.19460  Biso   1.000  H
  H53      1.0000 0.83000  0.55560  0.69460  Biso   1.000  H
  H54      1.0000 0.17000  0.44440  0.19460  Biso   1.000  H
  H55      1.0000 0.83000  0.94440  0.30540  Biso   1.000  H
  H56      1.0000 0.17000  0.05560  0.80540  Biso   1.000  H
