data_image0
_cell_length_a       8.0315
_cell_length_b       11.3713
_cell_length_c       13.3117
_cell_angle_alpha    97.122
_cell_angle_beta     103.187
_cell_angle_gamma    108.668

_symmetry_space_group_name_H-M    "P 1"
_symmetry_int_tables_number       1

loop_
  _symmetry_equiv_pos_as_xyz
  'x, y, z'

loop_
  _atom_site_label
  _atom_site_occupancy
  _atom_site_fract_x
  _atom_site_fract_y
  _atom_site_fract_z
  _atom_site_thermal_displace_type
  _atom_site_B_iso_or_equiv
  _atom_site_type_symbol
  Cu1      1.0000 0.24156  0.23481  0.73944  Biso   1.000  Cu
  Cu2      1.0000 0.75844  0.76519  0.26056  Biso   1.000  Cu
  Cu3      1.0000 0.71048  0.93127  0.93588  Biso   1.000  Cu
  Cu4      1.0000 0.28952  0.06873  0.06412  Biso   1.000  Cu
  Cu5      1.0000 0.21293  0.44047  0.43173  Biso   1.000  Cu
  Cu6      1.0000 0.78707  0.55953  0.56827  Biso   1.000  Cu
  P1       1.0000 0.03720  0.02968  0.85083  Biso   1.000  P
  P2       1.0000 0.96280  0.97032  0.14917  Biso   1.000  P
  P3       1.0000 0.42370  0.06511  0.86718  Biso   1.000  P
  P4       1.0000 0.57630  0.93489  0.13282  Biso   1.000  P
  P5       1.0000 0.06510  0.41792  0.62422  Biso   1.000  P
  P6       1.0000 0.93490  0.58208  0.37578  Biso   1.000  P
  P7       1.0000 0.45440  0.45464  0.64445  Biso   1.000  P
  P8       1.0000 0.54560  0.54536  0.35555  Biso   1.000  P
  O1       1.0000 0.03700  0.10880  0.76740  Biso   1.000  O
  O2       1.0000 0.96300  0.89120  0.23260  Biso   1.000  O
  O3       1.0000 0.84460  0.93110  0.83120  Biso   1.000  O
  O4       1.0000 0.15540  0.06890  0.16880  Biso   1.000  O
  O5       1.0000 0.11330  0.10890  0.96290  Biso   1.000  O
  O6       1.0000 0.88670  0.89110  0.03710  Biso   1.000  O
  O7       1.0000 0.41670  0.15640  0.79420  Biso   1.000  O
  O8       1.0000 0.58330  0.84360  0.20580  Biso   1.000  O
  O9       1.0000 0.47110  0.12940  0.98420  Biso   1.000  O
  O10      1.0000 0.52890  0.87060  0.01580  Biso   1.000  O
  O11      1.0000 0.55420  0.99870  0.84750  Biso   1.000  O
  O12      1.0000 0.44580  0.00130  0.15250  Biso   1.000  O
  O13      1.0000 0.18870  0.86970  0.91690  Biso   1.000  O
  O14      1.0000 0.81130  0.13030  0.08310  Biso   1.000  O
  H1       1.0000 0.29300  0.85000  0.93400  Biso   1.000  H
  H2       1.0000 0.70700  0.15000  0.06600  Biso   1.000  H
  O15      1.0000 0.06560  0.31210  0.68460  Biso   1.000  O
  O16      1.0000 0.93440  0.68790  0.31540  Biso   1.000  O
  O17      1.0000 0.02090  0.37100  0.50420  Biso   1.000  O
  O18      1.0000 0.97910  0.62900  0.49580  Biso   1.000  O
  O19      1.0000 0.93340  0.47940  0.65140  Biso   1.000  O
  O20      1.0000 0.06660  0.52060  0.34860  Biso   1.000  O
  O21      1.0000 0.44890  0.36450  0.72070  Biso   1.000  O
  O22      1.0000 0.55110  0.63550  0.27930  Biso   1.000  O
  O23      1.0000 0.37770  0.38480  0.52900  Biso   1.000  O
  O24      1.0000 0.62230  0.61520  0.47100  Biso   1.000  O
  O25      1.0000 0.64730  0.55360  0.66930  Biso   1.000  O
  O26      1.0000 0.35270  0.44640  0.33070  Biso   1.000  O
  O27      1.0000 0.30920  0.62360  0.59410  Biso   1.000  O
  O28      1.0000 0.69080  0.37640  0.40590  Biso   1.000  O
  H3       1.0000 0.23200  0.63000  0.57600  Biso   1.000  H
  H4       1.0000 0.76800  0.37000  0.42400  Biso   1.000  H
  C1       1.0000 0.19120  0.94370  0.83550  Biso   1.000  C
  C2       1.0000 0.80880  0.05630  0.16450  Biso   1.000  C
  C3       1.0000 0.13220  0.85940  0.72600  Biso   1.000  C
  C4       1.0000 0.86780  0.14060  0.27400  Biso   1.000  C
  H5       1.0000 0.21670  0.81660  0.72170  Biso   1.000  H
  H6       1.0000 0.78330  0.18340  0.27830  Biso   1.000  H
  H7       1.0000 0.13120  0.91060  0.67390  Biso   1.000  H
  H8       1.0000 0.86880  0.08940  0.32610  Biso   1.000  H
  H9       1.0000 0.01150  0.79760  0.71330  Biso   1.000  H
  H10      1.0000 0.98850  0.20240  0.28670  Biso   1.000  H
  C5       1.0000 0.29820  0.53720  0.66630  Biso   1.000  C
  C6       1.0000 0.70180  0.46280  0.33370  Biso   1.000  C
  C7       1.0000 0.35140  0.60700  0.78090  Biso   1.000  C
  C8       1.0000 0.64860  0.39300  0.21910  Biso   1.000  C
  H11      1.0000 0.47390  0.66840  0.79970  Biso   1.000  H
  H12      1.0000 0.52610  0.33160  0.20030  Biso   1.000  H
  H13      1.0000 0.34590  0.54710  0.82600  Biso   1.000  H
  H14      1.0000 0.65410  0.45290  0.17400  Biso   1.000  H
  H15      1.0000 0.26800  0.64950  0.78910  Biso   1.000  H
  H16      1.0000 0.73200  0.35050  0.21090  Biso   1.000  H
  N1       1.0000 0.34900  0.14600  0.38800  Biso   1.000  N
  N2       1.0000 0.65100  0.85400  0.61200  Biso   1.000  N
  H17      1.0000 0.25100  0.12170  0.33230  Biso   1.000  H
  H18      1.0000 0.74900  0.87830  0.66770  Biso   1.000  H
  H19      1.0000 0.43330  0.21570  0.38310  Biso   1.000  H
  H20      1.0000 0.56670  0.78430  0.61690  Biso   1.000  H
  H21      1.0000 0.31600  0.16110  0.44680  Biso   1.000  H
  H22      1.0000 0.68400  0.83890  0.55320  Biso   1.000  H
  C9       1.0000 0.42000  0.04890  0.39310  Biso   1.000  C
  C10      1.0000 0.58000  0.95110  0.60690  Biso   1.000  C
  H23      1.0000 0.45590  0.03260  0.32940  Biso   1.000  H
  H24      1.0000 0.54410  0.96740  0.67060  Biso   1.000  H
  C11      1.0000 0.58200  0.08100  0.48700  Biso   1.000  C
  C12      1.0000 0.41800  0.91900  0.51300  Biso   1.000  C
  H25      1.0000 0.63340  0.01470  0.48190  Biso   1.000  H
  H26      1.0000 0.36660  0.98530  0.51810  Biso   1.000  H
  H27      1.0000 0.67500  0.15960  0.48510  Biso   1.000  H
  H28      1.0000 0.32500  0.84040  0.51490  Biso   1.000  H
  C13      1.0000 0.54300  0.09500  0.58680  Biso   1.000  C
  C14      1.0000 0.45700  0.90500  0.41320  Biso   1.000  C
  H29      1.0000 0.43690  0.02240  0.58410  Biso   1.000  H
  H30      1.0000 0.56310  0.97760  0.41590  Biso   1.000  H
  H31      1.0000 0.50890  0.16990  0.59610  Biso   1.000  H
  H32      1.0000 0.49110  0.83010  0.40390  Biso   1.000  H
  N3       1.0000 0.69290  0.10860  0.68070  Biso   1.000  N
  N4       1.0000 0.30710  0.89140  0.31930  Biso   1.000  N
  O29      1.0000 0.37070  0.37540  0.96100  Biso   1.000  O
  O30      1.0000 0.62930  0.62460  0.03900  Biso   1.000  O
  H33      1.0000 0.43100  0.32100  0.97000  Biso   1.000  H
  H34      1.0000 0.56900  0.67900  0.03000  Biso   1.000  H
  H35      1.0000 0.47200  0.44600  0.98400  Biso   1.000  H
  H36      1.0000 0.52800  0.55400  0.01600  Biso   1.000  H
  O31      1.0000 0.12690  0.12150  0.52890  Biso   1.000  O
  O32      1.0000 0.87310  0.87850  0.47110  Biso   1.000  O
  H37      1.0000 0.19100  0.12400  0.48200  Biso   1.000  H
  H38      1.0000 0.80900  0.87600  0.51800  Biso   1.000  H
  H39      1.0000 0.10200  0.18600  0.50400  Biso   1.000  H
  H40      1.0000 0.89800  0.81400  0.49600  Biso   1.000  H
  N5       1.0000 0.77760  0.29410  0.77810  Biso   1.000  N
  N6       1.0000 0.22240  0.70590  0.22190  Biso   1.000  N
  H41      1.0000 0.80110  0.23180  0.74370  Biso   1.000  H
  H42      1.0000 0.19890  0.76820  0.25630  Biso   1.000  H
  H43      1.0000 0.80920  0.36210  0.74990  Biso   1.000  H
  H44      1.0000 0.19080  0.63790  0.25010  Biso   1.000  H
  H45      1.0000 0.65840  0.26880  0.77290  Biso   1.000  H
  H46      1.0000 0.34160  0.73120  0.22710  Biso   1.000  H
  C15      1.0000 0.88300  0.32650  0.88930  Biso   1.000  C
  C16      1.0000 0.11700  0.67350  0.11070  Biso   1.000  C
  H47      1.0000 0.01200  0.34920  0.89430  Biso   1.000  H
  H48      1.0000 0.98800  0.65080  0.10570  Biso   1.000  H
  H49      1.0000 0.84630  0.25250  0.91990  Biso   1.000  H
  H50      1.0000 0.15370  0.74750  0.08010  Biso   1.000  H
  C17      1.0000 0.85500  0.43400  0.95100  Biso   1.000  C
  C18      1.0000 0.14500  0.56600  0.04900  Biso   1.000  C
  H51      1.0000 0.90880  0.44150  0.02560  Biso   1.000  H
  H52      1.0000 0.09120  0.55850  0.97440  Biso   1.000  H
  H53      1.0000 0.72470  0.41530  0.93920  Biso   1.000  H
  H54      1.0000 0.27530  0.58470  0.06080  Biso   1.000  H
  C19      1.0000 0.94200  0.56250  0.92070  Biso   1.000  C
  C20      1.0000 0.05800  0.43750  0.07930  Biso   1.000  C
  H55      1.0000 0.06050  0.56980  0.91130  Biso   1.000  H
  H56      1.0000 0.93950  0.43020  0.08870  Biso   1.000  H
  H57      1.0000 0.86390  0.56570  0.85440  Biso   1.000  H
  H58      1.0000 0.13610  0.43430  0.14560  Biso   1.000  H
  N7       1.0000 0.96260  0.66820  0.00310  Biso   1.000  N
  N8       1.0000 0.03740  0.33180  0.99690  Biso   1.000  N
  H59      1.0000 0.01300  0.74140  0.98500  Biso   1.000  H
  H60      1.0000 0.98700  0.25860  0.01500  Biso   1.000  H
  H61      1.0000 0.03450  0.66550  0.06380  Biso   1.000  H
  H62      1.0000 0.96550  0.33450  0.93620  Biso   1.000  H
  H63      1.0000 0.85310  0.66230  0.01070  Biso   1.000  H
  H64      1.0000 0.14690  0.33770  0.98930  Biso   1.000  H
  H65      1.0000 0.32550  0.97170  0.39550  Biso   1.000  H
  H66      1.0000 0.67450  0.02830  0.60450  Biso   1.000  H
  H67      1.0000 0.65620  0.11740  0.73850  Biso   1.000  H
  H68      1.0000 0.34380  0.88260  0.26150  Biso   1.000  H
  H69      1.0000 0.79020  0.17670  0.68540  Biso   1.000  H
  H70      1.0000 0.20980  0.82330  0.31460  Biso   1.000  H
  H71      1.0000 0.72270  0.03970  0.67470  Biso   1.000  H
  H72      1.0000 0.27730  0.96030  0.32530  Biso   1.000  H
  O33      1.0000 0.20100  0.64170  0.18240  Biso   1.000  O
  O34      1.0000 0.79900  0.35830  0.81760  Biso   1.000  O
  O35      1.0000 0.83450  0.65010  0.88540  Biso   1.000  O
  O36      1.0000 0.16550  0.34990  0.11460  Biso   1.000  O
  O37      1.0000 0.35200  0.17200  0.38000  Biso   1.000  O
  O38      1.0000 0.64800  0.82800  0.62000  Biso   1.000  O
