data_image0
_cell_length_a       12.0877
_cell_length_b       16.227
_cell_length_c       9.2338
_cell_angle_alpha    90
_cell_angle_beta     109.345
_cell_angle_gamma    90

_symmetry_space_group_name_H-M    "P 1"
_symmetry_int_tables_number       1

loop_
  _symmetry_equiv_pos_as_xyz
  'x, y, z'

loop_
  _atom_site_label
  _atom_site_occupancy
  _atom_site_fract_x
  _atom_site_fract_y
  _atom_site_fract_z
  _atom_site_thermal_displace_type
  _atom_site_B_iso_or_equiv
  _atom_site_type_symbol
  Cu1      1.0000 0.48911  0.05701  0.89417  Biso   1.000  Cu
  Cu2      1.0000 0.51089  0.55701  0.60583  Biso   1.000  Cu
  Cu3      1.0000 0.51089  0.94299  0.10583  Biso   1.000  Cu
  Cu4      1.0000 0.48911  0.44299  0.39417  Biso   1.000  Cu
  O1       1.0000 0.39560  0.97099  0.75830  Biso   1.000  O
  O2       1.0000 0.60440  0.47099  0.74170  Biso   1.000  O
  O3       1.0000 0.60440  0.02901  0.24170  Biso   1.000  O
  O4       1.0000 0.39560  0.52901  0.25830  Biso   1.000  O
  O5       1.0000 0.41920  0.87324  0.93610  Biso   1.000  O
  O6       1.0000 0.58080  0.37324  0.56390  Biso   1.000  O
  O7       1.0000 0.58080  0.12676  0.06390  Biso   1.000  O
  O8       1.0000 0.41920  0.62676  0.43610  Biso   1.000  O
  O9       1.0000 0.08390  0.68550  0.35840  Biso   1.000  O
  O10      1.0000 0.91610  0.18550  0.14160  Biso   1.000  O
  O11      1.0000 0.91610  0.31450  0.64160  Biso   1.000  O
  O12      1.0000 0.08390  0.81450  0.85840  Biso   1.000  O
  O13      1.0000 0.63570  0.49160  0.38130  Biso   1.000  O
  O14      1.0000 0.36430  0.99160  0.11870  Biso   1.000  O
  O15      1.0000 0.36430  0.50840  0.61870  Biso   1.000  O
  O16      1.0000 0.63570  0.00840  0.88130  Biso   1.000  O
  O17      1.0000 0.65270  0.58754  0.56060  Biso   1.000  O
  O18      1.0000 0.34730  0.08754  0.93940  Biso   1.000  O
  O19      1.0000 0.34730  0.41246  0.43940  Biso   1.000  O
  O20      1.0000 0.65270  0.91246  0.06060  Biso   1.000  O
  O21      1.0000 0.46380  0.14114  0.70680  Biso   1.000  O
  O22      1.0000 0.53620  0.64114  0.79320  Biso   1.000  O
  O23      1.0000 0.53620  0.85886  0.29320  Biso   1.000  O
  O24      1.0000 0.46380  0.35886  0.20680  Biso   1.000  O
  C1       1.0000 0.37840  0.90010  0.80140  Biso   1.000  C
  C2       1.0000 0.62160  0.40010  0.69860  Biso   1.000  C
  C3       1.0000 0.62160  0.09990  0.19860  Biso   1.000  C
  C4       1.0000 0.37840  0.59990  0.30140  Biso   1.000  C
  C5       1.0000 0.30120  0.84340  0.68310  Biso   1.000  C
  C6       1.0000 0.69880  0.34340  0.81690  Biso   1.000  C
  C7       1.0000 0.69880  0.15660  0.31690  Biso   1.000  C
  C8       1.0000 0.30120  0.65660  0.18310  Biso   1.000  C
  C9       1.0000 0.30760  0.75990  0.70520  Biso   1.000  C
  C10      1.0000 0.69240  0.25990  0.79480  Biso   1.000  C
  C11      1.0000 0.69240  0.24010  0.29480  Biso   1.000  C
  C12      1.0000 0.30760  0.74010  0.20520  Biso   1.000  C
  H1       1.0000 0.36040  0.73830  0.79480  Biso   1.000  H
  H2       1.0000 0.63960  0.23830  0.70520  Biso   1.000  H
  H3       1.0000 0.63960  0.26170  0.20520  Biso   1.000  H
  H4       1.0000 0.36040  0.76170  0.29480  Biso   1.000  H
  C13      1.0000 0.23700  0.70760  0.59640  Biso   1.000  C
  C14      1.0000 0.76300  0.20760  0.90360  Biso   1.000  C
  C15      1.0000 0.76300  0.29240  0.40360  Biso   1.000  C
  C16      1.0000 0.23700  0.79240  0.09640  Biso   1.000  C
  H5       1.0000 0.24380  0.65090  0.61080  Biso   1.000  H
  H6       1.0000 0.75620  0.15090  0.88920  Biso   1.000  H
  H7       1.0000 0.75620  0.34910  0.38920  Biso   1.000  H
  H8       1.0000 0.24380  0.84910  0.11080  Biso   1.000  H
  C17      1.0000 0.15690  0.73920  0.46740  Biso   1.000  C
  C18      1.0000 0.84310  0.23920  0.03260  Biso   1.000  C
  C19      1.0000 0.84310  0.26080  0.53260  Biso   1.000  C
  C20      1.0000 0.15690  0.76080  0.96740  Biso   1.000  C
  C21      1.0000 0.14920  0.82270  0.44110  Biso   1.000  C
  C22      1.0000 0.85080  0.32270  0.05890  Biso   1.000  C
  C23      1.0000 0.85080  0.17730  0.55890  Biso   1.000  C
  C24      1.0000 0.14920  0.67730  0.94110  Biso   1.000  C
  H9       1.0000 0.09480  0.84380  0.35230  Biso   1.000  H
  H10      1.0000 0.90520  0.34380  0.14770  Biso   1.000  H
  H11      1.0000 0.90520  0.15620  0.64770  Biso   1.000  H
  H12      1.0000 0.09480  0.65620  0.85230  Biso   1.000  H
  C25      1.0000 0.22260  0.87440  0.54740  Biso   1.000  C
  C26      1.0000 0.77740  0.37440  0.95260  Biso   1.000  C
  C27      1.0000 0.77740  0.12560  0.45260  Biso   1.000  C
  C28      1.0000 0.22260  0.62560  0.04740  Biso   1.000  C
  H13      1.0000 0.21980  0.93080  0.52870  Biso   1.000  H
  H14      1.0000 0.78020  0.43080  0.97130  Biso   1.000  H
  H15      1.0000 0.78020  0.06920  0.47130  Biso   1.000  H
  H16      1.0000 0.21980  0.56920  0.02870  Biso   1.000  H
  C29      1.0000 0.68700  0.55080  0.46290  Biso   1.000  C
  C30      1.0000 0.31300  0.05080  0.03710  Biso   1.000  C
  C31      1.0000 0.31300  0.44920  0.53710  Biso   1.000  C
  C32      1.0000 0.68700  0.94920  0.96290  Biso   1.000  C
  C33      1.0000 0.79650  0.58280  0.44160  Biso   1.000  C
  C34      1.0000 0.20350  0.08280  0.05840  Biso   1.000  C
  C35      1.0000 0.20350  0.41720  0.55840  Biso   1.000  C
  C36      1.0000 0.79650  0.91720  0.94160  Biso   1.000  C
  C37      1.0000 0.84010  0.55070  0.33360  Biso   1.000  C
  C38      1.0000 0.15990  0.05070  0.16640  Biso   1.000  C
  C39      1.0000 0.15990  0.44930  0.66640  Biso   1.000  C
  C40      1.0000 0.84010  0.94930  0.83360  Biso   1.000  C
  H17      1.0000 0.80370  0.50540  0.27540  Biso   1.000  H
  H18      1.0000 0.19630  0.00540  0.22460  Biso   1.000  H
  H19      1.0000 0.19630  0.49460  0.72460  Biso   1.000  H
  H20      1.0000 0.80370  0.99460  0.77540  Biso   1.000  H
  C41      1.0000 0.93680  0.58470  0.31110  Biso   1.000  C
  C42      1.0000 0.06320  0.08470  0.18890  Biso   1.000  C
  C43      1.0000 0.06320  0.41530  0.68890  Biso   1.000  C
  C44      1.0000 0.93680  0.91530  0.81110  Biso   1.000  C
  H21      1.0000 0.96620  0.56170  0.23900  Biso   1.000  H
  H22      1.0000 0.03380  0.06170  0.26100  Biso   1.000  H
  H23      1.0000 0.03380  0.43830  0.76100  Biso   1.000  H
  H24      1.0000 0.96620  0.93830  0.73900  Biso   1.000  H
  C45      1.0000 0.99080  0.65240  0.39370  Biso   1.000  C
  C46      1.0000 0.00920  0.15240  0.10630  Biso   1.000  C
  C47      1.0000 0.00920  0.34760  0.60630  Biso   1.000  C
  C48      1.0000 0.99080  0.84760  0.89370  Biso   1.000  C
  C49      1.0000 0.95200  0.68320  0.50610  Biso   1.000  C
  C50      1.0000 0.04800  0.18320  0.99390  Biso   1.000  C
  C51      1.0000 0.04800  0.31680  0.49390  Biso   1.000  C
  C52      1.0000 0.95200  0.81680  0.00610  Biso   1.000  C
  H25      1.0000 0.99050  0.72730  0.56630  Biso   1.000  H
  H26      1.0000 0.00950  0.22730  0.93370  Biso   1.000  H
  H27      1.0000 0.00950  0.27270  0.43370  Biso   1.000  H
  H28      1.0000 0.99050  0.77270  0.06630  Biso   1.000  H
  C53      1.0000 0.85550  0.64850  0.52910  Biso   1.000  C
  C54      1.0000 0.14450  0.14850  0.97090  Biso   1.000  C
  C55      1.0000 0.14450  0.35150  0.47090  Biso   1.000  C
  C56      1.0000 0.85550  0.85150  0.02910  Biso   1.000  C
  H29      1.0000 0.82920  0.66960  0.60550  Biso   1.000  H
  H30      1.0000 0.17080  0.16960  0.89450  Biso   1.000  H
  H31      1.0000 0.17080  0.33040  0.39450  Biso   1.000  H
  H32      1.0000 0.82920  0.83040  0.10550  Biso   1.000  H
  S1       1.0000 0.38395  0.12151  0.54914  Biso   1.000  S
  S2       1.0000 0.61605  0.62151  0.95086  Biso   1.000  S
  S3       1.0000 0.61605  0.87849  0.45086  Biso   1.000  S
  S4       1.0000 0.38395  0.37849  0.04914  Biso   1.000  S
  C57      1.0000 0.40800  0.20310  0.43820  Biso   1.000  C
  C58      1.0000 0.59200  0.70310  0.06180  Biso   1.000  C
  C59      1.0000 0.59200  0.79690  0.56180  Biso   1.000  C
  C60      1.0000 0.40800  0.29690  0.93820  Biso   1.000  C
  H33      1.0000 0.36200  0.24920  0.45050  Biso   1.000  H
  H34      1.0000 0.63800  0.74920  0.04950  Biso   1.000  H
  H35      1.0000 0.63800  0.75080  0.54950  Biso   1.000  H
  H36      1.0000 0.36200  0.25080  0.95050  Biso   1.000  H
  H37      1.0000 0.48840  0.21960  0.46380  Biso   1.000  H
  H38      1.0000 0.51160  0.71960  0.03620  Biso   1.000  H
  H39      1.0000 0.51160  0.78040  0.53620  Biso   1.000  H
  H40      1.0000 0.48840  0.28040  0.96380  Biso   1.000  H
  H41      1.0000 0.37930  0.18450  0.33370  Biso   1.000  H
  H42      1.0000 0.62070  0.68450  0.16630  Biso   1.000  H
  H43      1.0000 0.62070  0.81550  0.66630  Biso   1.000  H
  H44      1.0000 0.37930  0.31550  0.83370  Biso   1.000  H
  S5       1.0000 0.38110  0.18890  0.60160  Biso   1.000  S
  S6       1.0000 0.61890  0.68890  0.89840  Biso   1.000  S
  S7       1.0000 0.61890  0.81110  0.39840  Biso   1.000  S
  S8       1.0000 0.38110  0.31110  0.10160  Biso   1.000  S
  C61      1.0000 0.38200  0.19800  0.39500  Biso   1.000  C
  C62      1.0000 0.61800  0.69800  0.10500  Biso   1.000  C
  C63      1.0000 0.61800  0.80200  0.60500  Biso   1.000  C
  C64      1.0000 0.38200  0.30200  0.89500  Biso   1.000  C
  H45      1.0000 0.45780  0.22370  0.42090  Biso   1.000  H
  H46      1.0000 0.54220  0.72370  0.07910  Biso   1.000  H
  H47      1.0000 0.54220  0.77630  0.57910  Biso   1.000  H
  H48      1.0000 0.45780  0.27630  0.92090  Biso   1.000  H
  H49      1.0000 0.38680  0.14310  0.35740  Biso   1.000  H
  H50      1.0000 0.61320  0.64310  0.14260  Biso   1.000  H
  H51      1.0000 0.61320  0.85690  0.64260  Biso   1.000  H
  H52      1.0000 0.38680  0.35690  0.85740  Biso   1.000  H
  H53      1.0000 0.32560  0.22930  0.31800  Biso   1.000  H
  H54      1.0000 0.67440  0.72930  0.18200  Biso   1.000  H
  H55      1.0000 0.67440  0.77070  0.68200  Biso   1.000  H
  H56      1.0000 0.32560  0.27070  0.81800  Biso   1.000  H
  C65      1.0000 0.47440  0.04990  0.49710  Biso   1.000  C
  C66      1.0000 0.52560  0.54990  0.00290  Biso   1.000  C
  C67      1.0000 0.52560  0.95010  0.50290  Biso   1.000  C
  C68      1.0000 0.47440  0.45010  0.99710  Biso   1.000  C
  H57      1.0000 0.47930  0.00000  0.55480  Biso   1.000  H
  H58      1.0000 0.52070  0.50000  0.94520  Biso   1.000  H
  H59      1.0000 0.52070  0.00000  0.44520  Biso   1.000  H
  H60      1.0000 0.47930  0.50000  0.05480  Biso   1.000  H
  H61      1.0000 0.44230  0.03790  0.38940  Biso   1.000  H
  H62      1.0000 0.55770  0.53790  0.11060  Biso   1.000  H
  H63      1.0000 0.55770  0.96210  0.61060  Biso   1.000  H
  H64      1.0000 0.44230  0.46210  0.88940  Biso   1.000  H
  H65      1.0000 0.55140  0.07300  0.51950  Biso   1.000  H
  H66      1.0000 0.44860  0.57300  0.98050  Biso   1.000  H
  H67      1.0000 0.44860  0.92700  0.48050  Biso   1.000  H
  H68      1.0000 0.55140  0.42700  0.01950  Biso   1.000  H
  C69      1.0000 0.24390  0.14170  0.56280  Biso   1.000  C
  C70      1.0000 0.75610  0.64170  0.93720  Biso   1.000  C
  C71      1.0000 0.75610  0.85830  0.43720  Biso   1.000  C
  C72      1.0000 0.24390  0.35830  0.06280  Biso   1.000  C
  H69      1.0000 0.22430  0.13970  0.65530  Biso   1.000  H
  H70      1.0000 0.77570  0.63970  0.84470  Biso   1.000  H
  H71      1.0000 0.77570  0.86030  0.34470  Biso   1.000  H
  H72      1.0000 0.22430  0.36030  0.15530  Biso   1.000  H
  H73      1.0000 0.18550  0.17290  0.48640  Biso   1.000  H
  H74      1.0000 0.81450  0.67290  0.01360  Biso   1.000  H
  H75      1.0000 0.81450  0.82710  0.51360  Biso   1.000  H
  H76      1.0000 0.18550  0.32710  0.98640  Biso   1.000  H
  H77      1.0000 0.24670  0.08670  0.52580  Biso   1.000  H
  H78      1.0000 0.75330  0.58670  0.97420  Biso   1.000  H
  H79      1.0000 0.75330  0.91330  0.47420  Biso   1.000  H
  H80      1.0000 0.24670  0.41330  0.02580  Biso   1.000  H
