data_image0
_cell_length_a       7.864
_cell_length_b       9.207
_cell_length_c       10.934
_cell_angle_alpha    88.059
_cell_angle_beta     76.189
_cell_angle_gamma    80.182

_symmetry_space_group_name_H-M    "P 1"
_symmetry_int_tables_number       1

loop_
  _symmetry_equiv_pos_as_xyz
  'x, y, z'

loop_
  _atom_site_label
  _atom_site_occupancy
  _atom_site_fract_x
  _atom_site_fract_y
  _atom_site_fract_z
  _atom_site_thermal_displace_type
  _atom_site_B_iso_or_equiv
  _atom_site_type_symbol
  Cu1      1.0000 0.50000  0.50000  0.50000  Biso   1.000  Cu
  N1       1.0000 0.46070  0.53110  0.32410  Biso   1.000  N
  N2       1.0000 0.53930  0.46890  0.67590  Biso   1.000  N
  N3       1.0000 0.71740  0.59400  0.43250  Biso   1.000  N
  N4       1.0000 0.28260  0.40600  0.56750  Biso   1.000  N
  C1       1.0000 0.62900  0.55820  0.23740  Biso   1.000  C
  C2       1.0000 0.37100  0.44180  0.76260  Biso   1.000  C
  C3       1.0000 0.60520  0.62950  0.11300  Biso   1.000  C
  C4       1.0000 0.39480  0.37050  0.88700  Biso   1.000  C
  C5       1.0000 0.78310  0.65730  0.03040  Biso   1.000  C
  C6       1.0000 0.21690  0.34270  0.96960  Biso   1.000  C
  C7       1.0000 0.87560  0.74890  0.09930  Biso   1.000  C
  C8       1.0000 0.12440  0.25110  0.90070  Biso   1.000  C
  C9       1.0000 0.89380  0.68020  0.22610  Biso   1.000  C
  C10      1.0000 0.10620  0.31980  0.77390  Biso   1.000  C
  C11      1.0000 0.71240  0.65820  0.30620  Biso   1.000  C
  C12      1.0000 0.28760  0.34180  0.69380  Biso   1.000  C
  C13      1.0000 0.76700  0.69230  0.51950  Biso   1.000  C
  C14      1.0000 0.23300  0.30770  0.48050  Biso   1.000  C
  C15      1.0000 0.79360  0.60610  0.63720  Biso   1.000  C
  C16      1.0000 0.20640  0.39390  0.36280  Biso   1.000  C
  C17      1.0000 0.37440  0.42530  0.27090  Biso   1.000  C
  C18      1.0000 0.62560  0.57470  0.72910  Biso   1.000  C
  C19      1.0000 0.63000  0.83240  0.54970  Biso   1.000  C
  C20      1.0000 0.37000  0.16760  0.45030  Biso   1.000  C
  O1       1.0000 0.77290  0.26810  0.44040  Biso   1.000  O
  O2       1.0000 0.22710  0.73190  0.55960  Biso   1.000  O
  O3       1.0000 0.76830  0.19160  0.63730  Biso   1.000  O
  O4       1.0000 0.23170  0.80840  0.36270  Biso   1.000  O
  C21      1.0000 0.81960  0.17580  0.51980  Biso   1.000  C
  C22      1.0000 0.18040  0.82420  0.48020  Biso   1.000  C
  C23      1.0000 0.94900  0.04090  0.46730  Biso   1.000  C
  C24      1.0000 0.05100  0.95910  0.53270  Biso   1.000  C
  O5       1.0000 0.89580  0.16640  0.19120  Biso   1.000  O
  O6       1.0000 0.10420  0.83360  0.80880  Biso   1.000  O
  O7       1.0000 0.74830  0.99530  0.84120  Biso   1.000  O
  O8       1.0000 0.25170  0.00470  0.15880  Biso   1.000  O
  O9       1.0000 0.60150  0.11500  0.08970  Biso   1.000  O
  O10      1.0000 0.39850  0.88500  0.91030  Biso   1.000  O
  H1       1.0000 0.38370  0.62050  0.32830  Biso   1.000  H
  H2       1.0000 0.61630  0.37950  0.67170  Biso   1.000  H
  H3       1.0000 0.81120  0.51520  0.41640  Biso   1.000  H
  H4       1.0000 0.18880  0.48480  0.58360  Biso   1.000  H
  H5       1.0000 0.71140  0.46200  0.21860  Biso   1.000  H
  H6       1.0000 0.28860  0.53800  0.78140  Biso   1.000  H
  H7       1.0000 0.52200  0.72410  0.13040  Biso   1.000  H
  H8       1.0000 0.47800  0.27590  0.86960  Biso   1.000  H
  H9       1.0000 0.55300  0.56410  0.06760  Biso   1.000  H
  H10      1.0000 0.44700  0.43590  0.93240  Biso   1.000  H
  H11      1.0000 0.86100  0.56170  0.00470  Biso   1.000  H
  H12      1.0000 0.13900  0.43830  0.99530  Biso   1.000  H
  H13      1.0000 0.76270  0.70950  0.95320  Biso   1.000  H
  H14      1.0000 0.23730  0.29050  0.04680  Biso   1.000  H
  H15      1.0000 0.80660  0.84980  0.11350  Biso   1.000  H
  H16      1.0000 0.19340  0.15020  0.88650  Biso   1.000  H
  H17      1.0000 0.99500  0.75610  0.04640  Biso   1.000  H
  H18      1.0000 0.00500  0.24390  0.95360  Biso   1.000  H
  H19      1.0000 0.97430  0.58400  0.21170  Biso   1.000  H
  H20      1.0000 0.02570  0.41600  0.78830  Biso   1.000  H
  H21      1.0000 0.94640  0.74540  0.27140  Biso   1.000  H
  H22      1.0000 0.05360  0.25460  0.72860  Biso   1.000  H
  H23      1.0000 0.63350  0.75650  0.31900  Biso   1.000  H
  H24      1.0000 0.36650  0.24350  0.68100  Biso   1.000  H
  H25      1.0000 0.88310  0.72130  0.47580  Biso   1.000  H
  H26      1.0000 0.11690  0.27870  0.52420  Biso   1.000  H
  H27      1.0000 0.87160  0.51090  0.61030  Biso   1.000  H
  H28      1.0000 0.12840  0.48910  0.38970  Biso   1.000  H
  H29      1.0000 0.85690  0.66180  0.68270  Biso   1.000  H
  H30      1.0000 0.14310  0.33820  0.31730  Biso   1.000  H
  H31      1.0000 0.34440  0.46590  0.19230  Biso   1.000  H
  H32      1.0000 0.65560  0.53410  0.80770  Biso   1.000  H
  H33      1.0000 0.45880  0.33190  0.24960  Biso   1.000  H
  H34      1.0000 0.54120  0.66810  0.75040  Biso   1.000  H
  H35      1.0000 0.63720  0.89430  0.47450  Biso   1.000  H
  H36      1.0000 0.36280  0.10570  0.52550  Biso   1.000  H
  H37      1.0000 0.65380  0.88650  0.61770  Biso   1.000  H
  H38      1.0000 0.34620  0.11350  0.38230  Biso   1.000  H
  H39      1.0000 0.51090  0.80650  0.57620  Biso   1.000  H
  H40      1.0000 0.48910  0.19350  0.42380  Biso   1.000  H
  H41      1.0000 0.95830  0.01270  0.38290  Biso   1.000  H
  H42      1.0000 0.04170  0.98730  0.61710  Biso   1.000  H
  H43      1.0000 0.85700  0.19700  0.26100  Biso   1.000  H
  H44      1.0000 0.14300  0.80300  0.73900  Biso   1.000  H
  H45      1.0000 0.81700  0.14800  0.16600  Biso   1.000  H
  H46      1.0000 0.18300  0.85200  0.83400  Biso   1.000  H
  H47      1.0000 0.84500  0.95400  0.83650  Biso   1.000  H
  H48      1.0000 0.15500  0.04600  0.16350  Biso   1.000  H
  H49      1.0000 0.76200  0.04900  0.78500  Biso   1.000  H
  H50      1.0000 0.23800  0.95100  0.21500  Biso   1.000  H
  H51      1.0000 0.64200  0.08700  0.01900  Biso   1.000  H
  H52      1.0000 0.35800  0.91300  0.98100  Biso   1.000  H
  H53      1.0000 0.50400  0.08500  0.11200  Biso   1.000  H
  H54      1.0000 0.49600  0.91500  0.88800  Biso   1.000  H
