data_image0
_cell_length_a       7.6207
_cell_length_b       20.686
_cell_length_c       11.6092
_cell_angle_alpha    90
_cell_angle_beta     97.296
_cell_angle_gamma    90

_symmetry_space_group_name_H-M    "P 1"
_symmetry_int_tables_number       1

loop_
  _symmetry_equiv_pos_as_xyz
  'x, y, z'

loop_
  _atom_site_label
  _atom_site_occupancy
  _atom_site_fract_x
  _atom_site_fract_y
  _atom_site_fract_z
  _atom_site_thermal_displace_type
  _atom_site_B_iso_or_equiv
  _atom_site_type_symbol
  O1       1.0000 0.63670  0.84997  0.52440  Biso   1.000  O
  O2       1.0000 0.36330  0.34997  0.47560  Biso   1.000  O
  Cu1      1.0000 0.04170  0.59786  0.90259  Biso   1.000  Cu
  Cu2      1.0000 0.95830  0.09786  0.09741  Biso   1.000  Cu
  Cu3      1.0000 0.62163  0.93853  0.47384  Biso   1.000  Cu
  Cu4      1.0000 0.37837  0.43853  0.52616  Biso   1.000  Cu
  Cu5      1.0000 0.71121  0.41016  0.09842  Biso   1.000  Cu
  Cu6      1.0000 0.28879  0.91016  0.90158  Biso   1.000  Cu
  Cu7      1.0000 0.90282  0.11853  0.68605  Biso   1.000  Cu
  Cu8      1.0000 0.09718  0.61853  0.31395  Biso   1.000  Cu
  N1       1.0000 0.79240  0.63043  0.86890  Biso   1.000  N
  N2       1.0000 0.20760  0.13043  0.13110  Biso   1.000  N
  O3       1.0000 0.43190  0.08601  0.80730  Biso   1.000  O
  O4       1.0000 0.56810  0.58601  0.19270  Biso   1.000  O
  O5       1.0000 0.72670  0.33135  0.19030  Biso   1.000  O
  O6       1.0000 0.27330  0.83135  0.80970  Biso   1.000  O
  O7       1.0000 0.09090  0.68349  0.97380  Biso   1.000  O
  O8       1.0000 0.90910  0.18349  0.02620  Biso   1.000  O
  O9       1.0000 0.55490  0.45378  0.19500  Biso   1.000  O
  O10      1.0000 0.44510  0.95378  0.80500  Biso   1.000  O
  H1       1.0000 0.55730  0.49290  0.18350  Biso   1.000  H
  H2       1.0000 0.44270  0.99290  0.81650  Biso   1.000  H
  O11      1.0000 0.27800  0.56671  0.95080  Biso   1.000  O
  O12      1.0000 0.72200  0.06671  0.04920  Biso   1.000  O
  H3       1.0000 0.28900  0.53040  0.92450  Biso   1.000  H
  H4       1.0000 0.71100  0.03040  0.07550  Biso   1.000  H
  C1       1.0000 0.74010  0.25933  0.34800  Biso   1.000  C
  C2       1.0000 0.25990  0.75933  0.65200  Biso   1.000  C
  O13      1.0000 0.00230  0.54423  0.75980  Biso   1.000  O
  O14      1.0000 0.99770  0.04423  0.24020  Biso   1.000  O
  O15      1.0000 0.88660  0.52827  0.57720  Biso   1.000  O
  O16      1.0000 0.11340  0.02827  0.42280  Biso   1.000  O
  O17      1.0000 0.76380  0.05406  0.58530  Biso   1.000  O
  O18      1.0000 0.23620  0.55406  0.41470  Biso   1.000  O
  O19      1.0000 0.61150  0.02735  0.41800  Biso   1.000  O
  O20      1.0000 0.38850  0.52735  0.58200  Biso   1.000  O
  O21      1.0000 0.65080  0.48081  0.98770  Biso   1.000  O
  O22      1.0000 0.34920  0.98081  0.01230  Biso   1.000  O
  C3       1.0000 0.77360  0.72640  0.54230  Biso   1.000  C
  C4       1.0000 0.22640  0.22640  0.45770  Biso   1.000  C
  H5       1.0000 0.77030  0.74700  0.47090  Biso   1.000  H
  H6       1.0000 0.22970  0.24700  0.52910  Biso   1.000  H
  O23      1.0000 0.39350  0.95624  0.53740  Biso   1.000  O
  O24      1.0000 0.60650  0.45624  0.46260  Biso   1.000  O
  H7       1.0000 0.34700  0.98870  0.50630  Biso   1.000  H
  H8       1.0000 0.65300  0.48870  0.49370  Biso   1.000  H
  C5       1.0000 0.75310  0.52403  0.96260  Biso   1.000  C
  C6       1.0000 0.24690  0.02403  0.03740  Biso   1.000  C
  O25      1.0000 0.72250  0.09916  0.81880  Biso   1.000  O
  O26      1.0000 0.27750  0.59916  0.18120  Biso   1.000  O
  C7       1.0000 0.69560  0.14520  0.32240  Biso   1.000  C
  C8       1.0000 0.30440  0.64520  0.67760  Biso   1.000  C
  H9       1.0000 0.68040  0.10950  0.27350  Biso   1.000  H
  H10      1.0000 0.31960  0.60950  0.72650  Biso   1.000  H
  C9       1.0000 0.96650  0.24730  0.71370  Biso   1.000  C
  C10      1.0000 0.03350  0.74730  0.28630  Biso   1.000  C
  O27      1.0000 0.49430  0.91076  0.29700  Biso   1.000  O
  O28      1.0000 0.50570  0.41076  0.70300  Biso   1.000  O
  H11      1.0000 0.49090  0.87120  0.29150  Biso   1.000  H
  H12      1.0000 0.50910  0.37120  0.70850  Biso   1.000  H
  N3       1.0000 0.70750  0.18306  0.63850  Biso   1.000  N
  N4       1.0000 0.29250  0.68306  0.36150  Biso   1.000  N
  O29      1.0000 0.91140  0.52962  0.00340  Biso   1.000  O
  O30      1.0000 0.08860  0.02962  0.99660  Biso   1.000  O
  C11      1.0000 0.69410  0.13691  0.44200  Biso   1.000  C
  C12      1.0000 0.30590  0.63691  0.55800  Biso   1.000  C
  C13      1.0000 0.68900  0.06887  0.48610  Biso   1.000  C
  C14      1.0000 0.31100  0.56887  0.51390  Biso   1.000  C
  C15      1.0000 0.83130  0.63000  0.66100  Biso   1.000  C
  C16      1.0000 0.16870  0.13000  0.33900  Biso   1.000  C
  O31      1.0000 0.03520  0.30149  0.71460  Biso   1.000  O
  O32      1.0000 0.96480  0.80149  0.28540  Biso   1.000  O
  C17      1.0000 0.76440  0.32609  0.29920  Biso   1.000  C
  C18      1.0000 0.23560  0.82609  0.70080  Biso   1.000  C
  O33      1.0000 0.81800  0.37046  0.36840  Biso   1.000  O
  O34      1.0000 0.18200  0.87046  0.63160  Biso   1.000  O
  O35      1.0000 0.05180  0.19416  0.71830  Biso   1.000  O
  O36      1.0000 0.94820  0.69416  0.28170  Biso   1.000  O
  C19      1.0000 0.56780  0.11030  0.77300  Biso   1.000  C
  C20      1.0000 0.43220  0.61030  0.22700  Biso   1.000  C
  C21      1.0000 0.76800  0.24040  0.70980  Biso   1.000  C
  C22      1.0000 0.23200  0.74040  0.29020  Biso   1.000  C
  H13      1.0000 0.73760  0.23530  0.78800  Biso   1.000  H
  H14      1.0000 0.26240  0.73530  0.21200  Biso   1.000  H
  H15      1.0000 0.70980  0.27900  0.67640  Biso   1.000  H
  H16      1.0000 0.29020  0.77900  0.32360  Biso   1.000  H
  C23      1.0000 0.94800  0.71420  0.98860  Biso   1.000  C
  C24      1.0000 0.05200  0.21420  0.01140  Biso   1.000  C
  C25      1.0000 0.78060  0.66321  0.75640  Biso   1.000  C
  C26      1.0000 0.21940  0.16321  0.24360  Biso   1.000  C
  C27      1.0000 0.70940  0.19156  0.51430  Biso   1.000  C
  C28      1.0000 0.29060  0.69156  0.48570  Biso   1.000  C
  O37      1.0000 0.81400  0.36339  0.97800  Biso   1.000  O
  O38      1.0000 0.18600  0.86339  0.02200  Biso   1.000  O
  H17      1.0000 0.83550  0.38870  0.92730  Biso   1.000  H
  H18      1.0000 0.16450  0.88870  0.07270  Biso   1.000  H
  C29      1.0000 0.73500  0.25173  0.46650  Biso   1.000  C
  C30      1.0000 0.26500  0.75173  0.53350  Biso   1.000  C
  H19      1.0000 0.74900  0.28780  0.51470  Biso   1.000  H
  H20      1.0000 0.25100  0.78780  0.48530  Biso   1.000  H
  C31      1.0000 0.73180  0.72766  0.74400  Biso   1.000  C
  C32      1.0000 0.26820  0.22766  0.25600  Biso   1.000  C
  H21      1.0000 0.70050  0.75010  0.80780  Biso   1.000  H
  H22      1.0000 0.29950  0.25010  0.19220  Biso   1.000  H
  C33      1.0000 0.71950  0.20560  0.27580  Biso   1.000  C
  C34      1.0000 0.28050  0.70560  0.72420  Biso   1.000  C
  H23      1.0000 0.72170  0.21030  0.19640  Biso   1.000  H
  H24      1.0000 0.27830  0.71030  0.80360  Biso   1.000  H
  C35      1.0000 0.67100  0.57363  0.87350  Biso   1.000  C
  C36      1.0000 0.32900  0.07363  0.12650  Biso   1.000  C
  H25      1.0000 0.64950  0.55360  0.79750  Biso   1.000  H
  H26      1.0000 0.35050  0.05360  0.20250  Biso   1.000  H
  H27      1.0000 0.55840  0.58820  0.89470  Biso   1.000  H
  H28      1.0000 0.44160  0.08820  0.10530  Biso   1.000  H
  O39      1.0000 0.10200  0.06066  0.71040  Biso   1.000  O
  O40      1.0000 0.89800  0.56066  0.28960  Biso   1.000  O
  H29      1.0000 0.18120  0.07740  0.75490  Biso   1.000  H
  H30      1.0000 0.81880  0.57740  0.24510  Biso   1.000  H
  O41      1.0000 0.99200  0.44921  0.19280  Biso   1.000  O
  O42      1.0000 0.00800  0.94921  0.80720  Biso   1.000  O
  H31      1.0000 0.01980  0.42890  0.25300  Biso   1.000  H
  H32      1.0000 0.98020  0.92890  0.74700  Biso   1.000  H
  C37      1.0000 0.82350  0.66197  0.55470  Biso   1.000  C
  C38      1.0000 0.17650  0.16197  0.44530  Biso   1.000  C
  H33      1.0000 0.85240  0.63950  0.49030  Biso   1.000  H
  H34      1.0000 0.14760  0.13950  0.50970  Biso   1.000  H
  O43      1.0000 0.87730  0.93021  0.45190  Biso   1.000  O
  O44      1.0000 0.12270  0.43021  0.54810  Biso   1.000  O
  H35      1.0000 0.91640  0.96580  0.43750  Biso   1.000  H
  H36      1.0000 0.08360  0.46580  0.56250  Biso   1.000  H
  C39      1.0000 0.53720  0.15643  0.67050  Biso   1.000  C
  C40      1.0000 0.46280  0.65643  0.32950  Biso   1.000  C
  H37      1.0000 0.47530  0.13380  0.60420  Biso   1.000  H
  H38      1.0000 0.52470  0.63380  0.39580  Biso   1.000  H
  H39      1.0000 0.46280  0.19190  0.68980  Biso   1.000  H
  H40      1.0000 0.53720  0.69190  0.31020  Biso   1.000  H
  C41      1.0000 0.72880  0.75932  0.63840  Biso   1.000  C
  C42      1.0000 0.27120  0.25932  0.36160  Biso   1.000  C
  C43      1.0000 0.90920  0.56315  0.66580  Biso   1.000  C
  C44      1.0000 0.09080  0.06315  0.33420  Biso   1.000  C
  O45      1.0000 0.68960  0.86483  0.71560  Biso   1.000  O
  O46      1.0000 0.31040  0.36483  0.28440  Biso   1.000  O
  O47      1.0000 0.27160  0.44855  0.87300  Biso   1.000  O
  O48      1.0000 0.72840  0.94855  0.12700  Biso   1.000  O
  O49      1.0000 0.94370  0.77065  0.02070  Biso   1.000  O
  O50      1.0000 0.05630  0.27065  0.97930  Biso   1.000  O
  C45      1.0000 0.78140  0.67416  0.96850  Biso   1.000  C
  C46      1.0000 0.21860  0.17416  0.03150  Biso   1.000  C
  H41      1.0000 0.76810  0.64900  0.03740  Biso   1.000  H
  H42      1.0000 0.23190  0.14900  0.96260  Biso   1.000  H
  H43      1.0000 0.67930  0.70220  0.95240  Biso   1.000  H
  H44      1.0000 0.32070  0.20220  0.04760  Biso   1.000  H
  C47      1.0000 0.68080  0.83058  0.62790  Biso   1.000  C
  C48      1.0000 0.31920  0.33058  0.37210  Biso   1.000  C
  O51      1.0000 0.57690  0.24130  0.97640  Biso   1.000  O
  O52      1.0000 0.42310  0.74130  0.02360  Biso   1.000  O
  O53      1.0000 0.39840  0.29554  0.77170  Biso   1.000  O
  O54      1.0000 0.60160  0.79554  0.22830  Biso   1.000  O
  H45      1.0000 0.30800  0.57070  0.02010  Biso   1.000  H
  H46      1.0000 0.69200  0.07070  0.97990  Biso   1.000  H
  H47      1.0000 0.43600  0.28600  0.84100  Biso   1.000  H
  H48      1.0000 0.56400  0.78600  0.15900  Biso   1.000  H
  H49      1.0000 0.29300  0.29600  0.75700  Biso   1.000  H
  H50      1.0000 0.70700  0.79600  0.24300  Biso   1.000  H
  O55      1.0000 0.87580  0.41338  0.77440  Biso   1.000  O
  O56      1.0000 0.12420  0.91338  0.22560  Biso   1.000  O
  O57      1.0000 0.34810  0.35140  0.04090  Biso   1.000  O
  O58      1.0000 0.65190  0.85140  0.95910  Biso   1.000  O
  H51      1.0000 0.31800  0.42500  0.92600  Biso   1.000  H
  H52      1.0000 0.68200  0.92500  0.07400  Biso   1.000  H
  H53      1.0000 0.24500  0.35000  0.01100  Biso   1.000  H
  H54      1.0000 0.75500  0.85000  0.98900  Biso   1.000  H
  H55      1.0000 0.59000  0.26100  0.03900  Biso   1.000  H
  H56      1.0000 0.41000  0.76100  0.96100  Biso   1.000  H
  H57      1.0000 0.89000  0.37800  0.74600  Biso   1.000  H
  H58      1.0000 0.11000  0.87800  0.25400  Biso   1.000  H
