data_image0
_cell_length_a       8.903
_cell_length_b       23.565
_cell_length_c       8.164
_cell_angle_alpha    90
_cell_angle_beta     111.178
_cell_angle_gamma    90

_symmetry_space_group_name_H-M    "P 1"
_symmetry_int_tables_number       1

loop_
  _symmetry_equiv_pos_as_xyz
  'x, y, z'

loop_
  _atom_site_label
  _atom_site_occupancy
  _atom_site_fract_x
  _atom_site_fract_y
  _atom_site_fract_z
  _atom_site_thermal_displace_type
  _atom_site_B_iso_or_equiv
  _atom_site_type_symbol
  Cu1      1.0000 0.44327  0.60645  0.31416  Biso   1.000  Cu
  Cu2      1.0000 0.55673  0.10645  0.18584  Biso   1.000  Cu
  Cu3      1.0000 0.55673  0.39355  0.68584  Biso   1.000  Cu
  Cu4      1.0000 0.44327  0.89355  0.81416  Biso   1.000  Cu
  Cu5      1.0000 0.00000  0.50000  0.50000  Biso   1.000  Cu
  Cu6      1.0000 0.00000  0.00000  0.00000  Biso   1.000  Cu
  N1       1.0000 0.52450  0.62703  0.57390  Biso   1.000  N
  N2       1.0000 0.47550  0.12703  0.92610  Biso   1.000  N
  N3       1.0000 0.47550  0.37297  0.42610  Biso   1.000  N
  N4       1.0000 0.52450  0.87297  0.07390  Biso   1.000  N
  O1       1.0000 0.29560  0.66954  0.26280  Biso   1.000  O
  O2       1.0000 0.70440  0.16954  0.23720  Biso   1.000  O
  O3       1.0000 0.70440  0.33046  0.73720  Biso   1.000  O
  O4       1.0000 0.29560  0.83046  0.76280  Biso   1.000  O
  O5       1.0000 0.23000  0.75909  0.27800  Biso   1.000  O
  O6       1.0000 0.77000  0.25909  0.22200  Biso   1.000  O
  O7       1.0000 0.77000  0.24091  0.72200  Biso   1.000  O
  O8       1.0000 0.23000  0.74091  0.77800  Biso   1.000  O
  O9       1.0000 0.96350  0.82505  0.93120  Biso   1.000  O
  O10      1.0000 0.03650  0.32505  0.56880  Biso   1.000  O
  O11      1.0000 0.03650  0.17495  0.06880  Biso   1.000  O
  O12      1.0000 0.96350  0.67495  0.43120  Biso   1.000  O
  O13      1.0000 0.98520  0.73390  0.00550  Biso   1.000  O
  O14      1.0000 0.01480  0.23390  0.49450  Biso   1.000  O
  O15      1.0000 0.01480  0.26610  0.99450  Biso   1.000  O
  O16      1.0000 0.98520  0.76610  0.50550  Biso   1.000  O
  H1       1.0000 0.04830  0.74560  0.09990  Biso   1.000  H
  H2       1.0000 0.95170  0.24560  0.40010  Biso   1.000  H
  H3       1.0000 0.95170  0.25440  0.90010  Biso   1.000  H
  H4       1.0000 0.04830  0.75440  0.59990  Biso   1.000  H
  O17      1.0000 0.30090  0.54840  0.40590  Biso   1.000  O
  O18      1.0000 0.69910  0.04840  0.09410  Biso   1.000  O
  O19      1.0000 0.69910  0.45160  0.59410  Biso   1.000  O
  O20      1.0000 0.30090  0.95160  0.90590  Biso   1.000  O
  O21      1.0000 0.17990  0.55172  0.60330  Biso   1.000  O
  O22      1.0000 0.82010  0.05172  0.89670  Biso   1.000  O
  O23      1.0000 0.82010  0.44828  0.39670  Biso   1.000  O
  O24      1.0000 0.17990  0.94828  0.10330  Biso   1.000  O
  O25      1.0000 0.36860  0.58340  0.06850  Biso   1.000  O
  O26      1.0000 0.63140  0.08340  0.43150  Biso   1.000  O
  O27      1.0000 0.63140  0.41660  0.93150  Biso   1.000  O
  O28      1.0000 0.36860  0.91660  0.56850  Biso   1.000  O
  H5       1.0000 0.27600  0.59450  0.01830  Biso   1.000  H
  H6       1.0000 0.72400  0.09450  0.48170  Biso   1.000  H
  H7       1.0000 0.72400  0.40550  0.98170  Biso   1.000  H
  H8       1.0000 0.27600  0.90550  0.51830  Biso   1.000  H
  O29      1.0000 0.65380  0.57018  0.36410  Biso   1.000  O
  O30      1.0000 0.34620  0.07018  0.13590  Biso   1.000  O
  O31      1.0000 0.34620  0.42982  0.63590  Biso   1.000  O
  O32      1.0000 0.65380  0.92982  0.86410  Biso   1.000  O
  O33      1.0000 0.88030  0.55240  0.59190  Biso   1.000  O
  O34      1.0000 0.11970  0.05240  0.90810  Biso   1.000  O
  O35      1.0000 0.11970  0.44760  0.40810  Biso   1.000  O
  O36      1.0000 0.88030  0.94760  0.09190  Biso   1.000  O
  O37      1.0000 0.94500  0.56700  0.23380  Biso   1.000  O
  O38      1.0000 0.05500  0.06700  0.26620  Biso   1.000  O
  O39      1.0000 0.05500  0.43300  0.76620  Biso   1.000  O
  O40      1.0000 0.94500  0.93300  0.73380  Biso   1.000  O
  C1       1.0000 0.32300  0.71811  0.33510  Biso   1.000  C
  C2       1.0000 0.67700  0.21811  0.16490  Biso   1.000  C
  C3       1.0000 0.67700  0.28189  0.66490  Biso   1.000  C
  C4       1.0000 0.32300  0.78189  0.83510  Biso   1.000  C
  C5       1.0000 0.47560  0.72911  0.49170  Biso   1.000  C
  C6       1.0000 0.52440  0.22911  0.00830  Biso   1.000  C
  C7       1.0000 0.52440  0.27089  0.50830  Biso   1.000  C
  C8       1.0000 0.47560  0.77089  0.99170  Biso   1.000  C
  C9       1.0000 0.52090  0.78558  0.52620  Biso   1.000  C
  C10      1.0000 0.47910  0.28558  0.97380  Biso   1.000  C
  C11      1.0000 0.47910  0.21442  0.47380  Biso   1.000  C
  C12      1.0000 0.52090  0.71442  0.02620  Biso   1.000  C
  H9       1.0000 0.45340  0.81360  0.45820  Biso   1.000  H
  H10      1.0000 0.54660  0.31360  0.04180  Biso   1.000  H
  H11      1.0000 0.54660  0.18640  0.54180  Biso   1.000  H
  H12      1.0000 0.45340  0.68640  0.95820  Biso   1.000  H
  C13      1.0000 0.66200  0.80151  0.65740  Biso   1.000  C
  C14      1.0000 0.33800  0.30151  0.84260  Biso   1.000  C
  C15      1.0000 0.33800  0.19849  0.34260  Biso   1.000  C
  C16      1.0000 0.66200  0.69849  0.15740  Biso   1.000  C
  H13      1.0000 0.69000  0.83960  0.67610  Biso   1.000  H
  H14      1.0000 0.31000  0.33960  0.82390  Biso   1.000  H
  H15      1.0000 0.31000  0.16040  0.32390  Biso   1.000  H
  H16      1.0000 0.69000  0.66040  0.17610  Biso   1.000  H
  C17      1.0000 0.76190  0.76007  0.76150  Biso   1.000  C
  C18      1.0000 0.23810  0.26007  0.73850  Biso   1.000  C
  C19      1.0000 0.23810  0.23993  0.23850  Biso   1.000  C
  C20      1.0000 0.76190  0.73993  0.26150  Biso   1.000  C
  C21      1.0000 0.71760  0.70289  0.73240  Biso   1.000  C
  C22      1.0000 0.28240  0.20289  0.76760  Biso   1.000  C
  C23      1.0000 0.28240  0.29711  0.26760  Biso   1.000  C
  C24      1.0000 0.71760  0.79711  0.23240  Biso   1.000  C
  H17      1.0000 0.78410  0.67520  0.80340  Biso   1.000  H
  H18      1.0000 0.21590  0.17520  0.69660  Biso   1.000  H
  H19      1.0000 0.21590  0.32480  0.19660  Biso   1.000  H
  H20      1.0000 0.78410  0.82480  0.30340  Biso   1.000  H
  C25      1.0000 0.57570  0.68686  0.59900  Biso   1.000  C
  C26      1.0000 0.42430  0.18686  0.90100  Biso   1.000  C
  C27      1.0000 0.42430  0.31314  0.40100  Biso   1.000  C
  C28      1.0000 0.57570  0.81314  0.09900  Biso   1.000  C
  C29      1.0000 0.91370  0.77687  0.90730  Biso   1.000  C
  C30      1.0000 0.08630  0.27687  0.59270  Biso   1.000  C
  C31      1.0000 0.08630  0.22313  0.09270  Biso   1.000  C
  C32      1.0000 0.91370  0.72313  0.40730  Biso   1.000  C
  C33      1.0000 0.38930  0.61664  0.63810  Biso   1.000  C
  C34      1.0000 0.61070  0.11664  0.86190  Biso   1.000  C
  C35      1.0000 0.61070  0.38336  0.36190  Biso   1.000  C
  C36      1.0000 0.38930  0.88336  0.13810  Biso   1.000  C
  H21      1.0000 0.32480  0.65080  0.62250  Biso   1.000  H
  H22      1.0000 0.67520  0.15080  0.87750  Biso   1.000  H
  H23      1.0000 0.67520  0.34920  0.37750  Biso   1.000  H
  H24      1.0000 0.32480  0.84920  0.12250  Biso   1.000  H
  H25      1.0000 0.43320  0.60790  0.76270  Biso   1.000  H
  H26      1.0000 0.56680  0.10790  0.73730  Biso   1.000  H
  H27      1.0000 0.56680  0.39210  0.23730  Biso   1.000  H
  H28      1.0000 0.43320  0.89210  0.26270  Biso   1.000  H
  C37      1.0000 0.28240  0.56755  0.53930  Biso   1.000  C
  C38      1.0000 0.71760  0.06755  0.96070  Biso   1.000  C
  C39      1.0000 0.71760  0.43245  0.46070  Biso   1.000  C
  C40      1.0000 0.28240  0.93245  0.03930  Biso   1.000  C
  C41      1.0000 0.65520  0.58452  0.65260  Biso   1.000  C
  C42      1.0000 0.34480  0.08452  0.84740  Biso   1.000  C
  C43      1.0000 0.34480  0.41548  0.34740  Biso   1.000  C
  C44      1.0000 0.65520  0.91548  0.15260  Biso   1.000  C
  H29      1.0000 0.60970  0.55070  0.68400  Biso   1.000  H
  H30      1.0000 0.39030  0.05070  0.81600  Biso   1.000  H
  H31      1.0000 0.39030  0.44930  0.31600  Biso   1.000  H
  H32      1.0000 0.60970  0.94930  0.18400  Biso   1.000  H
  H33      1.0000 0.73390  0.60000  0.75920  Biso   1.000  H
  H34      1.0000 0.26610  0.10000  0.74080  Biso   1.000  H
  H35      1.0000 0.26610  0.40000  0.24080  Biso   1.000  H
  H36      1.0000 0.73390  0.90000  0.25920  Biso   1.000  H
  C45      1.0000 0.73810  0.56881  0.52590  Biso   1.000  C
  C46      1.0000 0.26190  0.06881  0.97410  Biso   1.000  C
  C47      1.0000 0.26190  0.43119  0.47410  Biso   1.000  C
  C48      1.0000 0.73810  0.93119  0.02590  Biso   1.000  C
  C49      1.0000 0.95000  0.60470  0.10820  Biso   1.000  C
  C50      1.0000 0.05000  0.10470  0.39180  Biso   1.000  C
  C51      1.0000 0.05000  0.39530  0.89180  Biso   1.000  C
  C52      1.0000 0.95000  0.89530  0.60820  Biso   1.000  C
  O41      1.0000 0.09890  0.63131  0.85450  Biso   1.000  O
  O42      1.0000 0.90110  0.13131  0.64550  Biso   1.000  O
  O43      1.0000 0.90110  0.36869  0.14550  Biso   1.000  O
  O44      1.0000 0.09890  0.86869  0.35450  Biso   1.000  O
  H37      1.0000 0.11100  0.61100  0.77900  Biso   1.000  H
  H38      1.0000 0.88900  0.11100  0.72100  Biso   1.000  H
  H39      1.0000 0.88900  0.38900  0.22100  Biso   1.000  H
  H40      1.0000 0.11100  0.88900  0.27900  Biso   1.000  H
  H41      1.0000 0.11000  0.66490  0.84400  Biso   1.000  H
  H42      1.0000 0.89000  0.16490  0.65600  Biso   1.000  H
  H43      1.0000 0.89000  0.33510  0.15600  Biso   1.000  H
  H44      1.0000 0.11000  0.83510  0.34400  Biso   1.000  H
  O45      1.0000 0.33140  0.47400  0.97870  Biso   1.000  O
  O46      1.0000 0.66860  0.97400  0.52130  Biso   1.000  O
  O47      1.0000 0.66860  0.52600  0.02130  Biso   1.000  O
  O48      1.0000 0.33140  0.02600  0.47870  Biso   1.000  O
  H45      1.0000 0.32900  0.49700  0.05800  Biso   1.000  H
  H46      1.0000 0.67100  0.99700  0.44200  Biso   1.000  H
  H47      1.0000 0.67100  0.50300  0.94200  Biso   1.000  H
  H48      1.0000 0.32900  0.00300  0.55800  Biso   1.000  H
  H49      1.0000 0.24100  0.47500  0.89200  Biso   1.000  H
  H50      1.0000 0.75900  0.97500  0.60800  Biso   1.000  H
  H51      1.0000 0.75900  0.52500  0.10800  Biso   1.000  H
  H52      1.0000 0.24100  0.02500  0.39200  Biso   1.000  H
