data_image0
_cell_length_a       7.5793
_cell_length_b       10.4791
_cell_length_c       11.0258
_cell_angle_alpha    109.295
_cell_angle_beta     107.267
_cell_angle_gamma    104.026

_symmetry_space_group_name_H-M    "P 1"
_symmetry_int_tables_number       1

loop_
  _symmetry_equiv_pos_as_xyz
  'x, y, z'

loop_
  _atom_site_label
  _atom_site_occupancy
  _atom_site_fract_x
  _atom_site_fract_y
  _atom_site_fract_z
  _atom_site_thermal_displace_type
  _atom_site_B_iso_or_equiv
  _atom_site_type_symbol
  Cu1      1.0000 0.35764  0.12742  0.24999  Biso   1.000  Cu
  Cu2      1.0000 0.64236  0.87258  0.75001  Biso   1.000  Cu
  N1       1.0000 0.07010  0.25880  0.20560  Biso   1.000  N
  N2       1.0000 0.92990  0.74120  0.79440  Biso   1.000  N
  N3       1.0000 0.59960  0.09350  0.34370  Biso   1.000  N
  N4       1.0000 0.40040  0.90650  0.65630  Biso   1.000  N
  O1       1.0000 0.38440  0.25950  0.43263  Biso   1.000  O
  O2       1.0000 0.61560  0.74050  0.56737  Biso   1.000  O
  O3       1.0000 0.30750  0.41500  0.57771  Biso   1.000  O
  O4       1.0000 0.69250  0.58500  0.42229  Biso   1.000  O
  O5       1.0000 0.09590  0.13258  0.16839  Biso   1.000  O
  O6       1.0000 0.90410  0.86742  0.83161  Biso   1.000  O
  O7       1.0000 0.71540  0.03777  0.93069  Biso   1.000  O
  O8       1.0000 0.28460  0.96223  0.06931  Biso   1.000  O
  O9       1.0000 0.92360  0.16680  0.86967  Biso   1.000  O
  O10      1.0000 0.07640  0.83320  0.13033  Biso   1.000  O
  O11      1.0000 0.52300  0.29670  0.20390  Biso   1.000  O
  O12      1.0000 0.47700  0.70330  0.79610  Biso   1.000  O
  O13      1.0000 0.47300  0.63570  0.18920  Biso   1.000  O
  O14      1.0000 0.52700  0.36430  0.81080  Biso   1.000  O
  O15      1.0000 0.68310  0.65540  0.02090  Biso   1.000  O
  O16      1.0000 0.31690  0.34460  0.97910  Biso   1.000  O
  C1       1.0000 0.29310  0.34380  0.45960  Biso   1.000  C
  C2       1.0000 0.70690  0.65620  0.54040  Biso   1.000  C
  C3       1.0000 0.15720  0.36400  0.34030  Biso   1.000  C
  C4       1.0000 0.84280  0.63600  0.65970  Biso   1.000  C
  C5       1.0000 0.11930  0.49080  0.36850  Biso   1.000  C
  C6       1.0000 0.88070  0.50920  0.63150  Biso   1.000  C
  H1       1.0000 0.17650  0.56330  0.46050  Biso   1.000  H
  H2       1.0000 0.82350  0.43670  0.53950  Biso   1.000  H
  C7       1.0000 0.99680  0.51060  0.26090  Biso   1.000  C
  C8       1.0000 0.00320  0.48940  0.73910  Biso   1.000  C
  H3       1.0000 0.97370  0.59680  0.27970  Biso   1.000  H
  H4       1.0000 0.02630  0.40320  0.72030  Biso   1.000  H
  C9       1.0000 0.91020  0.40180  0.12660  Biso   1.000  C
  C10      1.0000 0.08980  0.59820  0.87340  Biso   1.000  C
  H5       1.0000 0.82710  0.41380  0.05360  Biso   1.000  H
  H6       1.0000 0.17290  0.58620  0.94640  Biso   1.000  H
  C11      1.0000 0.94540  0.27430  0.09890  Biso   1.000  C
  C12      1.0000 0.05460  0.72570  0.90110  Biso   1.000  C
  C13      1.0000 0.85590  0.14870  0.95370  Biso   1.000  C
  C14      1.0000 0.14410  0.85130  0.04630  Biso   1.000  C
  C15      1.0000 0.66180  0.11430  0.47830  Biso   1.000  C
  C16      1.0000 0.33820  0.88570  0.52170  Biso   1.000  C
  H7       1.0000 0.59700  0.15430  0.53110  Biso   1.000  H
  H8       1.0000 0.40300  0.84570  0.46890  Biso   1.000  H
  C17      1.0000 0.81560  0.07990  0.54230  Biso   1.000  C
  C18      1.0000 0.18440  0.92010  0.45770  Biso   1.000  C
  H9       1.0000 0.85210  0.09610  0.63600  Biso   1.000  H
  H10      1.0000 0.14790  0.90390  0.36400  Biso   1.000  H
  C19      1.0000 0.91790  0.02050  0.46740  Biso   1.000  C
  C20      1.0000 0.08210  0.97950  0.53260  Biso   1.000  C
  C21      1.0000 0.85700  0.00400  0.32860  Biso   1.000  C
  C22      1.0000 0.14300  0.99600  0.67140  Biso   1.000  C
  H11      1.0000 0.92300  0.96830  0.27450  Biso   1.000  H
  H12      1.0000 0.07700  0.03170  0.72550  Biso   1.000  H
  C23      1.0000 0.70030  0.04010  0.27190  Biso   1.000  C
  C24      1.0000 0.29970  0.95990  0.72810  Biso   1.000  C
  H13      1.0000 0.66190  0.02690  0.17890  Biso   1.000  H
  H14      1.0000 0.33810  0.97310  0.82110  Biso   1.000  H
  H15      1.0000 0.58900  0.38390  0.26500  Biso   1.000  H
  H16      1.0000 0.41100  0.61610  0.73500  Biso   1.000  H
  H17      1.0000 0.45900  0.30200  0.12900  Biso   1.000  H
  H18      1.0000 0.54100  0.69800  0.87100  Biso   1.000  H
  H19      1.0000 0.55300  0.64100  0.26400  Biso   1.000  H
  H20      1.0000 0.44700  0.35900  0.73600  Biso   1.000  H
  H21      1.0000 0.43000  0.54450  0.14100  Biso   1.000  H
  H22      1.0000 0.57000  0.45550  0.85900  Biso   1.000  H
  H23      1.0000 0.80300  0.71300  0.06400  Biso   1.000  H
  H24      1.0000 0.19700  0.28700  0.93600  Biso   1.000  H
  H25      1.0000 0.62900  0.66400  0.07800  Biso   1.000  H
  H26      1.0000 0.37100  0.33600  0.92200  Biso   1.000  H
