data_image0
_cell_length_a       8.2803
_cell_length_b       10.3542
_cell_length_c       11.1326
_cell_angle_alpha    113.727
_cell_angle_beta     104.282
_cell_angle_gamma    100.255

_symmetry_space_group_name_H-M    "P 1"
_symmetry_int_tables_number       1

loop_
  _symmetry_equiv_pos_as_xyz
  'x, y, z'

loop_
  _atom_site_label
  _atom_site_occupancy
  _atom_site_fract_x
  _atom_site_fract_y
  _atom_site_fract_z
  _atom_site_thermal_displace_type
  _atom_site_B_iso_or_equiv
  _atom_site_type_symbol
  Cu1      1.0000 0.19610  0.10191  0.85793  Biso   1.000  Cu
  Cu2      1.0000 0.80390  0.89809  0.14207  Biso   1.000  Cu
  O1       1.0000 0.22190  0.88100  0.72071  Biso   1.000  O
  O2       1.0000 0.77810  0.11900  0.27929  Biso   1.000  O
  H1       1.0000 0.14290  0.82190  0.72100  Biso   1.000  H
  H2       1.0000 0.85710  0.17810  0.27900  Biso   1.000  H
  H3       1.0000 0.20440  0.86320  0.63550  Biso   1.000  H
  H4       1.0000 0.79560  0.13680  0.36450  Biso   1.000  H
  O3       1.0000 0.09140  0.14520  0.70850  Biso   1.000  O
  O4       1.0000 0.90860  0.85480  0.29150  Biso   1.000  O
  O5       1.0000 0.87410  0.15500  0.55510  Biso   1.000  O
  O6       1.0000 0.12590  0.84500  0.44490  Biso   1.000  O
  O7       1.0000 0.96538  0.01770  0.85253  Biso   1.000  O
  O8       1.0000 0.03462  0.98230  0.14747  Biso   1.000  O
  N1       1.0000 0.43340  0.21370  0.88360  Biso   1.000  N
  N2       1.0000 0.56660  0.78630  0.11640  Biso   1.000  N
  N3       1.0000 0.82500  0.94470  0.73600  Biso   1.000  N
  N4       1.0000 0.17500  0.05530  0.26400  Biso   1.000  N
  C1       1.0000 0.93260  0.10330  0.63180  Biso   1.000  C
  C2       1.0000 0.06740  0.89670  0.36820  Biso   1.000  C
  C3       1.0000 0.79910  0.97710  0.62730  Biso   1.000  C
  C4       1.0000 0.20090  0.02290  0.37270  Biso   1.000  C
  C5       1.0000 0.64600  0.89550  0.51310  Biso   1.000  C
  C6       1.0000 0.35400  0.10450  0.48690  Biso   1.000  C
  H5       1.0000 0.62680  0.91540  0.43720  Biso   1.000  H
  H6       1.0000 0.37320  0.08460  0.56280  Biso   1.000  H
  C7       1.0000 0.52100  0.78540  0.50900  Biso   1.000  C
  C8       1.0000 0.47900  0.21460  0.49100  Biso   1.000  C
  H7       1.0000 0.41840  0.73090  0.43110  Biso   1.000  H
  H8       1.0000 0.58160  0.26910  0.56890  Biso   1.000  H
  C9       1.0000 0.54950  0.75650  0.62160  Biso   1.000  C
  C10      1.0000 0.45050  0.24350  0.37840  Biso   1.000  C
  H9       1.0000 0.46600  0.68270  0.62070  Biso   1.000  H
  H10      1.0000 0.53400  0.31730  0.37930  Biso   1.000  H
  C11      1.0000 0.70230  0.83780  0.73520  Biso   1.000  C
  C12      1.0000 0.29770  0.16220  0.26480  Biso   1.000  C
  C13      1.0000 0.57110  0.17300  0.93040  Biso   1.000  C
  C14      1.0000 0.42890  0.82700  0.06960  Biso   1.000  C
  H11      1.0000 0.55150  0.09590  0.95320  Biso   1.000  H
  H12      1.0000 0.44850  0.90410  0.04680  Biso   1.000  H
  C15      1.0000 0.73850  0.23940  0.94630  Biso   1.000  C
  C16      1.0000 0.26150  0.76060  0.05370  Biso   1.000  C
  H13      1.0000 0.82960  0.20690  0.97860  Biso   1.000  H
  H14      1.0000 0.17040  0.79310  0.02140  Biso   1.000  H
  C17      1.0000 0.77200  0.35500  0.91400  Biso   1.000  C
  C18      1.0000 0.22800  0.64500  0.08600  Biso   1.000  C
  C19      1.0000 0.95500  0.43150  0.92990  Biso   1.000  C
  C20      1.0000 0.04500  0.56850  0.07010  Biso   1.000  C
  H15      1.0000 0.02330  0.36330  0.92080  Biso   1.000  H
  H16      1.0000 0.97670  0.63670  0.07920  Biso   1.000  H
  H17      1.0000 0.94890  0.45890  0.85560  Biso   1.000  H
  H18      1.0000 0.05110  0.54110  0.14440  Biso   1.000  H
  C21      1.0000 0.63110  0.39960  0.86880  Biso   1.000  C
  C22      1.0000 0.36890  0.60040  0.13120  Biso   1.000  C
  H19      1.0000 0.64760  0.47810  0.84780  Biso   1.000  H
  H20      1.0000 0.35240  0.52190  0.15220  Biso   1.000  H
  C23      1.0000 0.46570  0.32650  0.85520  Biso   1.000  C
  C24      1.0000 0.53430  0.67350  0.14480  Biso   1.000  C
  H21      1.0000 0.37250  0.35790  0.82470  Biso   1.000  H
  H22      1.0000 0.62750  0.64210  0.17530  Biso   1.000  H
  O9       1.0000 0.15650  0.41910  0.61430  Biso   1.000  O
  O10      1.0000 0.84350  0.58090  0.38570  Biso   1.000  O
  O11      1.0000 0.03100  0.37580  0.33390  Biso   1.000  O
  O12      1.0000 0.96900  0.62420  0.66610  Biso   1.000  O
  C25      1.0000 0.74530  0.81580  0.86520  Biso   1.000  C
  C26      1.0000 0.25470  0.18420  0.13480  Biso   1.000  C
  O13      1.0000 0.71471  0.90660  0.96613  Biso   1.000  O
  O14      1.0000 0.28529  0.09340  0.03387  Biso   1.000  O
  O15      1.0000 0.80190  0.71180  0.85992  Biso   1.000  O
  O16      1.0000 0.19810  0.28820  0.14008  Biso   1.000  O
  H23      1.0000 0.08800  0.36300  0.28000  Biso   1.000  H
  H24      1.0000 0.91200  0.63700  0.72000  Biso   1.000  H
  H25      1.0000 0.09100  0.45000  0.41400  Biso   1.000  H
  H26      1.0000 0.90900  0.55000  0.58600  Biso   1.000  H
  H27      1.0000 0.07300  0.35000  0.59400  Biso   1.000  H
  H28      1.0000 0.92700  0.65000  0.40600  Biso   1.000  H
  H29      1.0000 0.13900  0.49900  0.62900  Biso   1.000  H
  H30      1.0000 0.86100  0.50100  0.37100  Biso   1.000  H
