data_image0
_cell_length_a       8.569
_cell_length_b       10.442
_cell_length_c       10.694
_cell_angle_alpha    109.441
_cell_angle_beta     109.313
_cell_angle_gamma    102.054

_symmetry_space_group_name_H-M    "P 1"
_symmetry_int_tables_number       1

loop_
  _symmetry_equiv_pos_as_xyz
  'x, y, z'

loop_
  _atom_site_label
  _atom_site_occupancy
  _atom_site_fract_x
  _atom_site_fract_y
  _atom_site_fract_z
  _atom_site_thermal_displace_type
  _atom_site_B_iso_or_equiv
  _atom_site_type_symbol
  C1       1.0000 0.20980  0.03360  0.14180  Biso   1.000  C
  C2       1.0000 0.79020  0.96640  0.85820  Biso   1.000  C
  C3       1.0000 0.33540  0.14940  0.12780  Biso   1.000  C
  C4       1.0000 0.66460  0.85060  0.87220  Biso   1.000  C
  C5       1.0000 0.37300  0.11330  0.00740  Biso   1.000  C
  C6       1.0000 0.62700  0.88670  0.99260  Biso   1.000  C
  H1       1.0000 0.31920  0.01820  0.93400  Biso   1.000  H
  H2       1.0000 0.68080  0.98180  0.06600  Biso   1.000  H
  C7       1.0000 0.48740  0.21410  0.99380  Biso   1.000  C
  C8       1.0000 0.51260  0.78590  0.00620  Biso   1.000  C
  H3       1.0000 0.50930  0.18840  0.91090  Biso   1.000  H
  H4       1.0000 0.49070  0.81160  0.08910  Biso   1.000  H
  C9       1.0000 0.57140  0.35570  0.10480  Biso   1.000  C
  C10      1.0000 0.42860  0.64430  0.89520  Biso   1.000  C
  H5       1.0000 0.65160  0.42500  0.09780  Biso   1.000  H
  H6       1.0000 0.34840  0.57500  0.90220  Biso   1.000  H
  C11      1.0000 0.53430  0.39220  0.22550  Biso   1.000  C
  C12      1.0000 0.46570  0.60780  0.77450  Biso   1.000  C
  N1       1.0000 0.41670  0.28910  0.23350  Biso   1.000  N
  N2       1.0000 0.58330  0.71090  0.76650  Biso   1.000  N
  C13      1.0000 0.62140  0.54240  0.35280  Biso   1.000  C
  C14      1.0000 0.37860  0.45760  0.64720  Biso   1.000  C
  C15      1.0000 0.87620  0.27670  0.43240  Biso   1.000  C
  C16      1.0000 0.12380  0.72330  0.56760  Biso   1.000  C
  H7       1.0000 0.91650  0.37070  0.44150  Biso   1.000  H
  H8       1.0000 0.08350  0.62930  0.55850  Biso   1.000  H
  C17      1.0000 0.73830  0.23810  0.46710  Biso   1.000  C
  C18      1.0000 0.26170  0.76190  0.53290  Biso   1.000  C
  H9       1.0000 0.68800  0.30560  0.49960  Biso   1.000  H
  H10      1.0000 0.31200  0.69440  0.50040  Biso   1.000  H
  C19      1.0000 0.67420  0.09890  0.45380  Biso   1.000  C
  C20      1.0000 0.32580  0.90110  0.54620  Biso   1.000  C
  C21      1.0000 0.75420  0.00210  0.40250  Biso   1.000  C
  C22      1.0000 0.24580  0.99790  0.59750  Biso   1.000  C
  H11      1.0000 0.71420  0.90680  0.38990  Biso   1.000  H
  H12      1.0000 0.28580  0.09320  0.61010  Biso   1.000  H
  C23      1.0000 0.89200  0.04940  0.37100  Biso   1.000  C
  C24      1.0000 0.10800  0.95060  0.62900  Biso   1.000  C
  H13      1.0000 0.94420  0.98400  0.33740  Biso   1.000  H
  H14      1.0000 0.05580  0.01600  0.66260  Biso   1.000  H
  C25      1.0000 0.53070  0.06110  0.49670  Biso   1.000  C
  C26      1.0000 0.46930  0.93890  0.50330  Biso   1.000  C
  H15      1.0000 0.47910  0.13000  0.52110  Biso   1.000  H
  H16      1.0000 0.52090  0.87000  0.47890  Biso   1.000  H
  Cu1      1.0000 0.16858  0.26150  0.35873  Biso   1.000  Cu
  Cu2      1.0000 0.83142  0.73850  0.64127  Biso   1.000  Cu
  H17      1.0000 0.07800  0.40800  0.19900  Biso   1.000  H
  H18      1.0000 0.92200  0.59200  0.80100  Biso   1.000  H
  H19      1.0000 0.96200  0.27800  0.11900  Biso   1.000  H
  H20      1.0000 0.03800  0.72200  0.88100  Biso   1.000  H
  H21      1.0000 0.18000  0.60700  0.12800  Biso   1.000  H
  H22      1.0000 0.82000  0.39300  0.87200  Biso   1.000  H
  H23      1.0000 0.31700  0.56100  0.18800  Biso   1.000  H
  H24      1.0000 0.68300  0.43900  0.81200  Biso   1.000  H
  H25      1.0000 0.04100  0.38400  0.89700  Biso   1.000  H
  H26      1.0000 0.95900  0.61600  0.10300  Biso   1.000  H
  H27      1.0000 0.07300  0.29400  0.79500  Biso   1.000  H
  H28      1.0000 0.92700  0.70600  0.20500  Biso   1.000  H
  N3       1.0000 0.95520  0.18570  0.38630  Biso   1.000  N
  N4       1.0000 0.04480  0.81430  0.61370  Biso   1.000  N
  O1       1.0000 0.12750  0.06920  0.21850  Biso   1.000  O
  O2       1.0000 0.87250  0.93080  0.78150  Biso   1.000  O
  O3       1.0000 0.19440  0.90750  0.07170  Biso   1.000  O
  O4       1.0000 0.80560  0.09250  0.92830  Biso   1.000  O
  O5       1.0000 0.39400  0.33430  0.35660  Biso   1.000  O
  O6       1.0000 0.60600  0.66570  0.64340  Biso   1.000  O
  O7       1.0000 0.56800  0.63940  0.33460  Biso   1.000  O
  O8       1.0000 0.43200  0.36060  0.66540  Biso   1.000  O
  O9       1.0000 0.74580  0.55530  0.46480  Biso   1.000  O
  O10      1.0000 0.25420  0.44470  0.53520  Biso   1.000  O
  O11      1.0000 0.01870  0.33920  0.20170  Biso   1.000  O
  O12      1.0000 0.98130  0.66080  0.79830  Biso   1.000  O
  O13      1.0000 0.21350  0.54120  0.13670  Biso   1.000  O
  O14      1.0000 0.78650  0.45880  0.86330  Biso   1.000  O
  O15      1.0000 0.00820  0.28660  0.84320  Biso   1.000  O
  O16      1.0000 0.99180  0.71340  0.15680  Biso   1.000  O
