data_image0
_cell_length_a       4.9739
_cell_length_b       8.8459
_cell_length_c       9.1479
_cell_angle_alpha    93.829
_cell_angle_beta     94.93
_cell_angle_gamma    103.061

_symmetry_space_group_name_H-M    "P 1"
_symmetry_int_tables_number       1

loop_
  _symmetry_equiv_pos_as_xyz
  'x, y, z'

loop_
  _atom_site_label
  _atom_site_occupancy
  _atom_site_fract_x
  _atom_site_fract_y
  _atom_site_fract_z
  _atom_site_thermal_displace_type
  _atom_site_B_iso_or_equiv
  _atom_site_type_symbol
  Ag1      1.0000 0.57616  0.95094  0.33474  Biso   1.000  Ag
  Ag2      1.0000 0.42384  0.04906  0.66526  Biso   1.000  Ag
  Cu1      1.0000 0.00000  0.00000  0.00000  Biso   1.000  Cu
  O1       1.0000 0.96020  0.08700  0.19230  Biso   1.000  O
  O2       1.0000 0.03980  0.91300  0.80770  Biso   1.000  O
  O3       1.0000 0.51060  0.20190  0.37300  Biso   1.000  O
  O4       1.0000 0.48940  0.79810  0.62700  Biso   1.000  O
  O5       1.0000 0.20300  0.19960  0.53510  Biso   1.000  O
  O6       1.0000 0.79700  0.80040  0.46490  Biso   1.000  O
  O7       1.0000 0.72820  0.10750  0.91260  Biso   1.000  O
  O8       1.0000 0.27180  0.89250  0.08740  Biso   1.000  O
  O9       1.0000 0.40090  0.23520  0.95490  Biso   1.000  O
  O10      1.0000 0.59910  0.76480  0.04510  Biso   1.000  O
  N1       1.0000 0.97960  0.24390  0.20630  Biso   1.000  N
  N2       1.0000 0.02040  0.75610  0.79370  Biso   1.000  N
  C1       1.0000 0.14510  0.32610  0.32200  Biso   1.000  C
  C2       1.0000 0.85490  0.67390  0.67800  Biso   1.000  C
  C3       1.0000 0.15920  0.48420  0.34770  Biso   1.000  C
  C4       1.0000 0.84080  0.51580  0.65230  Biso   1.000  C
  H1       1.0000 0.27680  0.54270  0.42600  Biso   1.000  H
  H2       1.0000 0.72320  0.45730  0.57400  Biso   1.000  H
  C5       1.0000 0.99670  0.55430  0.25600  Biso   1.000  C
  C6       1.0000 0.00330  0.44570  0.74400  Biso   1.000  C
  H3       1.0000 0.00360  0.66010  0.27220  Biso   1.000  H
  H4       1.0000 0.99640  0.33990  0.72780  Biso   1.000  H
  C7       1.0000 0.82450  0.46500  0.13990  Biso   1.000  C
  C8       1.0000 0.17550  0.53500  0.86010  Biso   1.000  C
  H5       1.0000 0.71460  0.51130  0.07820  Biso   1.000  H
  H6       1.0000 0.28540  0.48870  0.92180  Biso   1.000  H
  C9       1.0000 0.81310  0.30730  0.11420  Biso   1.000  C
  C10      1.0000 0.18690  0.69270  0.88580  Biso   1.000  C
  C11      1.0000 0.30060  0.23240  0.41840  Biso   1.000  C
  C12      1.0000 0.69940  0.76760  0.58160  Biso   1.000  C
  C13      1.0000 0.62970  0.20770  0.98560  Biso   1.000  C
  C14      1.0000 0.37030  0.79230  0.01440  Biso   1.000  C
