data_image0
_cell_length_a       10.2712
_cell_length_b       11.5251
_cell_length_c       18.309
_cell_angle_alpha    90
_cell_angle_beta     90.521
_cell_angle_gamma    90

_symmetry_space_group_name_H-M    "P 1"
_symmetry_int_tables_number       1

loop_
  _symmetry_equiv_pos_as_xyz
  'x, y, z'

loop_
  _atom_site_label
  _atom_site_occupancy
  _atom_site_fract_x
  _atom_site_fract_y
  _atom_site_fract_z
  _atom_site_thermal_displace_type
  _atom_site_B_iso_or_equiv
  _atom_site_type_symbol
  O1       1.0000 0.32940  0.97780  0.41070  Biso   1.000  O
  O2       1.0000 0.67060  0.47780  0.08930  Biso   1.000  O
  O3       1.0000 0.67060  0.02220  0.58930  Biso   1.000  O
  O4       1.0000 0.32940  0.52220  0.91070  Biso   1.000  O
  N1       1.0000 0.20990  0.17550  0.18980  Biso   1.000  N
  N2       1.0000 0.79010  0.67550  0.31020  Biso   1.000  N
  N3       1.0000 0.79010  0.82450  0.81020  Biso   1.000  N
  N4       1.0000 0.20990  0.32450  0.68980  Biso   1.000  N
  C1       1.0000 0.29640  0.08910  0.19310  Biso   1.000  C
  C2       1.0000 0.70360  0.58910  0.30690  Biso   1.000  C
  C3       1.0000 0.70360  0.91090  0.80690  Biso   1.000  C
  C4       1.0000 0.29640  0.41090  0.69310  Biso   1.000  C
  H1       1.0000 0.37220  0.10040  0.22030  Biso   1.000  H
  H2       1.0000 0.62780  0.60040  0.27970  Biso   1.000  H
  H3       1.0000 0.62780  0.89960  0.77970  Biso   1.000  H
  H4       1.0000 0.37220  0.39960  0.72030  Biso   1.000  H
  C5       1.0000 0.27930  0.98430  0.15830  Biso   1.000  C
  C6       1.0000 0.72070  0.48430  0.34170  Biso   1.000  C
  C7       1.0000 0.72070  0.01570  0.84170  Biso   1.000  C
  C8       1.0000 0.27930  0.51570  0.65830  Biso   1.000  C
  H5       1.0000 0.34310  0.92730  0.16220  Biso   1.000  H
  H6       1.0000 0.65690  0.42730  0.33780  Biso   1.000  H
  H7       1.0000 0.65690  0.07270  0.83780  Biso   1.000  H
  H8       1.0000 0.34310  0.57270  0.66220  Biso   1.000  H
  C9       1.0000 0.10040  0.15490  0.15120  Biso   1.000  C
  C10      1.0000 0.89960  0.65490  0.34880  Biso   1.000  C
  C11      1.0000 0.89960  0.84510  0.84880  Biso   1.000  C
  C12      1.0000 0.10040  0.34510  0.65120  Biso   1.000  C
  H9       1.0000 0.03780  0.21300  0.14820  Biso   1.000  H
  H10      1.0000 0.96220  0.71300  0.35180  Biso   1.000  H
  H11      1.0000 0.96220  0.78700  0.85180  Biso   1.000  H
  H12      1.0000 0.03780  0.28700  0.64820  Biso   1.000  H
  C13      1.0000 0.07720  0.05160  0.11600  Biso   1.000  C
  C14      1.0000 0.92280  0.55160  0.38400  Biso   1.000  C
  C15      1.0000 0.92280  0.94840  0.88400  Biso   1.000  C
  C16      1.0000 0.07720  0.44840  0.61600  Biso   1.000  C
  H13      1.0000 0.99920  0.04120  0.09070  Biso   1.000  H
  H14      1.0000 0.00080  0.54120  0.40930  Biso   1.000  H
  H15      1.0000 0.00080  0.95880  0.90930  Biso   1.000  H
  H16      1.0000 0.99920  0.45880  0.59070  Biso   1.000  H
  C17      1.0000 0.16750  0.96320  0.11770  Biso   1.000  C
  C18      1.0000 0.83250  0.46320  0.38230  Biso   1.000  C
  C19      1.0000 0.83250  0.03680  0.88230  Biso   1.000  C
  C20      1.0000 0.16750  0.53680  0.61770  Biso   1.000  C
  C21      1.0000 0.14730  0.84790  0.07930  Biso   1.000  C
  C22      1.0000 0.85270  0.34790  0.42070  Biso   1.000  C
  C23      1.0000 0.85270  0.15210  0.92070  Biso   1.000  C
  C24      1.0000 0.14730  0.65210  0.57930  Biso   1.000  C
  H17      1.0000 0.18470  0.85300  0.03100  Biso   1.000  H
  H18      1.0000 0.81530  0.35300  0.46900  Biso   1.000  H
  H19      1.0000 0.81530  0.14700  0.96900  Biso   1.000  H
  H20      1.0000 0.18470  0.64700  0.53100  Biso   1.000  H
  H21      1.0000 0.19520  0.78880  0.10600  Biso   1.000  H
  H22      1.0000 0.80480  0.28880  0.39400  Biso   1.000  H
  H23      1.0000 0.80480  0.21120  0.89400  Biso   1.000  H
  H24      1.0000 0.19520  0.71120  0.60600  Biso   1.000  H
  Cu1      1.0000 0.24338  0.32154  0.24658  Biso   1.000  Cu
  Cu2      1.0000 0.75662  0.82154  0.25342  Biso   1.000  Cu
  Cu3      1.0000 0.75662  0.67846  0.75342  Biso   1.000  Cu
  Cu4      1.0000 0.24338  0.17846  0.74658  Biso   1.000  Cu
  O5       1.0000 0.27890  0.22170  0.32903  Biso   1.000  O
  O6       1.0000 0.72110  0.72170  0.17097  Biso   1.000  O
  O7       1.0000 0.72110  0.77830  0.67097  Biso   1.000  O
  O8       1.0000 0.27890  0.27830  0.82903  Biso   1.000  O
  N5       1.0000 0.15700  0.42380  0.17260  Biso   1.000  N
  N6       1.0000 0.84300  0.92380  0.32740  Biso   1.000  N
  N7       1.0000 0.84300  0.57620  0.82740  Biso   1.000  N
  N8       1.0000 0.15700  0.07620  0.67260  Biso   1.000  N
  O9       1.0000 0.26620  0.55450  0.41220  Biso   1.000  O
  O10      1.0000 0.73380  0.05450  0.08780  Biso   1.000  O
  O11      1.0000 0.73380  0.44550  0.58780  Biso   1.000  O
  O12      1.0000 0.26620  0.94550  0.91220  Biso   1.000  O
  O13      1.0000 0.23850  0.45310  0.31150  Biso   1.000  O
  O14      1.0000 0.76150  0.95310  0.18850  Biso   1.000  O
  O15      1.0000 0.76150  0.54690  0.68850  Biso   1.000  O
  O16      1.0000 0.23850  0.04690  0.81150  Biso   1.000  O
  O17      1.0000 0.49350  0.03560  0.34190  Biso   1.000  O
  O18      1.0000 0.50650  0.53560  0.15810  Biso   1.000  O
  O19      1.0000 0.50650  0.96440  0.65810  Biso   1.000  O
  O20      1.0000 0.49350  0.46440  0.84190  Biso   1.000  O
  O21      1.0000 0.44650  0.33120  0.21330  Biso   1.000  O
  O22      1.0000 0.55350  0.83120  0.28670  Biso   1.000  O
  O23      1.0000 0.55350  0.66880  0.78670  Biso   1.000  O
  O24      1.0000 0.44650  0.16880  0.71330  Biso   1.000  O
  C25      1.0000 0.33790  0.36460  0.41750  Biso   1.000  C
  C26      1.0000 0.66210  0.86460  0.08250  Biso   1.000  C
  C27      1.0000 0.66210  0.63540  0.58250  Biso   1.000  C
  C28      1.0000 0.33790  0.13540  0.91750  Biso   1.000  C
  C29      1.0000 0.16220  0.53810  0.06520  Biso   1.000  C
  C30      1.0000 0.83780  0.03810  0.43480  Biso   1.000  C
  C31      1.0000 0.83780  0.46190  0.93480  Biso   1.000  C
  C32      1.0000 0.16220  0.96190  0.56520  Biso   1.000  C
  H25      1.0000 0.20500  0.55780  0.02250  Biso   1.000  H
  H26      1.0000 0.79500  0.05780  0.47750  Biso   1.000  H
  H27      1.0000 0.79500  0.44220  0.97750  Biso   1.000  H
  H28      1.0000 0.20500  0.94220  0.52250  Biso   1.000  H
  N9       1.0000 0.34280  0.25450  0.38970  Biso   1.000  N
  N10      1.0000 0.65720  0.75450  0.11030  Biso   1.000  N
  N11      1.0000 0.65720  0.74550  0.61030  Biso   1.000  N
  N12      1.0000 0.34280  0.24550  0.88970  Biso   1.000  N
  C33      1.0000 0.46960  0.19110  0.49060  Biso   1.000  C
  C34      1.0000 0.53040  0.69110  0.00940  Biso   1.000  C
  C35      1.0000 0.53040  0.80890  0.50940  Biso   1.000  C
  C36      1.0000 0.46960  0.30890  0.99060  Biso   1.000  C
  H29      1.0000 0.51620  0.13280  0.51430  Biso   1.000  H
  H30      1.0000 0.48380  0.63280  0.98570  Biso   1.000  H
  H31      1.0000 0.48380  0.86720  0.48570  Biso   1.000  H
  H32      1.0000 0.51620  0.36720  0.01430  Biso   1.000  H
  C37      1.0000 0.27560  0.46490  0.37680  Biso   1.000  C
  C38      1.0000 0.72440  0.96490  0.12320  Biso   1.000  C
  C39      1.0000 0.72440  0.53510  0.62320  Biso   1.000  C
  C40      1.0000 0.27560  0.03510  0.87680  Biso   1.000  C
  C41      1.0000 0.40820  0.16810  0.42440  Biso   1.000  C
  C42      1.0000 0.59180  0.66810  0.07560  Biso   1.000  C
  C43      1.0000 0.59180  0.83190  0.57560  Biso   1.000  C
  C44      1.0000 0.40820  0.33190  0.92440  Biso   1.000  C
  C45      1.0000 0.99280  0.68970  0.03500  Biso   1.000  C
  C46      1.0000 0.00720  0.18970  0.46500  Biso   1.000  C
  C47      1.0000 0.00720  0.31030  0.96500  Biso   1.000  C
  C48      1.0000 0.99280  0.81030  0.53500  Biso   1.000  C
  H33      1.0000 0.90110  0.67480  0.02620  Biso   1.000  H
  H34      1.0000 0.09890  0.17480  0.47380  Biso   1.000  H
  H35      1.0000 0.09890  0.32520  0.97380  Biso   1.000  H
  H36      1.0000 0.90110  0.82520  0.52620  Biso   1.000  H
  H37      1.0000 0.03620  0.69050  0.98820  Biso   1.000  H
  H38      1.0000 0.96380  0.19050  0.51180  Biso   1.000  H
  H39      1.0000 0.96380  0.30950  0.01180  Biso   1.000  H
  H40      1.0000 0.03620  0.80950  0.48820  Biso   1.000  H
  C49      1.0000 0.04950  0.59250  0.08200  Biso   1.000  C
  C50      1.0000 0.95050  0.09250  0.41800  Biso   1.000  C
  C51      1.0000 0.95050  0.40750  0.91800  Biso   1.000  C
  C52      1.0000 0.04950  0.90750  0.58200  Biso   1.000  C
  C53      1.0000 0.40790  0.05010  0.38850  Biso   1.000  C
  C54      1.0000 0.59210  0.55010  0.11150  Biso   1.000  C
  C55      1.0000 0.59210  0.94990  0.61150  Biso   1.000  C
  C56      1.0000 0.40790  0.44990  0.88850  Biso   1.000  C
  C57      1.0000 0.39550  0.38400  0.48340  Biso   1.000  C
  C58      1.0000 0.60450  0.88400  0.01660  Biso   1.000  C
  C59      1.0000 0.60450  0.61600  0.51660  Biso   1.000  C
  C60      1.0000 0.39550  0.11600  0.98340  Biso   1.000  C
  H41      1.0000 0.38970  0.45780  0.50360  Biso   1.000  H
  H42      1.0000 0.61030  0.95780  0.99640  Biso   1.000  H
  H43      1.0000 0.61030  0.54220  0.49640  Biso   1.000  H
  H44      1.0000 0.38970  0.04220  0.00360  Biso   1.000  H
  C61      1.0000 0.21460  0.45430  0.11020  Biso   1.000  C
  C62      1.0000 0.78540  0.95430  0.38980  Biso   1.000  C
  C63      1.0000 0.78540  0.54570  0.88980  Biso   1.000  C
  C64      1.0000 0.21460  0.04570  0.61020  Biso   1.000  C
  H45      1.0000 0.29170  0.41800  0.09690  Biso   1.000  H
  H46      1.0000 0.70830  0.91800  0.40310  Biso   1.000  H
  H47      1.0000 0.70830  0.58200  0.90310  Biso   1.000  H
  H48      1.0000 0.29170  0.08200  0.59690  Biso   1.000  H
  C65      1.0000 0.04460  0.47700  0.18940  Biso   1.000  C
  C66      1.0000 0.95540  0.97700  0.31060  Biso   1.000  C
  C67      1.0000 0.95540  0.52300  0.81060  Biso   1.000  C
  C68      1.0000 0.04460  0.02300  0.68940  Biso   1.000  C
  H49      1.0000 0.00300  0.45690  0.23250  Biso   1.000  H
  H50      1.0000 0.99700  0.95690  0.26750  Biso   1.000  H
  H51      1.0000 0.99700  0.54310  0.76750  Biso   1.000  H
  H52      1.0000 0.00300  0.04310  0.73250  Biso   1.000  H
  C69      1.0000 0.46210  0.29980  0.52160  Biso   1.000  C
  C70      1.0000 0.53790  0.79980  0.97840  Biso   1.000  C
  C71      1.0000 0.53790  0.70020  0.47840  Biso   1.000  C
  C72      1.0000 0.46210  0.20020  0.02160  Biso   1.000  C
  H53      1.0000 0.50060  0.31560  0.56670  Biso   1.000  H
  H54      1.0000 0.49940  0.81560  0.93330  Biso   1.000  H
  H55      1.0000 0.49940  0.68440  0.43330  Biso   1.000  H
  H56      1.0000 0.50060  0.18440  0.06670  Biso   1.000  H
  C73      1.0000 0.98980  0.55880  0.14570  Biso   1.000  C
  C74      1.0000 0.01020  0.05880  0.35430  Biso   1.000  C
  C75      1.0000 0.01020  0.44120  0.85430  Biso   1.000  C
  C76      1.0000 0.98980  0.94120  0.64570  Biso   1.000  C
  H57      1.0000 0.91120  0.59250  0.15890  Biso   1.000  H
  H58      1.0000 0.08880  0.09250  0.34110  Biso   1.000  H
  H59      1.0000 0.08880  0.40750  0.84110  Biso   1.000  H
  H60      1.0000 0.91120  0.90750  0.65890  Biso   1.000  H
  C77      1.0000 0.00860  0.80940  0.07170  Biso   1.000  C
  C78      1.0000 0.99140  0.30940  0.42830  Biso   1.000  C
  C79      1.0000 0.99140  0.19060  0.92830  Biso   1.000  C
  C80      1.0000 0.00860  0.69060  0.57170  Biso   1.000  C
  H61      1.0000 0.96110  0.86650  0.04310  Biso   1.000  H
  H62      1.0000 0.03890  0.36650  0.45690  Biso   1.000  H
  H63      1.0000 0.03890  0.13350  0.95690  Biso   1.000  H
  H64      1.0000 0.96110  0.63350  0.54310  Biso   1.000  H
  H65      1.0000 0.96980  0.80650  0.11970  Biso   1.000  H
  H66      1.0000 0.03020  0.30650  0.38030  Biso   1.000  H
  H67      1.0000 0.03020  0.19350  0.88030  Biso   1.000  H
  H68      1.0000 0.96980  0.69350  0.61970  Biso   1.000  H
  O25      1.0000 0.63970  0.21470  0.28480  Biso   1.000  O
  O26      1.0000 0.36030  0.71470  0.21520  Biso   1.000  O
  O27      1.0000 0.36030  0.78530  0.71520  Biso   1.000  O
  O28      1.0000 0.63970  0.28530  0.78480  Biso   1.000  O
  O29      1.0000 0.20090  0.77090  0.34930  Biso   1.000  O
  O30      1.0000 0.79910  0.27090  0.15070  Biso   1.000  O
  O31      1.0000 0.79910  0.22910  0.65070  Biso   1.000  O
  O32      1.0000 0.20090  0.72910  0.84930  Biso   1.000  O
  H69      1.0000 0.50600  0.28700  0.23200  Biso   1.000  H
  H70      1.0000 0.49400  0.78700  0.26800  Biso   1.000  H
  H71      1.0000 0.49400  0.71300  0.76800  Biso   1.000  H
  H72      1.0000 0.50600  0.21300  0.73200  Biso   1.000  H
  H73      1.0000 0.47700  0.39900  0.20400  Biso   1.000  H
  H74      1.0000 0.52300  0.89900  0.29600  Biso   1.000  H
  H75      1.0000 0.52300  0.60100  0.79600  Biso   1.000  H
  H76      1.0000 0.47700  0.10100  0.70400  Biso   1.000  H
  H77      1.0000 0.24300  0.82800  0.36900  Biso   1.000  H
  H78      1.0000 0.75700  0.32800  0.13100  Biso   1.000  H
  H79      1.0000 0.75700  0.17200  0.63100  Biso   1.000  H
  H80      1.0000 0.24300  0.67200  0.86900  Biso   1.000  H
  H81      1.0000 0.20700  0.70900  0.37600  Biso   1.000  H
  H82      1.0000 0.79300  0.20900  0.12400  Biso   1.000  H
  H83      1.0000 0.79300  0.29100  0.62400  Biso   1.000  H
  H84      1.0000 0.20700  0.79100  0.87600  Biso   1.000  H
  H85      1.0000 0.65900  0.17500  0.24700  Biso   1.000  H
  H86      1.0000 0.34100  0.67500  0.25300  Biso   1.000  H
  H87      1.0000 0.34100  0.82500  0.75300  Biso   1.000  H
  H88      1.0000 0.65900  0.32500  0.74700  Biso   1.000  H
  H89      1.0000 0.57000  0.19000  0.30500  Biso   1.000  H
  H90      1.0000 0.43000  0.69000  0.19500  Biso   1.000  H
  H91      1.0000 0.43000  0.81000  0.69500  Biso   1.000  H
  H92      1.0000 0.57000  0.31000  0.80500  Biso   1.000  H
