data_image0
_cell_length_a       10.1639
_cell_length_b       9.6526
_cell_length_c       18.9701
_cell_angle_alpha    90
_cell_angle_beta     91.74
_cell_angle_gamma    90

_symmetry_space_group_name_H-M    "P 1"
_symmetry_int_tables_number       1

loop_
  _symmetry_equiv_pos_as_xyz
  'x, y, z'

loop_
  _atom_site_label
  _atom_site_occupancy
  _atom_site_fract_x
  _atom_site_fract_y
  _atom_site_fract_z
  _atom_site_thermal_displace_type
  _atom_site_B_iso_or_equiv
  _atom_site_type_symbol
  Cu1      1.0000 0.39917  0.04022  0.16716  Biso   1.000  Cu
  Cu2      1.0000 0.60083  0.54022  0.33284  Biso   1.000  Cu
  Cu3      1.0000 0.60083  0.95978  0.83284  Biso   1.000  Cu
  Cu4      1.0000 0.39917  0.45978  0.66716  Biso   1.000  Cu
  O1       1.0000 0.50490  0.04780  0.25260  Biso   1.000  O
  O2       1.0000 0.49510  0.54780  0.24740  Biso   1.000  O
  O3       1.0000 0.49510  0.95220  0.74740  Biso   1.000  O
  O4       1.0000 0.50490  0.45220  0.75260  Biso   1.000  O
  O5       1.0000 0.29160  0.00690  0.08788  Biso   1.000  O
  O6       1.0000 0.70840  0.50690  0.41212  Biso   1.000  O
  O7       1.0000 0.70840  0.99310  0.91212  Biso   1.000  O
  O8       1.0000 0.29160  0.49310  0.58788  Biso   1.000  O
  N1       1.0000 0.61440  0.86950  0.19885  Biso   1.000  N
  N2       1.0000 0.38560  0.36950  0.30115  Biso   1.000  N
  N3       1.0000 0.38560  0.13050  0.80115  Biso   1.000  N
  N4       1.0000 0.61440  0.63050  0.69885  Biso   1.000  N
  N5       1.0000 0.72470  0.68670  0.29572  Biso   1.000  N
  N6       1.0000 0.27530  0.18670  0.20428  Biso   1.000  N
  N7       1.0000 0.27530  0.31330  0.70428  Biso   1.000  N
  N8       1.0000 0.72470  0.81330  0.79572  Biso   1.000  N
  H1       1.0000 0.80410  0.64700  0.29110  Biso   1.000  H
  H2       1.0000 0.19590  0.14700  0.20890  Biso   1.000  H
  H3       1.0000 0.19590  0.35300  0.70890  Biso   1.000  H
  H4       1.0000 0.80410  0.85300  0.79110  Biso   1.000  H
  H5       1.0000 0.69530  0.71070  0.25220  Biso   1.000  H
  H6       1.0000 0.30470  0.21070  0.24780  Biso   1.000  H
  H7       1.0000 0.30470  0.28930  0.74780  Biso   1.000  H
  H8       1.0000 0.69530  0.78930  0.75220  Biso   1.000  H
  C1       1.0000 0.53830  0.83520  0.08362  Biso   1.000  C
  C2       1.0000 0.46170  0.33520  0.41638  Biso   1.000  C
  C3       1.0000 0.46170  0.16480  0.91638  Biso   1.000  C
  C4       1.0000 0.53830  0.66480  0.58362  Biso   1.000  C
  N9       1.0000 0.52160  0.89610  0.14395  Biso   1.000  N
  N10      1.0000 0.47840  0.39610  0.35605  Biso   1.000  N
  N11      1.0000 0.47840  0.10390  0.85605  Biso   1.000  N
  N12      1.0000 0.52160  0.60390  0.64395  Biso   1.000  N
  C5       1.0000 0.77820  0.04540  0.42029  Biso   1.000  C
  C6       1.0000 0.22180  0.54540  0.07971  Biso   1.000  C
  C7       1.0000 0.22180  0.95460  0.57971  Biso   1.000  C
  C8       1.0000 0.77820  0.45460  0.92029  Biso   1.000  C
  H9       1.0000 0.78850  0.12320  0.44880  Biso   1.000  H
  H10      1.0000 0.21150  0.62320  0.05120  Biso   1.000  H
  H11      1.0000 0.21150  0.87680  0.55120  Biso   1.000  H
  H12      1.0000 0.78850  0.37680  0.94880  Biso   1.000  H
  C9       1.0000 0.32070  0.92810  0.03373  Biso   1.000  C
  C10      1.0000 0.67930  0.42810  0.46627  Biso   1.000  C
  C11      1.0000 0.67930  0.07190  0.96627  Biso   1.000  C
  C12      1.0000 0.32070  0.57190  0.53373  Biso   1.000  C
  C13      1.0000 0.74350  0.81150  0.33569  Biso   1.000  C
  C14      1.0000 0.25650  0.31150  0.16431  Biso   1.000  C
  C15      1.0000 0.25650  0.18850  0.66431  Biso   1.000  C
  C16      1.0000 0.74350  0.68850  0.83569  Biso   1.000  C
  C17      1.0000 0.64020  0.59510  0.08720  Biso   1.000  C
  C18      1.0000 0.35980  0.09510  0.41280  Biso   1.000  C
  C19      1.0000 0.35980  0.40490  0.91280  Biso   1.000  C
  C20      1.0000 0.64020  0.90490  0.58720  Biso   1.000  C
  H13      1.0000 0.61130  0.58280  0.13450  Biso   1.000  H
  H14      1.0000 0.38870  0.08280  0.36550  Biso   1.000  H
  H15      1.0000 0.38870  0.41720  0.86550  Biso   1.000  H
  H16      1.0000 0.61130  0.91720  0.63450  Biso   1.000  H
  H17      1.0000 0.72170  0.54660  0.08150  Biso   1.000  H
  H18      1.0000 0.27830  0.04660  0.41850  Biso   1.000  H
  H19      1.0000 0.27830  0.45340  0.91850  Biso   1.000  H
  H20      1.0000 0.72170  0.95340  0.58150  Biso   1.000  H
  H21      1.0000 0.57490  0.55890  0.05450  Biso   1.000  H
  H22      1.0000 0.42510  0.05890  0.44550  Biso   1.000  H
  H23      1.0000 0.42510  0.44110  0.94550  Biso   1.000  H
  H24      1.0000 0.57490  0.94110  0.55450  Biso   1.000  H
  C21      1.0000 0.82640  0.80790  0.39524  Biso   1.000  C
  C22      1.0000 0.17360  0.30790  0.10476  Biso   1.000  C
  C23      1.0000 0.17360  0.19210  0.60476  Biso   1.000  C
  C24      1.0000 0.82640  0.69210  0.89524  Biso   1.000  C
  H25      1.0000 0.87020  0.72620  0.40710  Biso   1.000  H
  H26      1.0000 0.12980  0.22620  0.09290  Biso   1.000  H
  H27      1.0000 0.12980  0.27380  0.59290  Biso   1.000  H
  H28      1.0000 0.87020  0.77380  0.90710  Biso   1.000  H
  C25      1.0000 0.45470  0.77620  0.96359  Biso   1.000  C
  C26      1.0000 0.54530  0.27620  0.53641  Biso   1.000  C
  C27      1.0000 0.54530  0.22380  0.03641  Biso   1.000  C
  C28      1.0000 0.45470  0.72380  0.46359  Biso   1.000  C
  H29      1.0000 0.53130  0.72510  0.95830  Biso   1.000  H
  H30      1.0000 0.46870  0.22510  0.54170  Biso   1.000  H
  H31      1.0000 0.46870  0.27490  0.04170  Biso   1.000  H
  H32      1.0000 0.53130  0.77490  0.45830  Biso   1.000  H
  C29      1.0000 0.67900  0.93490  0.31701  Biso   1.000  C
  C30      1.0000 0.32100  0.43490  0.18299  Biso   1.000  C
  C31      1.0000 0.32100  0.06510  0.68299  Biso   1.000  C
  C32      1.0000 0.67900  0.56510  0.81701  Biso   1.000  C
  C33      1.0000 0.59370  0.95120  0.25230  Biso   1.000  C
  C34      1.0000 0.40630  0.45120  0.24770  Biso   1.000  C
  C35      1.0000 0.40630  0.04880  0.74770  Biso   1.000  C
  C36      1.0000 0.59370  0.54880  0.75230  Biso   1.000  C
  C37      1.0000 0.66040  0.74960  0.07280  Biso   1.000  C
  C38      1.0000 0.33960  0.24960  0.42720  Biso   1.000  C
  C39      1.0000 0.33960  0.25040  0.92720  Biso   1.000  C
  C40      1.0000 0.66040  0.75040  0.57280  Biso   1.000  C
  H33      1.0000 0.73080  0.78390  0.10380  Biso   1.000  H
  H34      1.0000 0.26920  0.28390  0.39620  Biso   1.000  H
  H35      1.0000 0.26920  0.21610  0.89620  Biso   1.000  H
  H36      1.0000 0.73080  0.71610  0.60380  Biso   1.000  H
  H37      1.0000 0.68780  0.76130  0.02460  Biso   1.000  H
  H38      1.0000 0.31220  0.26130  0.47540  Biso   1.000  H
  H39      1.0000 0.31220  0.23870  0.97540  Biso   1.000  H
  H40      1.0000 0.68780  0.73870  0.52460  Biso   1.000  H
  C41      1.0000 0.84480  0.92360  0.43698  Biso   1.000  C
  C42      1.0000 0.15520  0.42360  0.06302  Biso   1.000  C
  C43      1.0000 0.15520  0.07640  0.56302  Biso   1.000  C
  C44      1.0000 0.84480  0.57640  0.93698  Biso   1.000  C
  H41      1.0000 0.90160  0.92000  0.47630  Biso   1.000  H
  H42      1.0000 0.09840  0.42000  0.02370  Biso   1.000  H
  H43      1.0000 0.09840  0.08000  0.52370  Biso   1.000  H
  H44      1.0000 0.90160  0.58000  0.97630  Biso   1.000  H
  C45      1.0000 0.43750  0.84880  0.02729  Biso   1.000  C
  C46      1.0000 0.56250  0.34880  0.47271  Biso   1.000  C
  C47      1.0000 0.56250  0.15120  0.97271  Biso   1.000  C
  C48      1.0000 0.43750  0.65120  0.52729  Biso   1.000  C
  C49      1.0000 0.36210  0.77810  0.90904  Biso   1.000  C
  C50      1.0000 0.63790  0.27810  0.59096  Biso   1.000  C
  C51      1.0000 0.63790  0.22190  0.09096  Biso   1.000  C
  C52      1.0000 0.36210  0.72190  0.40904  Biso   1.000  C
  H45      1.0000 0.37660  0.72980  0.86760  Biso   1.000  H
  H46      1.0000 0.62340  0.22980  0.63240  Biso   1.000  H
  H47      1.0000 0.62340  0.27020  0.13240  Biso   1.000  H
  H48      1.0000 0.37660  0.77020  0.36760  Biso   1.000  H
  C53      1.0000 0.69710  0.04970  0.36115  Biso   1.000  C
  C54      1.0000 0.30290  0.54970  0.13885  Biso   1.000  C
  C55      1.0000 0.30290  0.95030  0.63885  Biso   1.000  C
  C56      1.0000 0.69710  0.45030  0.86115  Biso   1.000  C
  H49      1.0000 0.65280  0.13150  0.35010  Biso   1.000  H
  H50      1.0000 0.34720  0.63150  0.14990  Biso   1.000  H
  H51      1.0000 0.34720  0.86850  0.64990  Biso   1.000  H
  H52      1.0000 0.65280  0.36850  0.85010  Biso   1.000  H
  C57      1.0000 0.22690  0.92440  0.97728  Biso   1.000  C
  C58      1.0000 0.77310  0.42440  0.52272  Biso   1.000  C
  C59      1.0000 0.77310  0.07560  0.02272  Biso   1.000  C
  C60      1.0000 0.22690  0.57560  0.47728  Biso   1.000  C
  H53      1.0000 0.14840  0.97270  0.98150  Biso   1.000  H
  H54      1.0000 0.85160  0.47270  0.51850  Biso   1.000  H
  H55      1.0000 0.85160  0.02730  0.01850  Biso   1.000  H
  H56      1.0000 0.14840  0.52730  0.48150  Biso   1.000  H
  C61      1.0000 0.24780  0.85230  0.91664  Biso   1.000  C
  C62      1.0000 0.75220  0.35230  0.58336  Biso   1.000  C
  C63      1.0000 0.75220  0.14770  0.08336  Biso   1.000  C
  C64      1.0000 0.24780  0.64770  0.41664  Biso   1.000  C
  H57      1.0000 0.18430  0.85340  0.88030  Biso   1.000  H
  H58      1.0000 0.81570  0.35340  0.61970  Biso   1.000  H
  H59      1.0000 0.81570  0.14660  0.11970  Biso   1.000  H
  H60      1.0000 0.18430  0.64660  0.38030  Biso   1.000  H
  S1       1.0000 0.99790  0.90896  0.22742  Biso   1.000  S
  S2       1.0000 0.00210  0.40896  0.27258  Biso   1.000  S
  S3       1.0000 0.00210  0.09104  0.77258  Biso   1.000  S
  S4       1.0000 0.99790  0.59104  0.72742  Biso   1.000  S
  O9       1.0000 0.01990  0.06120  0.21862  Biso   1.000  O
  O10      1.0000 0.98010  0.56120  0.28138  Biso   1.000  O
  O11      1.0000 0.98010  0.93880  0.78138  Biso   1.000  O
  O12      1.0000 0.01990  0.43880  0.71862  Biso   1.000  O
  C65      1.0000 0.14490  0.84540  0.26350  Biso   1.000  C
  C66      1.0000 0.85510  0.34540  0.23650  Biso   1.000  C
  C67      1.0000 0.85510  0.15460  0.73650  Biso   1.000  C
  C68      1.0000 0.14490  0.65460  0.76350  Biso   1.000  C
  H61      1.0000 0.21650  0.87420  0.23500  Biso   1.000  H
  H62      1.0000 0.78350  0.37420  0.26500  Biso   1.000  H
  H63      1.0000 0.78350  0.12580  0.76500  Biso   1.000  H
  H64      1.0000 0.21650  0.62580  0.73500  Biso   1.000  H
  H65      1.0000 0.14160  0.74610  0.26490  Biso   1.000  H
  H66      1.0000 0.85840  0.24610  0.23510  Biso   1.000  H
  H67      1.0000 0.85840  0.25390  0.73510  Biso   1.000  H
  H68      1.0000 0.14160  0.75390  0.76490  Biso   1.000  H
  H69      1.0000 0.15810  0.88080  0.31040  Biso   1.000  H
  H70      1.0000 0.84190  0.38080  0.18960  Biso   1.000  H
  H71      1.0000 0.84190  0.11920  0.68960  Biso   1.000  H
  H72      1.0000 0.15810  0.61920  0.81040  Biso   1.000  H
  C69      1.0000 0.01500  0.83440  0.14390  Biso   1.000  C
  C70      1.0000 0.98500  0.33440  0.35610  Biso   1.000  C
  C71      1.0000 0.98500  0.16560  0.85610  Biso   1.000  C
  C72      1.0000 0.01500  0.66560  0.64390  Biso   1.000  C
  H73      1.0000 0.94570  0.86680  0.11260  Biso   1.000  H
  H74      1.0000 0.05430  0.36680  0.38740  Biso   1.000  H
  H75      1.0000 0.05430  0.13320  0.88740  Biso   1.000  H
  H76      1.0000 0.94570  0.63320  0.61260  Biso   1.000  H
  H77      1.0000 0.01010  0.73530  0.14780  Biso   1.000  H
  H78      1.0000 0.98990  0.23530  0.35220  Biso   1.000  H
  H79      1.0000 0.98990  0.26470  0.85220  Biso   1.000  H
  H80      1.0000 0.01010  0.76470  0.64780  Biso   1.000  H
  H81      1.0000 0.09860  0.86010  0.12560  Biso   1.000  H
  H82      1.0000 0.90140  0.36010  0.37440  Biso   1.000  H
  H83      1.0000 0.90140  0.13990  0.87440  Biso   1.000  H
  H84      1.0000 0.09860  0.63990  0.62560  Biso   1.000  H
