data_image0
_cell_length_a       8.4037
_cell_length_b       8.5697
_cell_length_c       10.9509
_cell_angle_alpha    74.038
_cell_angle_beta     84.244
_cell_angle_gamma    70.545

_symmetry_space_group_name_H-M    "P 1"
_symmetry_int_tables_number       1

loop_
  _symmetry_equiv_pos_as_xyz
  'x, y, z'

loop_
  _atom_site_label
  _atom_site_occupancy
  _atom_site_fract_x
  _atom_site_fract_y
  _atom_site_fract_z
  _atom_site_thermal_displace_type
  _atom_site_B_iso_or_equiv
  _atom_site_type_symbol
  Cu1      1.0000 0.48704  0.61247  0.86675  Biso   1.000  Cu
  Cu2      1.0000 0.51296  0.38753  0.13325  Biso   1.000  Cu
  O1       1.0000 0.63580  0.50950  0.00830  Biso   1.000  O
  O2       1.0000 0.36420  0.49050  0.99170  Biso   1.000  O
  O3       1.0000 0.61100  0.41540  0.74290  Biso   1.000  O
  O4       1.0000 0.38900  0.58460  0.25710  Biso   1.000  O
  H1       1.0000 0.68730  0.33340  0.78460  Biso   1.000  H
  H2       1.0000 0.31270  0.66660  0.21540  Biso   1.000  H
  O5       1.0000 0.32420  0.73210  0.73310  Biso   1.000  O
  O6       1.0000 0.67580  0.26790  0.26690  Biso   1.000  O
  O7       1.0000 0.12290  0.89970  0.83450  Biso   1.000  O
  O8       1.0000 0.87710  0.10030  0.16550  Biso   1.000  O
  O9       1.0000 0.83490  0.15120  0.89960  Biso   1.000  O
  O10      1.0000 0.16510  0.84880  0.10040  Biso   1.000  O
  H3       1.0000 0.85060  0.14860  0.98130  Biso   1.000  H
  H4       1.0000 0.14940  0.85140  0.01870  Biso   1.000  H
  H5       1.0000 0.92570  0.08000  0.88510  Biso   1.000  H
  H6       1.0000 0.07430  0.92000  0.11490  Biso   1.000  H
  N1       1.0000 0.67680  0.71030  0.78510  Biso   1.000  N
  N2       1.0000 0.32320  0.28970  0.21490  Biso   1.000  N
  C1       1.0000 0.79340  0.53560  0.99400  Biso   1.000  C
  C2       1.0000 0.20660  0.46440  0.00600  Biso   1.000  C
  H7       1.0000 0.87920  0.44160  0.96470  Biso   1.000  H
  H8       1.0000 0.12080  0.55840  0.03530  Biso   1.000  H
  H9       1.0000 0.83030  0.53970  0.07580  Biso   1.000  H
  H10      1.0000 0.16970  0.46030  0.92420  Biso   1.000  H
  C3       1.0000 0.77110  0.70570  0.89560  Biso   1.000  C
  C4       1.0000 0.22890  0.29430  0.10440  Biso   1.000  C
  H11      1.0000 0.70750  0.80150  0.93330  Biso   1.000  H
  H12      1.0000 0.29250  0.19850  0.06670  Biso   1.000  H
  H13      1.0000 0.88280  0.71820  0.86700  Biso   1.000  H
  H14      1.0000 0.11720  0.28180  0.13300  Biso   1.000  H
  C5       1.0000 0.69180  0.51570  0.65030  Biso   1.000  C
  C6       1.0000 0.30820  0.48430  0.34970  Biso   1.000  C
  H15      1.0000 0.60600  0.60710  0.59220  Biso   1.000  H
  H16      1.0000 0.39400  0.39290  0.40780  Biso   1.000  H
  H17      1.0000 0.77030  0.44270  0.59940  Biso   1.000  H
  H18      1.0000 0.22970  0.55730  0.40060  Biso   1.000  H
  C7       1.0000 0.78860  0.59610  0.70940  Biso   1.000  C
  C8       1.0000 0.21140  0.40390  0.29060  Biso   1.000  C
  H19      1.0000 0.87730  0.50460  0.76500  Biso   1.000  H
  H20      1.0000 0.12270  0.49540  0.23500  Biso   1.000  H
  H21      1.0000 0.84490  0.66300  0.64150  Biso   1.000  H
  H22      1.0000 0.15510  0.33700  0.35850  Biso   1.000  H
  C9       1.0000 0.61410  0.88780  0.70100  Biso   1.000  C
  C10      1.0000 0.38590  0.11220  0.29900  Biso   1.000  C
  H23      1.0000 0.55930  0.88390  0.62650  Biso   1.000  H
  H24      1.0000 0.44070  0.11610  0.37350  Biso   1.000  H
  H25      1.0000 0.71230  0.92740  0.66940  Biso   1.000  H
  H26      1.0000 0.28770  0.07260  0.33060  Biso   1.000  H
  C11      1.0000 0.48980  0.01850  0.76350  Biso   1.000  C
  C12      1.0000 0.51020  0.98150  0.23650  Biso   1.000  C
  H27      1.0000 0.55200  0.05850  0.81410  Biso   1.000  H
  H28      1.0000 0.44800  0.94150  0.18590  Biso   1.000  H
  H29      1.0000 0.41390  0.96450  0.82170  Biso   1.000  H
  H30      1.0000 0.58610  0.03550  0.17830  Biso   1.000  H
  C13      1.0000 0.38570  0.17060  0.66260  Biso   1.000  C
  C14      1.0000 0.61430  0.82940  0.33740  Biso   1.000  C
  H31      1.0000 0.46270  0.22380  0.60510  Biso   1.000  H
  H32      1.0000 0.53730  0.77620  0.39490  Biso   1.000  H
  H33      1.0000 0.32620  0.12880  0.61120  Biso   1.000  H
  H34      1.0000 0.67380  0.87120  0.38880  Biso   1.000  H
  C15      1.0000 0.25650  0.30570  0.71870  Biso   1.000  C
  C16      1.0000 0.74350  0.69430  0.28130  Biso   1.000  C
  H35      1.0000 0.18200  0.25310  0.77770  Biso   1.000  H
  H36      1.0000 0.81800  0.74690  0.22230  Biso   1.000  H
  H37      1.0000 0.18940  0.39700  0.65020  Biso   1.000  H
  H38      1.0000 0.81060  0.60300  0.34980  Biso   1.000  H
  H39      1.0000 0.31500  0.35410  0.76420  Biso   1.000  H
  H40      1.0000 0.68500  0.64590  0.23580  Biso   1.000  H
  C17      1.0000 0.18320  0.84850  0.73880  Biso   1.000  C
  C18      1.0000 0.81680  0.15150  0.26120  Biso   1.000  C
  C19      1.0000 0.08700  0.92740  0.61500  Biso   1.000  C
  C20      1.0000 0.91300  0.07260  0.38500  Biso   1.000  C
  C21      1.0000 0.12640  0.84390  0.51820  Biso   1.000  C
  C22      1.0000 0.87360  0.15610  0.48180  Biso   1.000  C
  H41      1.0000 0.21350  0.73670  0.53020  Biso   1.000  H
  H42      1.0000 0.78650  0.26330  0.46980  Biso   1.000  H
  C23      1.0000 0.95930  0.08500  0.59500  Biso   1.000  C
  C24      1.0000 0.04070  0.91500  0.40500  Biso   1.000  C
  H43      1.0000 0.93110  0.14390  0.66000  Biso   1.000  H
  H44      1.0000 0.06890  0.85610  0.34000  Biso   1.000  H
