data_image0
_cell_length_a       11.457
_cell_length_b       16.9176
_cell_length_c       12.4634
_cell_angle_alpha    90
_cell_angle_beta     92.563
_cell_angle_gamma    90

_symmetry_space_group_name_H-M    "P 1"
_symmetry_int_tables_number       1

loop_
  _symmetry_equiv_pos_as_xyz
  'x, y, z'

loop_
  _atom_site_label
  _atom_site_occupancy
  _atom_site_fract_x
  _atom_site_fract_y
  _atom_site_fract_z
  _atom_site_thermal_displace_type
  _atom_site_B_iso_or_equiv
  _atom_site_type_symbol
  Mo1      1.0000 0.73345  0.61212  0.49846  Biso   1.000  Mo
  Mo2      1.0000 0.23345  0.88788  0.99846  Biso   1.000  Mo
  Mo3      1.0000 0.26655  0.38788  0.50154  Biso   1.000  Mo
  Mo4      1.0000 0.76655  0.11212  0.00154  Biso   1.000  Mo
  Mo5      1.0000 0.87041  0.53219  0.30448  Biso   1.000  Mo
  Mo6      1.0000 0.37041  0.96781  0.80448  Biso   1.000  Mo
  Mo7      1.0000 0.12959  0.46781  0.69552  Biso   1.000  Mo
  Mo8      1.0000 0.62959  0.03219  0.19552  Biso   1.000  Mo
  Mo9      1.0000 0.83234  0.47688  0.66281  Biso   1.000  Mo
  Mo10     1.0000 0.33234  0.02312  0.16281  Biso   1.000  Mo
  Mo11     1.0000 0.16766  0.52312  0.33719  Biso   1.000  Mo
  Mo12     1.0000 0.66766  0.97688  0.83719  Biso   1.000  Mo
  Mo13     1.0000 0.03238  0.60115  0.53259  Biso   1.000  Mo
  Mo14     1.0000 0.53238  0.89885  0.03259  Biso   1.000  Mo
  Mo15     1.0000 0.96762  0.39885  0.46741  Biso   1.000  Mo
  Mo16     1.0000 0.46762  0.10115  0.96741  Biso   1.000  Mo
  Cu1      1.0000 0.70506  0.46495  0.93029  Biso   1.000  Cu
  Cu2      1.0000 0.20506  0.03505  0.43029  Biso   1.000  Cu
  Cu3      1.0000 0.29494  0.53505  0.06971  Biso   1.000  Cu
  Cu4      1.0000 0.79494  0.96495  0.56971  Biso   1.000  Cu
  O1       1.0000 0.75980  0.55550  0.01210  Biso   1.000  O
  O2       1.0000 0.25980  0.94450  0.51210  Biso   1.000  O
  O3       1.0000 0.24020  0.44450  0.98790  Biso   1.000  O
  O4       1.0000 0.74020  0.05550  0.48790  Biso   1.000  O
  O5       1.0000 0.66600  0.65740  0.88890  Biso   1.000  O
  O6       1.0000 0.16600  0.84260  0.38890  Biso   1.000  O
  O7       1.0000 0.33400  0.34260  0.11110  Biso   1.000  O
  O8       1.0000 0.83400  0.15740  0.61110  Biso   1.000  O
  O9       1.0000 0.75500  0.47220  0.27850  Biso   1.000  O
  O10      1.0000 0.25500  0.02780  0.77850  Biso   1.000  O
  O11      1.0000 0.24500  0.52780  0.72150  Biso   1.000  O
  O12      1.0000 0.74500  0.97220  0.22150  Biso   1.000  O
  O13      1.0000 0.79510  0.62230  0.35750  Biso   1.000  O
  O14      1.0000 0.29510  0.87770  0.85750  Biso   1.000  O
  O15      1.0000 0.20490  0.37770  0.64250  Biso   1.000  O
  O16      1.0000 0.70490  0.12230  0.14250  Biso   1.000  O
  O17      1.0000 0.90720  0.56570  0.18020  Biso   1.000  O
  O18      1.0000 0.40720  0.93430  0.68020  Biso   1.000  O
  O19      1.0000 0.09280  0.43430  0.81980  Biso   1.000  O
  O20      1.0000 0.59280  0.06570  0.31980  Biso   1.000  O
  O21      1.0000 0.91200  0.66437  0.53340  Biso   1.000  O
  O22      1.0000 0.41200  0.83563  0.03340  Biso   1.000  O
  O23      1.0000 0.08800  0.33563  0.46660  Biso   1.000  O
  O24      1.0000 0.58800  0.16437  0.96660  Biso   1.000  O
  O25      1.0000 0.76760  0.57790  0.64430  Biso   1.000  O
  O26      1.0000 0.26760  0.92210  0.14430  Biso   1.000  O
  O27      1.0000 0.23240  0.42210  0.35570  Biso   1.000  O
  O28      1.0000 0.73240  0.07790  0.85570  Biso   1.000  O
  O29      1.0000 0.71830  0.41970  0.61850  Biso   1.000  O
  O30      1.0000 0.21830  0.08030  0.11850  Biso   1.000  O
  O31      1.0000 0.28170  0.58030  0.38150  Biso   1.000  O
  O32      1.0000 0.78170  0.91970  0.88150  Biso   1.000  O
  O33      1.0000 0.88000  0.50919  0.48560  Biso   1.000  O
  O34      1.0000 0.38000  0.99081  0.98560  Biso   1.000  O
  O35      1.0000 0.12000  0.49081  0.51440  Biso   1.000  O
  O36      1.0000 0.62000  0.00919  0.01440  Biso   1.000  O
  O37      1.0000 0.37730  0.45290  0.53260  Biso   1.000  O
  O38      1.0000 0.87730  0.04710  0.03260  Biso   1.000  O
  O39      1.0000 0.62270  0.54710  0.46740  Biso   1.000  O
  O40      1.0000 0.12270  0.95290  0.96740  Biso   1.000  O
  O41      1.0000 0.33480  0.30070  0.48150  Biso   1.000  O
  O42      1.0000 0.83480  0.19930  0.98150  Biso   1.000  O
  O43      1.0000 0.66520  0.69930  0.51850  Biso   1.000  O
  O44      1.0000 0.16520  0.80070  0.01850  Biso   1.000  O
  O45      1.0000 0.00670  0.54859  0.66950  Biso   1.000  O
  O46      1.0000 0.50670  0.95141  0.16950  Biso   1.000  O
  O47      1.0000 0.99330  0.45141  0.33050  Biso   1.000  O
  O48      1.0000 0.49330  0.04859  0.83050  Biso   1.000  O
  O49      1.0000 0.59940  0.53610  0.84880  Biso   1.000  O
  O50      1.0000 0.09940  0.96390  0.34880  Biso   1.000  O
  O51      1.0000 0.40060  0.46390  0.15120  Biso   1.000  O
  O52      1.0000 0.90060  0.03610  0.65120  Biso   1.000  O
  O53      1.0000 0.14770  0.65880  0.56620  Biso   1.000  O
  O54      1.0000 0.64770  0.84120  0.06620  Biso   1.000  O
  O55      1.0000 0.85230  0.34120  0.43380  Biso   1.000  O
  O56      1.0000 0.35230  0.15880  0.93380  Biso   1.000  O
  O57      1.0000 0.95950  0.40468  0.62340  Biso   1.000  O
  O58      1.0000 0.45950  0.09532  0.12340  Biso   1.000  O
  O59      1.0000 0.04050  0.59532  0.37660  Biso   1.000  O
  O60      1.0000 0.54050  0.90468  0.87660  Biso   1.000  O
  O61      1.0000 0.83760  0.46720  0.79960  Biso   1.000  O
  O62      1.0000 0.33760  0.03280  0.29960  Biso   1.000  O
  O63      1.0000 0.16240  0.53280  0.20040  Biso   1.000  O
  O64      1.0000 0.66240  0.96720  0.70040  Biso   1.000  O
  N1       1.0000 0.41830  0.61760  0.58410  Biso   1.000  N
  N2       1.0000 0.91830  0.88240  0.08410  Biso   1.000  N
  N3       1.0000 0.58170  0.38240  0.41590  Biso   1.000  N
  N4       1.0000 0.08170  0.11760  0.91590  Biso   1.000  N
  H1       1.0000 0.38980  0.58440  0.53760  Biso   1.000  H
  H2       1.0000 0.88980  0.91560  0.03760  Biso   1.000  H
  H3       1.0000 0.61020  0.41560  0.46240  Biso   1.000  H
  H4       1.0000 0.11020  0.08440  0.96240  Biso   1.000  H
  N5       1.0000 0.29910  0.10470  0.53010  Biso   1.000  N
  N6       1.0000 0.79910  0.39530  0.03010  Biso   1.000  N
  N7       1.0000 0.70090  0.89530  0.46990  Biso   1.000  N
  N8       1.0000 0.20090  0.60470  0.96990  Biso   1.000  N
  N9       1.0000 0.61740  0.37500  0.86170  Biso   1.000  N
  N10      1.0000 0.11740  0.12500  0.36170  Biso   1.000  N
  N11      1.0000 0.38260  0.62500  0.13830  Biso   1.000  N
  N12      1.0000 0.88260  0.87500  0.63830  Biso   1.000  N
  C1       1.0000 0.60480  0.61000  0.83560  Biso   1.000  C
  C2       1.0000 0.10480  0.89000  0.33560  Biso   1.000  C
  C3       1.0000 0.39520  0.39000  0.16440  Biso   1.000  C
  C4       1.0000 0.89520  0.11000  0.66440  Biso   1.000  C
  C5       1.0000 0.39620  0.69450  0.56910  Biso   1.000  C
  C6       1.0000 0.89620  0.80550  0.06910  Biso   1.000  C
  C7       1.0000 0.60380  0.30550  0.43090  Biso   1.000  C
  C8       1.0000 0.10380  0.19450  0.93090  Biso   1.000  C
  H5       1.0000 0.34700  0.71000  0.50500  Biso   1.000  H
  H6       1.0000 0.84700  0.79000  0.00500  Biso   1.000  H
  H7       1.0000 0.65300  0.29000  0.49500  Biso   1.000  H
  H8       1.0000 0.15300  0.21000  0.99500  Biso   1.000  H
  C9       1.0000 0.50660  0.72170  0.73190  Biso   1.000  C
  C10      1.0000 0.00660  0.77830  0.23190  Biso   1.000  C
  C11      1.0000 0.49340  0.27830  0.26810  Biso   1.000  C
  C12      1.0000 0.99340  0.22170  0.76810  Biso   1.000  C
  H9       1.0000 0.53500  0.75700  0.78100  Biso   1.000  H
  H10      1.0000 0.03500  0.74300  0.28100  Biso   1.000  H
  H11      1.0000 0.46500  0.24300  0.21900  Biso   1.000  H
  H12      1.0000 0.96500  0.25700  0.71900  Biso   1.000  H
  C13      1.0000 0.43900  0.74760  0.64300  Biso   1.000  C
  C14      1.0000 0.93900  0.75240  0.14300  Biso   1.000  C
  C15      1.0000 0.56100  0.25240  0.35700  Biso   1.000  C
  C16      1.0000 0.06100  0.24760  0.85700  Biso   1.000  C
  H13      1.0000 0.42600  0.80500  0.63700  Biso   1.000  H
  H14      1.0000 0.92600  0.69500  0.13700  Biso   1.000  H
  H15      1.0000 0.57400  0.19500  0.36300  Biso   1.000  H
  H16      1.0000 0.07400  0.30500  0.86300  Biso   1.000  H
  C17      1.0000 0.52920  0.64160  0.74330  Biso   1.000  C
  C18      1.0000 0.02920  0.85840  0.24330  Biso   1.000  C
  C19      1.0000 0.47080  0.35840  0.25670  Biso   1.000  C
  C20      1.0000 0.97080  0.14160  0.75670  Biso   1.000  C
  C21      1.0000 0.48260  0.58970  0.66810  Biso   1.000  C
  C22      1.0000 0.98260  0.91030  0.16810  Biso   1.000  C
  C23      1.0000 0.51740  0.41030  0.33190  Biso   1.000  C
  C24      1.0000 0.01740  0.08970  0.83190  Biso   1.000  C
  H17      1.0000 0.49500  0.52700  0.67200  Biso   1.000  H
  H18      1.0000 0.99500  0.97300  0.17200  Biso   1.000  H
  H19      1.0000 0.50500  0.47300  0.32800  Biso   1.000  H
  H20      1.0000 0.00500  0.02700  0.82800  Biso   1.000  H
  C25      1.0000 0.41610  0.10480  0.53210  Biso   1.000  C
  C26      1.0000 0.91610  0.39520  0.03210  Biso   1.000  C
  C27      1.0000 0.58390  0.89520  0.46790  Biso   1.000  C
  C28      1.0000 0.08390  0.60480  0.96790  Biso   1.000  C
  H21      1.0000 0.45000  0.06900  0.47700  Biso   1.000  H
  H22      1.0000 0.95000  0.43100  0.97700  Biso   1.000  H
  H23      1.0000 0.55000  0.93100  0.52300  Biso   1.000  H
  H24      1.0000 0.05000  0.56900  0.02300  Biso   1.000  H
  C29      1.0000 0.48190  0.15180  0.60330  Biso   1.000  C
  C30      1.0000 0.98190  0.34820  0.10330  Biso   1.000  C
  C31      1.0000 0.51810  0.84820  0.39670  Biso   1.000  C
  C32      1.0000 0.01810  0.65180  0.89670  Biso   1.000  C
  H25      1.0000 0.55600  0.14700  0.59900  Biso   1.000  H
  H26      1.0000 0.05600  0.35300  0.09900  Biso   1.000  H
  H27      1.0000 0.44400  0.85300  0.40100  Biso   1.000  H
  H28      1.0000 0.94400  0.64700  0.90100  Biso   1.000  H
  C33      1.0000 0.42770  0.20110  0.67440  Biso   1.000  C
  C34      1.0000 0.92770  0.29890  0.17440  Biso   1.000  C
  C35      1.0000 0.57230  0.79890  0.32560  Biso   1.000  C
  C36      1.0000 0.07230  0.70110  0.82560  Biso   1.000  C
  C37      1.0000 0.30700  0.19750  0.67320  Biso   1.000  C
  C38      1.0000 0.80700  0.30250  0.17320  Biso   1.000  C
  C39      1.0000 0.69300  0.80250  0.32680  Biso   1.000  C
  C40      1.0000 0.19300  0.69750  0.82680  Biso   1.000  C
  H29      1.0000 0.27400  0.22600  0.71700  Biso   1.000  H
  H30      1.0000 0.77400  0.27400  0.21700  Biso   1.000  H
  H31      1.0000 0.72600  0.77400  0.28300  Biso   1.000  H
  H32      1.0000 0.22600  0.72600  0.78300  Biso   1.000  H
  C41      1.0000 0.24640  0.15050  0.60130  Biso   1.000  C
  C42      1.0000 0.74640  0.34950  0.10130  Biso   1.000  C
  C43      1.0000 0.75360  0.84950  0.39870  Biso   1.000  C
  C44      1.0000 0.25360  0.65050  0.89870  Biso   1.000  C
  H33      1.0000 0.16800  0.14700  0.59900  Biso   1.000  H
  H34      1.0000 0.66800  0.35300  0.09900  Biso   1.000  H
  H35      1.0000 0.83200  0.85300  0.40100  Biso   1.000  H
  H36      1.0000 0.33200  0.64700  0.90100  Biso   1.000  H
  C45      1.0000 0.50110  0.37880  0.84360  Biso   1.000  C
  C46      1.0000 0.00110  0.12120  0.34360  Biso   1.000  C
  C47      1.0000 0.49890  0.62120  0.15640  Biso   1.000  C
  C48      1.0000 0.99890  0.87880  0.65640  Biso   1.000  C
  H37      1.0000 0.03300  0.92200  0.62600  Biso   1.000  H
  H38      1.0000 0.53300  0.57800  0.12600  Biso   1.000  H
  H39      1.0000 0.96700  0.07800  0.37400  Biso   1.000  H
  H40      1.0000 0.46700  0.42200  0.87400  Biso   1.000  H
  C49      1.0000 0.82920  0.81300  0.67920  Biso   1.000  C
  C50      1.0000 0.32920  0.68700  0.17920  Biso   1.000  C
  C51      1.0000 0.17080  0.18700  0.32080  Biso   1.000  C
  C52      1.0000 0.67080  0.31300  0.82080  Biso   1.000  C
  H41      1.0000 0.75900  0.81000  0.67400  Biso   1.000  H
  H42      1.0000 0.25900  0.69000  0.17400  Biso   1.000  H
  H43      1.0000 0.24100  0.19000  0.32600  Biso   1.000  H
  H44      1.0000 0.74100  0.31000  0.82600  Biso   1.000  H
  C53      1.0000 0.43900  0.32360  0.78630  Biso   1.000  C
  C54      1.0000 0.93900  0.17640  0.28630  Biso   1.000  C
  C55      1.0000 0.56100  0.67640  0.21370  Biso   1.000  C
  C56      1.0000 0.06100  0.82360  0.71370  Biso   1.000  C
  H45      1.0000 0.12700  0.82900  0.72500  Biso   1.000  H
  H46      1.0000 0.62700  0.67100  0.22500  Biso   1.000  H
  H47      1.0000 0.87300  0.17100  0.27500  Biso   1.000  H
  H48      1.0000 0.37300  0.32900  0.77500  Biso   1.000  H
  C57      1.0000 0.88610  0.75480  0.73810  Biso   1.000  C
  C58      1.0000 0.38610  0.74520  0.23810  Biso   1.000  C
  C59      1.0000 0.11390  0.24520  0.26190  Biso   1.000  C
  C60      1.0000 0.61390  0.25480  0.76190  Biso   1.000  C
  H49      1.0000 0.84800  0.71400  0.76300  Biso   1.000  H
  H50      1.0000 0.34800  0.78600  0.26300  Biso   1.000  H
  H51      1.0000 0.15200  0.28600  0.23700  Biso   1.000  H
  H52      1.0000 0.65200  0.21400  0.73700  Biso   1.000  H
  C61      1.0000 0.49390  0.25920  0.74180  Biso   1.000  C
  C62      1.0000 0.99390  0.24080  0.24180  Biso   1.000  C
  C63      1.0000 0.50610  0.74080  0.25820  Biso   1.000  C
  C64      1.0000 0.00610  0.75920  0.75820  Biso   1.000  C
  H53      1.0000 0.79600  0.56200  0.06700  Biso   1.000  H
  H54      1.0000 0.29600  0.93800  0.56700  Biso   1.000  H
  H55      1.0000 0.20400  0.43800  0.93300  Biso   1.000  H
  H56      1.0000 0.70400  0.06200  0.43300  Biso   1.000  H
  H57      1.0000 0.73800  0.59200  0.98900  Biso   1.000  H
  H58      1.0000 0.23800  0.90800  0.48900  Biso   1.000  H
  H59      1.0000 0.26200  0.40800  0.01100  Biso   1.000  H
  H60      1.0000 0.76200  0.09200  0.51100  Biso   1.000  H
