data_image0
_cell_length_a       8.1044
_cell_length_b       12.9859
_cell_length_c       13.0941
_cell_angle_alpha    90
_cell_angle_beta     90
_cell_angle_gamma    90

_symmetry_space_group_name_H-M    "P 1"
_symmetry_int_tables_number       1

loop_
  _symmetry_equiv_pos_as_xyz
  'x, y, z'

loop_
  _atom_site_label
  _atom_site_occupancy
  _atom_site_fract_x
  _atom_site_fract_y
  _atom_site_fract_z
  _atom_site_thermal_displace_type
  _atom_site_B_iso_or_equiv
  _atom_site_type_symbol
  Cu1      1.0000 0.00000  0.50000  0.50000  Biso   1.000  Cu
  Cu2      1.0000 0.50000  0.50000  0.00000  Biso   1.000  Cu
  Cu3      1.0000 0.50000  0.00000  0.50000  Biso   1.000  Cu
  Cu4      1.0000 0.00000  0.00000  0.00000  Biso   1.000  Cu
  N1       1.0000 0.93580  0.42205  0.19511  Biso   1.000  N
  N2       1.0000 0.56420  0.57795  0.69511  Biso   1.000  N
  N3       1.0000 0.43580  0.07795  0.80489  Biso   1.000  N
  N4       1.0000 0.06420  0.92205  0.30489  Biso   1.000  N
  N5       1.0000 0.06420  0.57795  0.80489  Biso   1.000  N
  N6       1.0000 0.43580  0.42205  0.30489  Biso   1.000  N
  N7       1.0000 0.56420  0.92205  0.19511  Biso   1.000  N
  N8       1.0000 0.93580  0.07795  0.69511  Biso   1.000  N
  N9       1.0000 0.04075  0.34734  0.22773  Biso   1.000  N
  N10      1.0000 0.45925  0.65266  0.72773  Biso   1.000  N
  N11      1.0000 0.54075  0.15266  0.77227  Biso   1.000  N
  N12      1.0000 0.95925  0.84734  0.27227  Biso   1.000  N
  N13      1.0000 0.95925  0.65266  0.77227  Biso   1.000  N
  N14      1.0000 0.54075  0.34734  0.27227  Biso   1.000  N
  N15      1.0000 0.45925  0.84734  0.22773  Biso   1.000  N
  N16      1.0000 0.04075  0.15266  0.72773  Biso   1.000  N
  N17      1.0000 0.98406  0.43684  0.36205  Biso   1.000  N
  N18      1.0000 0.51594  0.56316  0.86205  Biso   1.000  N
  N19      1.0000 0.48406  0.06316  0.63795  Biso   1.000  N
  N20      1.0000 0.01594  0.93684  0.13795  Biso   1.000  N
  N21      1.0000 0.01594  0.56316  0.63795  Biso   1.000  N
  N22      1.0000 0.48406  0.43684  0.13795  Biso   1.000  N
  N23      1.0000 0.51594  0.93684  0.36205  Biso   1.000  N
  N24      1.0000 0.98406  0.06316  0.86205  Biso   1.000  N
  C1       1.0000 0.00180  0.19127  0.11905  Biso   1.000  C
  C2       1.0000 0.49820  0.80873  0.61905  Biso   1.000  C
  C3       1.0000 0.50180  0.30873  0.88095  Biso   1.000  C
  C4       1.0000 0.99820  0.69127  0.38095  Biso   1.000  C
  C5       1.0000 0.99820  0.80873  0.88095  Biso   1.000  C
  C6       1.0000 0.50180  0.19127  0.38095  Biso   1.000  C
  C7       1.0000 0.49820  0.69127  0.11905  Biso   1.000  C
  C8       1.0000 0.00180  0.30873  0.61905  Biso   1.000  C
  C9       1.0000 0.11630  0.27625  0.15611  Biso   1.000  C
  C10      1.0000 0.38370  0.72375  0.65611  Biso   1.000  C
  C11      1.0000 0.61630  0.22375  0.84389  Biso   1.000  C
  C12      1.0000 0.88370  0.77625  0.34389  Biso   1.000  C
  C13      1.0000 0.88370  0.72375  0.84389  Biso   1.000  C
  C14      1.0000 0.61630  0.27625  0.34389  Biso   1.000  C
  C15      1.0000 0.38370  0.77625  0.15611  Biso   1.000  C
  C16      1.0000 0.11630  0.22375  0.65611  Biso   1.000  C
  H1       1.0000 0.21160  0.24490  0.18840  Biso   1.000  H
  H2       1.0000 0.28840  0.75510  0.68840  Biso   1.000  H
  H3       1.0000 0.71160  0.25510  0.81160  Biso   1.000  H
  H4       1.0000 0.78840  0.74490  0.31160  Biso   1.000  H
  H5       1.0000 0.78840  0.75510  0.81160  Biso   1.000  H
  H6       1.0000 0.71160  0.24490  0.31160  Biso   1.000  H
  H7       1.0000 0.28840  0.74490  0.18840  Biso   1.000  H
  H8       1.0000 0.21160  0.25510  0.68840  Biso   1.000  H
  H9       1.0000 0.15530  0.31480  0.09740  Biso   1.000  H
  H10      1.0000 0.34470  0.68520  0.59740  Biso   1.000  H
  H11      1.0000 0.65530  0.18520  0.90260  Biso   1.000  H
  H12      1.0000 0.84470  0.81480  0.40260  Biso   1.000  H
  H13      1.0000 0.84470  0.68520  0.90260  Biso   1.000  H
  H14      1.0000 0.65530  0.31480  0.40260  Biso   1.000  H
  H15      1.0000 0.34470  0.81480  0.09740  Biso   1.000  H
  H16      1.0000 0.15530  0.18520  0.59740  Biso   1.000  H
  C17      1.0000 0.90490  0.47329  0.27863  Biso   1.000  C
  C18      1.0000 0.59510  0.52671  0.77863  Biso   1.000  C
  C19      1.0000 0.40490  0.02671  0.72137  Biso   1.000  C
  C20      1.0000 0.09510  0.97329  0.22137  Biso   1.000  C
  C21      1.0000 0.09510  0.52671  0.72137  Biso   1.000  C
  C22      1.0000 0.40490  0.47329  0.22137  Biso   1.000  C
  C23      1.0000 0.59510  0.97329  0.27863  Biso   1.000  C
  C24      1.0000 0.90490  0.02671  0.77863  Biso   1.000  C
  H17      1.0000 0.83460  0.52990  0.28060  Biso   1.000  H
  H18      1.0000 0.66540  0.47010  0.78060  Biso   1.000  H
  H19      1.0000 0.33460  0.97010  0.71940  Biso   1.000  H
  H20      1.0000 0.16540  0.02990  0.21940  Biso   1.000  H
  H21      1.0000 0.16540  0.47010  0.71940  Biso   1.000  H
  H22      1.0000 0.33460  0.52990  0.21940  Biso   1.000  H
  H23      1.0000 0.66540  0.02990  0.28060  Biso   1.000  H
  H24      1.0000 0.83460  0.97010  0.78060  Biso   1.000  H
  C25      1.0000 0.06790  0.35693  0.32671  Biso   1.000  C
  C26      1.0000 0.43210  0.64307  0.82671  Biso   1.000  C
  C27      1.0000 0.56790  0.14307  0.67329  Biso   1.000  C
  C28      1.0000 0.93210  0.85693  0.17329  Biso   1.000  C
  C29      1.0000 0.93210  0.64307  0.67329  Biso   1.000  C
  C30      1.0000 0.56790  0.35693  0.17329  Biso   1.000  C
  C31      1.0000 0.43210  0.85693  0.32671  Biso   1.000  C
  C32      1.0000 0.06790  0.14307  0.82671  Biso   1.000  C
  H25      1.0000 0.13540  0.31420  0.36550  Biso   1.000  H
  H26      1.0000 0.36460  0.68580  0.86550  Biso   1.000  H
  H27      1.0000 0.63540  0.18580  0.63450  Biso   1.000  H
  H28      1.0000 0.86460  0.81420  0.13450  Biso   1.000  H
  H29      1.0000 0.86460  0.68580  0.63450  Biso   1.000  H
  H30      1.0000 0.63540  0.31420  0.13450  Biso   1.000  H
  H31      1.0000 0.36460  0.81420  0.36550  Biso   1.000  H
  H32      1.0000 0.13540  0.18580  0.86550  Biso   1.000  H
  O1       1.0000 0.07274  0.13360  0.05481  Biso   1.000  O
  O2       1.0000 0.42726  0.86640  0.55481  Biso   1.000  O
  O3       1.0000 0.57274  0.36640  0.94519  Biso   1.000  O
  O4       1.0000 0.92726  0.63360  0.44519  Biso   1.000  O
  O5       1.0000 0.92726  0.86640  0.94519  Biso   1.000  O
  O6       1.0000 0.57274  0.13360  0.44519  Biso   1.000  O
  O7       1.0000 0.42726  0.63360  0.05481  Biso   1.000  O
  O8       1.0000 0.07274  0.36640  0.55481  Biso   1.000  O
  O9       1.0000 0.86113  0.18354  0.15247  Biso   1.000  O
  O10      1.0000 0.63887  0.81646  0.65247  Biso   1.000  O
  O11      1.0000 0.36113  0.31646  0.84753  Biso   1.000  O
  O12      1.0000 0.13887  0.68354  0.34753  Biso   1.000  O
  O13      1.0000 0.13887  0.81646  0.84753  Biso   1.000  O
  O14      1.0000 0.36113  0.18354  0.34753  Biso   1.000  O
  O15      1.0000 0.63887  0.68354  0.15247  Biso   1.000  O
  O16      1.0000 0.86113  0.31646  0.65247  Biso   1.000  O
  O17      1.0000 0.70380  0.45462  0.52562  Biso   1.000  O
  O18      1.0000 0.79620  0.54538  0.02562  Biso   1.000  O
  O19      1.0000 0.20380  0.04538  0.47438  Biso   1.000  O
  O20      1.0000 0.29620  0.95462  0.97438  Biso   1.000  O
  O21      1.0000 0.29620  0.54538  0.47438  Biso   1.000  O
  O22      1.0000 0.20380  0.45462  0.97438  Biso   1.000  O
  O23      1.0000 0.79620  0.95462  0.52562  Biso   1.000  O
  O24      1.0000 0.70380  0.04538  0.02562  Biso   1.000  O
  H33      1.0000 0.73700  0.40100  0.57900  Biso   1.000  H
  H34      1.0000 0.76300  0.59900  0.07900  Biso   1.000  H
  H35      1.0000 0.23700  0.09900  0.42100  Biso   1.000  H
  H36      1.0000 0.26300  0.90100  0.92100  Biso   1.000  H
  H37      1.0000 0.26300  0.59900  0.42100  Biso   1.000  H
  H38      1.0000 0.23700  0.40100  0.92100  Biso   1.000  H
  H39      1.0000 0.76300  0.90100  0.57900  Biso   1.000  H
  H40      1.0000 0.73700  0.09900  0.07900  Biso   1.000  H
  H41      1.0000 0.65000  0.49800  0.55300  Biso   1.000  H
  H42      1.0000 0.85000  0.50200  0.05300  Biso   1.000  H
  H43      1.0000 0.15000  0.00200  0.44700  Biso   1.000  H
  H44      1.0000 0.35000  0.99800  0.94700  Biso   1.000  H
  H45      1.0000 0.35000  0.50200  0.44700  Biso   1.000  H
  H46      1.0000 0.15000  0.49800  0.94700  Biso   1.000  H
  H47      1.0000 0.85000  0.99800  0.55300  Biso   1.000  H
  H48      1.0000 0.65000  0.00200  0.05300  Biso   1.000  H
  O25      1.0000 0.42800  0.15690  0.08110  Biso   1.000  O
  O26      1.0000 0.07200  0.84310  0.58110  Biso   1.000  O
  O27      1.0000 0.92800  0.34310  0.91890  Biso   1.000  O
  O28      1.0000 0.57200  0.65690  0.41890  Biso   1.000  O
  O29      1.0000 0.57200  0.84310  0.91890  Biso   1.000  O
  O30      1.0000 0.92800  0.15690  0.41890  Biso   1.000  O
  O31      1.0000 0.07200  0.65690  0.08110  Biso   1.000  O
  O32      1.0000 0.42800  0.34310  0.58110  Biso   1.000  O
