data_image0
_cell_length_a       9.18
_cell_length_b       12.253
_cell_length_c       13.522
_cell_angle_alpha    90
_cell_angle_beta     90.66
_cell_angle_gamma    90

_symmetry_space_group_name_H-M    "P 1"
_symmetry_int_tables_number       1

loop_
  _symmetry_equiv_pos_as_xyz
  'x, y, z'

loop_
  _atom_site_label
  _atom_site_occupancy
  _atom_site_fract_x
  _atom_site_fract_y
  _atom_site_fract_z
  _atom_site_thermal_displace_type
  _atom_site_B_iso_or_equiv
  _atom_site_type_symbol
  Cu1      1.0000 0.00000  0.00000  0.00000  Biso   1.000  Cu
  Cu2      1.0000 0.50000  0.50000  0.50000  Biso   1.000  Cu
  P1       1.0000 0.85789  0.85873  0.18012  Biso   1.000  P
  P2       1.0000 0.64211  0.35873  0.31988  Biso   1.000  P
  P3       1.0000 0.14211  0.14127  0.81988  Biso   1.000  P
  P4       1.0000 0.35789  0.64127  0.68012  Biso   1.000  P
  Cl1      1.0000 0.09929  0.24369  0.14870  Biso   1.000  Cl
  Cl2      1.0000 0.40071  0.74369  0.35130  Biso   1.000  Cl
  Cl3      1.0000 0.90071  0.75631  0.85130  Biso   1.000  Cl
  Cl4      1.0000 0.59929  0.25631  0.64870  Biso   1.000  Cl
  O1       1.0000 0.94659  0.94252  0.13154  Biso   1.000  O
  O2       1.0000 0.55341  0.44252  0.36846  Biso   1.000  O
  O3       1.0000 0.05341  0.05748  0.86846  Biso   1.000  O
  O4       1.0000 0.44659  0.55748  0.63154  Biso   1.000  O
  O5       1.0000 0.86290  0.87261  0.29427  Biso   1.000  O
  O6       1.0000 0.63710  0.37261  0.20573  Biso   1.000  O
  O7       1.0000 0.13710  0.12739  0.70573  Biso   1.000  O
  O8       1.0000 0.36290  0.62739  0.79427  Biso   1.000  O
  O9       1.0000 0.90160  0.73889  0.16064  Biso   1.000  O
  O10      1.0000 0.59840  0.23889  0.33936  Biso   1.000  O
  O11      1.0000 0.09840  0.26111  0.83936  Biso   1.000  O
  O12      1.0000 0.40160  0.76111  0.66064  Biso   1.000  O
  O13      1.0000 0.69280  0.86347  0.15275  Biso   1.000  O
  O14      1.0000 0.80720  0.36347  0.34725  Biso   1.000  O
  O15      1.0000 0.30720  0.13653  0.84725  Biso   1.000  O
  O16      1.0000 0.19280  0.63653  0.65275  Biso   1.000  O
  O17      1.0000 0.08460  0.17268  0.06353  Biso   1.000  O
  O18      1.0000 0.41540  0.67268  0.43647  Biso   1.000  O
  O19      1.0000 0.91540  0.82732  0.93647  Biso   1.000  O
  O20      1.0000 0.58460  0.32732  0.56353  Biso   1.000  O
  O21      1.0000 0.23200  0.30310  0.14390  Biso   1.000  O
  O22      1.0000 0.26800  0.80310  0.35610  Biso   1.000  O
  O23      1.0000 0.76800  0.69690  0.85610  Biso   1.000  O
  O24      1.0000 0.73200  0.19690  0.64390  Biso   1.000  O
  O25      1.0000 0.97990  0.31830  0.14660  Biso   1.000  O
  O26      1.0000 0.52010  0.81830  0.35340  Biso   1.000  O
  O27      1.0000 0.02010  0.68170  0.85340  Biso   1.000  O
  O28      1.0000 0.47990  0.18170  0.64660  Biso   1.000  O
  O29      1.0000 0.09670  0.18080  0.23710  Biso   1.000  O
  O30      1.0000 0.40330  0.68080  0.26290  Biso   1.000  O
  O31      1.0000 0.90330  0.81920  0.76290  Biso   1.000  O
  O32      1.0000 0.59670  0.31920  0.73710  Biso   1.000  O
  N1       1.0000 0.19960  0.94027  0.02019  Biso   1.000  N
  N2       1.0000 0.30040  0.44027  0.47981  Biso   1.000  N
  N3       1.0000 0.80040  0.05973  0.97981  Biso   1.000  N
  N4       1.0000 0.69960  0.55973  0.52019  Biso   1.000  N
  C1       1.0000 0.26640  0.88010  0.95153  Biso   1.000  C
  C2       1.0000 0.23360  0.38010  0.54847  Biso   1.000  C
  C3       1.0000 0.73360  0.11990  0.04847  Biso   1.000  C
  C4       1.0000 0.76640  0.61990  0.45153  Biso   1.000  C
  H1       1.0000 0.21920  0.86750  0.89140  Biso   1.000  H
  H2       1.0000 0.28080  0.36750  0.60860  Biso   1.000  H
  H3       1.0000 0.78080  0.13250  0.10860  Biso   1.000  H
  H4       1.0000 0.71920  0.63250  0.39140  Biso   1.000  H
  C5       1.0000 0.40340  0.83600  0.96722  Biso   1.000  C
  C6       1.0000 0.09660  0.33600  0.53278  Biso   1.000  C
  C7       1.0000 0.59660  0.16400  0.03278  Biso   1.000  C
  C8       1.0000 0.90340  0.66400  0.46722  Biso   1.000  C
  H5       1.0000 0.44750  0.79480  0.91810  Biso   1.000  H
  H6       1.0000 0.05250  0.29480  0.58190  Biso   1.000  H
  H7       1.0000 0.55250  0.20520  0.08190  Biso   1.000  H
  H8       1.0000 0.94750  0.70520  0.41810  Biso   1.000  H
  C9       1.0000 0.47460  0.85368  0.05694  Biso   1.000  C
  C10      1.0000 0.02540  0.35368  0.44306  Biso   1.000  C
  C11      1.0000 0.52540  0.14632  0.94306  Biso   1.000  C
  C12      1.0000 0.97460  0.64632  0.55694  Biso   1.000  C
  C13      1.0000 0.40480  0.91559  0.12727  Biso   1.000  C
  C14      1.0000 0.09520  0.41559  0.37273  Biso   1.000  C
  C15      1.0000 0.59520  0.08441  0.87273  Biso   1.000  C
  C16      1.0000 0.90480  0.58441  0.62727  Biso   1.000  C
  H9       1.0000 0.44950  0.92890  0.18810  Biso   1.000  H
  H10      1.0000 0.05050  0.42890  0.31190  Biso   1.000  H
  H11      1.0000 0.55050  0.07110  0.81190  Biso   1.000  H
  H12      1.0000 0.94950  0.57110  0.68810  Biso   1.000  H
  C17      1.0000 0.26890  0.95740  0.10678  Biso   1.000  C
  C18      1.0000 0.23110  0.45740  0.39322  Biso   1.000  C
  C19      1.0000 0.73110  0.04260  0.89322  Biso   1.000  C
  C20      1.0000 0.76890  0.54260  0.60678  Biso   1.000  C
  H13      1.0000 0.22310  0.99920  0.15470  Biso   1.000  H
  H14      1.0000 0.27690  0.49920  0.34530  Biso   1.000  H
  H15      1.0000 0.77690  0.00080  0.84530  Biso   1.000  H
  H16      1.0000 0.72310  0.50080  0.65470  Biso   1.000  H
  C21      1.0000 0.62140  0.80390  0.07700  Biso   1.000  C
  C22      1.0000 0.87860  0.30390  0.42300  Biso   1.000  C
  C23      1.0000 0.37860  0.19610  0.92300  Biso   1.000  C
  C24      1.0000 0.12140  0.69610  0.57700  Biso   1.000  C
  H17      1.0000 0.61010  0.72840  0.09710  Biso   1.000  H
  H18      1.0000 0.88990  0.22840  0.40290  Biso   1.000  H
  H19      1.0000 0.38990  0.27160  0.90290  Biso   1.000  H
  H20      1.0000 0.11010  0.77160  0.59710  Biso   1.000  H
  H21      1.0000 0.67910  0.80550  0.01730  Biso   1.000  H
  H22      1.0000 0.82090  0.30550  0.48270  Biso   1.000  H
  H23      1.0000 0.32090  0.19450  0.98270  Biso   1.000  H
  H24      1.0000 0.17910  0.69450  0.51730  Biso   1.000  H
  C25      1.0000 0.84410  0.98180  0.33970  Biso   1.000  C
  C26      1.0000 0.65590  0.48180  0.16030  Biso   1.000  C
  C27      1.0000 0.15590  0.01820  0.66030  Biso   1.000  C
  C28      1.0000 0.34410  0.51820  0.83970  Biso   1.000  C
  H25      1.0000 0.93240  0.02440  0.33210  Biso   1.000  H
  H26      1.0000 0.56760  0.52440  0.16790  Biso   1.000  H
  H27      1.0000 0.06760  0.97560  0.66790  Biso   1.000  H
  H28      1.0000 0.43240  0.47560  0.83210  Biso   1.000  H
  H29      1.0000 0.76490  0.02030  0.30690  Biso   1.000  H
  H30      1.0000 0.73510  0.52030  0.19310  Biso   1.000  H
  H31      1.0000 0.23510  0.97970  0.69310  Biso   1.000  H
  H32      1.0000 0.26490  0.47970  0.80690  Biso   1.000  H
  C29      1.0000 0.81170  0.96870  0.44560  Biso   1.000  C
  C30      1.0000 0.68830  0.46870  0.05440  Biso   1.000  C
  C31      1.0000 0.18830  0.03130  0.55440  Biso   1.000  C
  C32      1.0000 0.31170  0.53130  0.94560  Biso   1.000  C
  H33      1.0000 0.79940  0.03920  0.47530  Biso   1.000  H
  H34      1.0000 0.70060  0.53920  0.02470  Biso   1.000  H
  H35      1.0000 0.20060  0.96080  0.52470  Biso   1.000  H
  H36      1.0000 0.29940  0.46080  0.97530  Biso   1.000  H
  H37      1.0000 0.89090  0.93120  0.47790  Biso   1.000  H
  H38      1.0000 0.60910  0.43120  0.02210  Biso   1.000  H
  H39      1.0000 0.10910  0.06880  0.52210  Biso   1.000  H
  H40      1.0000 0.39090  0.56880  0.97790  Biso   1.000  H
  H41      1.0000 0.72380  0.92710  0.45270  Biso   1.000  H
  H42      1.0000 0.77620  0.42710  0.04730  Biso   1.000  H
  H43      1.0000 0.27620  0.07290  0.54730  Biso   1.000  H
  H44      1.0000 0.22380  0.57290  0.95270  Biso   1.000  H
  C33      1.0000 0.05640  0.70770  0.15230  Biso   1.000  C
  C34      1.0000 0.44360  0.20770  0.34770  Biso   1.000  C
  C35      1.0000 0.94360  0.29230  0.84770  Biso   1.000  C
  C36      1.0000 0.55640  0.79230  0.65230  Biso   1.000  C
  H45      1.0000 0.09680  0.74010  0.09320  Biso   1.000  H
  H46      1.0000 0.40320  0.24010  0.40680  Biso   1.000  H
  H47      1.0000 0.90320  0.25990  0.90680  Biso   1.000  H
  H48      1.0000 0.59680  0.75990  0.59320  Biso   1.000  H
  H49      1.0000 0.11050  0.73530  0.20900  Biso   1.000  H
  H50      1.0000 0.38950  0.23530  0.29100  Biso   1.000  H
  H51      1.0000 0.88950  0.26470  0.79100  Biso   1.000  H
  H52      1.0000 0.61050  0.76470  0.70900  Biso   1.000  H
  C37      1.0000 0.07040  0.59620  0.14780  Biso   1.000  C
  C38      1.0000 0.42960  0.09620  0.35220  Biso   1.000  C
  C39      1.0000 0.92960  0.40380  0.85220  Biso   1.000  C
  C40      1.0000 0.57040  0.90380  0.64780  Biso   1.000  C
  H53      1.0000 0.17150  0.57740  0.14240  Biso   1.000  H
  H54      1.0000 0.32850  0.07740  0.35760  Biso   1.000  H
  H55      1.0000 0.82850  0.42260  0.85760  Biso   1.000  H
  H56      1.0000 0.67150  0.92260  0.64240  Biso   1.000  H
  H57      1.0000 0.01790  0.56910  0.09120  Biso   1.000  H
  H58      1.0000 0.48210  0.06910  0.40880  Biso   1.000  H
  H59      1.0000 0.98210  0.43090  0.90880  Biso   1.000  H
  H60      1.0000 0.51790  0.93090  0.59120  Biso   1.000  H
  H61      1.0000 0.03160  0.56420  0.20680  Biso   1.000  H
  H62      1.0000 0.46840  0.06420  0.29320  Biso   1.000  H
  H63      1.0000 0.96840  0.43580  0.79320  Biso   1.000  H
  H64      1.0000 0.53160  0.93580  0.70680  Biso   1.000  H
  O33      1.0000 0.25900  0.25100  0.15240  Biso   1.000  O
  O34      1.0000 0.24100  0.75100  0.34760  Biso   1.000  O
  O35      1.0000 0.74100  0.74900  0.84760  Biso   1.000  O
  O36      1.0000 0.75900  0.24900  0.65240  Biso   1.000  O
  O37      1.0000 0.04300  0.34570  0.14030  Biso   1.000  O
  O38      1.0000 0.45700  0.84570  0.35970  Biso   1.000  O
  O39      1.0000 0.95700  0.65430  0.85970  Biso   1.000  O
  O40      1.0000 0.54300  0.15430  0.64030  Biso   1.000  O
  O41      1.0000 0.03500  0.18800  0.23300  Biso   1.000  O
  O42      1.0000 0.46500  0.68800  0.26700  Biso   1.000  O
  O43      1.0000 0.96500  0.81200  0.76700  Biso   1.000  O
  O44      1.0000 0.53500  0.31200  0.73300  Biso   1.000  O
