data_image0
_cell_length_a       8.385
_cell_length_b       9.168
_cell_length_c       20.215
_cell_angle_alpha    90
_cell_angle_beta     90
_cell_angle_gamma    90

_symmetry_space_group_name_H-M    "P 1"
_symmetry_int_tables_number       1

loop_
  _symmetry_equiv_pos_as_xyz
  'x, y, z'

loop_
  _atom_site_label
  _atom_site_occupancy
  _atom_site_fract_x
  _atom_site_fract_y
  _atom_site_fract_z
  _atom_site_thermal_displace_type
  _atom_site_B_iso_or_equiv
  _atom_site_type_symbol
  Cu1      1.0000 0.92412  0.52779  0.99265  Biso   1.000  Cu
  Cu2      1.0000 0.42412  0.97221  0.00735  Biso   1.000  Cu
  Cu3      1.0000 0.07588  0.02779  0.50735  Biso   1.000  Cu
  Cu4      1.0000 0.57588  0.47221  0.49265  Biso   1.000  Cu
  O1       1.0000 0.10170  0.51400  0.93442  Biso   1.000  O
  O2       1.0000 0.60170  0.98600  0.06558  Biso   1.000  O
  O3       1.0000 0.89830  0.01400  0.56558  Biso   1.000  O
  O4       1.0000 0.39830  0.48600  0.43442  Biso   1.000  O
  N1       1.0000 0.06110  0.62030  0.06090  Biso   1.000  N
  N2       1.0000 0.56110  0.87970  0.93910  Biso   1.000  N
  N3       1.0000 0.93890  0.12030  0.43910  Biso   1.000  N
  N4       1.0000 0.43890  0.37970  0.56090  Biso   1.000  N
  N5       1.0000 0.80000  0.38860  0.93919  Biso   1.000  N
  N6       1.0000 0.30000  0.11140  0.06081  Biso   1.000  N
  N7       1.0000 0.20000  0.88860  0.56081  Biso   1.000  N
  N8       1.0000 0.70000  0.61140  0.43919  Biso   1.000  N
  N9       1.0000 0.74680  0.49840  0.06180  Biso   1.000  N
  N10      1.0000 0.24680  0.00160  0.93820  Biso   1.000  N
  N11      1.0000 0.25320  0.99840  0.43820  Biso   1.000  N
  N12      1.0000 0.75320  0.50160  0.56180  Biso   1.000  N
  C1       1.0000 0.80000  0.38050  0.10617  Biso   1.000  C
  C2       1.0000 0.30000  0.11950  0.89383  Biso   1.000  C
  C3       1.0000 0.20000  0.88050  0.39383  Biso   1.000  C
  C4       1.0000 0.70000  0.61950  0.60617  Biso   1.000  C
  H1       1.0000 0.89190  0.41220  0.13060  Biso   1.000  H
  H2       1.0000 0.39190  0.08780  0.86940  Biso   1.000  H
  H3       1.0000 0.10810  0.91220  0.36940  Biso   1.000  H
  H4       1.0000 0.60810  0.58780  0.63060  Biso   1.000  H
  H5       1.0000 0.82710  0.29600  0.08040  Biso   1.000  H
  H6       1.0000 0.32710  0.20400  0.91960  Biso   1.000  H
  H7       1.0000 0.17290  0.79600  0.41960  Biso   1.000  H
  H8       1.0000 0.67290  0.70400  0.58040  Biso   1.000  H
  H9       1.0000 0.71570  0.35640  0.13640  Biso   1.000  H
  H10      1.0000 0.21570  0.14360  0.86360  Biso   1.000  H
  H11      1.0000 0.28430  0.85640  0.36360  Biso   1.000  H
  H12      1.0000 0.78430  0.64360  0.63640  Biso   1.000  H
  N13      1.0000 0.18710  0.67830  0.05252  Biso   1.000  N
  N14      1.0000 0.68710  0.82170  0.94748  Biso   1.000  N
  N15      1.0000 0.81290  0.17830  0.44748  Biso   1.000  N
  N16      1.0000 0.31290  0.32170  0.55252  Biso   1.000  N
  N17      1.0000 0.30890  0.73630  0.04777  Biso   1.000  N
  N18      1.0000 0.80890  0.76370  0.95223  Biso   1.000  N
  N19      1.0000 0.69110  0.23630  0.45223  Biso   1.000  N
  N20      1.0000 0.19110  0.26370  0.54777  Biso   1.000  N
  C5       1.0000 0.84160  0.32810  0.88349  Biso   1.000  C
  C6       1.0000 0.34160  0.17190  0.11651  Biso   1.000  C
  C7       1.0000 0.15840  0.82810  0.61651  Biso   1.000  C
  C8       1.0000 0.65840  0.67190  0.38349  Biso   1.000  C
  C9       1.0000 0.98290  0.37320  0.84658  Biso   1.000  C
  C10      1.0000 0.48290  0.12680  0.15342  Biso   1.000  C
  C11      1.0000 0.01710  0.87320  0.65342  Biso   1.000  C
  C12      1.0000 0.51710  0.62680  0.34658  Biso   1.000  C
  C13      1.0000 0.00480  0.32260  0.77963  Biso   1.000  C
  C14      1.0000 0.50480  0.17740  0.22037  Biso   1.000  C
  C15      1.0000 0.99520  0.82260  0.72037  Biso   1.000  C
  C16      1.0000 0.49520  0.67740  0.27963  Biso   1.000  C
  H13      1.0000 0.92180  0.27240  0.75930  Biso   1.000  H
  H14      1.0000 0.42180  0.22760  0.24070  Biso   1.000  H
  H15      1.0000 0.07820  0.77240  0.74070  Biso   1.000  H
  H16      1.0000 0.57820  0.72760  0.25930  Biso   1.000  H
  C17      1.0000 0.14070  0.34490  0.74515  Biso   1.000  C
  C18      1.0000 0.64070  0.15510  0.25485  Biso   1.000  C
  C19      1.0000 0.85930  0.84490  0.75485  Biso   1.000  C
  C20      1.0000 0.35930  0.65510  0.24515  Biso   1.000  C
  H17      1.0000 0.14790  0.31200  0.70170  Biso   1.000  H
  H18      1.0000 0.64790  0.18800  0.29830  Biso   1.000  H
  H19      1.0000 0.85210  0.81200  0.79830  Biso   1.000  H
  H20      1.0000 0.35210  0.68800  0.20170  Biso   1.000  H
  C21      1.0000 0.27320  0.41830  0.77445  Biso   1.000  C
  C22      1.0000 0.77320  0.08170  0.22555  Biso   1.000  C
  C23      1.0000 0.72680  0.91830  0.72555  Biso   1.000  C
  C24      1.0000 0.22680  0.58170  0.27445  Biso   1.000  C
  C25      1.0000 0.25550  0.47650  0.83918  Biso   1.000  C
  C26      1.0000 0.75550  0.02350  0.16082  Biso   1.000  C
  C27      1.0000 0.74450  0.97650  0.66082  Biso   1.000  C
  C28      1.0000 0.24450  0.52350  0.33918  Biso   1.000  C
  C29      1.0000 0.38470  0.54820  0.86843  Biso   1.000  C
  C30      1.0000 0.88470  0.95180  0.13157  Biso   1.000  C
  C31      1.0000 0.61530  0.04820  0.63157  Biso   1.000  C
  C32      1.0000 0.11530  0.45180  0.36843  Biso   1.000  C
  H21      1.0000 0.37370  0.58640  0.91080  Biso   1.000  H
  H22      1.0000 0.87370  0.91360  0.08920  Biso   1.000  H
  H23      1.0000 0.62630  0.08640  0.58920  Biso   1.000  H
  H24      1.0000 0.12630  0.41360  0.41080  Biso   1.000  H
  C33      1.0000 0.52820  0.56320  0.83569  Biso   1.000  C
  C34      1.0000 0.02820  0.93680  0.16431  Biso   1.000  C
  C35      1.0000 0.47180  0.06320  0.66431  Biso   1.000  C
  C36      1.0000 0.97180  0.43680  0.33569  Biso   1.000  C
  H25      1.0000 0.61300  0.61090  0.85590  Biso   1.000  H
  H26      1.0000 0.11300  0.88910  0.14410  Biso   1.000  H
  H27      1.0000 0.38700  0.11090  0.64410  Biso   1.000  H
  H28      1.0000 0.88700  0.38910  0.35590  Biso   1.000  H
  C37      1.0000 0.54520  0.50630  0.77208  Biso   1.000  C
  C38      1.0000 0.04520  0.99370  0.22792  Biso   1.000  C
  C39      1.0000 0.45480  0.00630  0.72792  Biso   1.000  C
  C40      1.0000 0.95480  0.49370  0.27208  Biso   1.000  C
  H29      1.0000 0.64190  0.51650  0.75000  Biso   1.000  H
  H30      1.0000 0.14190  0.98350  0.25000  Biso   1.000  H
  H31      1.0000 0.35810  0.01650  0.75000  Biso   1.000  H
  H32      1.0000 0.85810  0.48350  0.25000  Biso   1.000  H
  C41      1.0000 0.42200  0.43600  0.74190  Biso   1.000  C
  C42      1.0000 0.92200  0.06400  0.25810  Biso   1.000  C
  C43      1.0000 0.57800  0.93600  0.75810  Biso   1.000  C
  C44      1.0000 0.07800  0.56400  0.24190  Biso   1.000  C
  H33      1.0000 0.43540  0.39910  0.69940  Biso   1.000  H
  H34      1.0000 0.93540  0.10090  0.30060  Biso   1.000  H
  H35      1.0000 0.56460  0.89910  0.80060  Biso   1.000  H
  H36      1.0000 0.06460  0.60090  0.19940  Biso   1.000  H
  C45      1.0000 0.10610  0.45710  0.87534  Biso   1.000  C
  C46      1.0000 0.60610  0.04290  0.12466  Biso   1.000  C
  C47      1.0000 0.89390  0.95710  0.62466  Biso   1.000  C
  C48      1.0000 0.39390  0.54290  0.37534  Biso   1.000  C
  C49      1.0000 0.74470  0.20310  0.85580  Biso   1.000  C
  C50      1.0000 0.24470  0.29690  0.14420  Biso   1.000  C
  C51      1.0000 0.25530  0.70310  0.64420  Biso   1.000  C
  C52      1.0000 0.75530  0.79690  0.35580  Biso   1.000  C
  H37      1.0000 0.65590  0.18370  0.88450  Biso   1.000  H
  H38      1.0000 0.15590  0.31630  0.11550  Biso   1.000  H
  H39      1.0000 0.34410  0.68370  0.61550  Biso   1.000  H
  H40      1.0000 0.84410  0.81630  0.38450  Biso   1.000  H
  H41      1.0000 0.81050  0.11770  0.85270  Biso   1.000  H
  H42      1.0000 0.31050  0.38230  0.14730  Biso   1.000  H
  H43      1.0000 0.18950  0.61770  0.64730  Biso   1.000  H
  H44      1.0000 0.68950  0.88230  0.35270  Biso   1.000  H
  H45      1.0000 0.70610  0.22860  0.81260  Biso   1.000  H
  H46      1.0000 0.20610  0.27140  0.18740  Biso   1.000  H
  H47      1.0000 0.29390  0.72860  0.68740  Biso   1.000  H
  H48      1.0000 0.79390  0.77140  0.31260  Biso   1.000  H
  C53      1.0000 0.65340  0.34070  0.97251  Biso   1.000  C
  C54      1.0000 0.15340  0.15930  0.02749  Biso   1.000  C
  C55      1.0000 0.34660  0.84070  0.52749  Biso   1.000  C
  C56      1.0000 0.84660  0.65930  0.47251  Biso   1.000  C
  H49      1.0000 0.67120  0.24770  0.99410  Biso   1.000  H
  H50      1.0000 0.17120  0.25230  0.00590  Biso   1.000  H
  H51      1.0000 0.32880  0.74770  0.50590  Biso   1.000  H
  H52      1.0000 0.82880  0.75230  0.49410  Biso   1.000  H
  H53      1.0000 0.56860  0.32870  0.94030  Biso   1.000  H
  H54      1.0000 0.06860  0.17130  0.05970  Biso   1.000  H
  H55      1.0000 0.43140  0.82870  0.55970  Biso   1.000  H
  H56      1.0000 0.93140  0.67130  0.44030  Biso   1.000  H
  C57      1.0000 0.60650  0.45340  0.02291  Biso   1.000  C
  C58      1.0000 0.10650  0.04660  0.97709  Biso   1.000  C
  C59      1.0000 0.39350  0.95340  0.47709  Biso   1.000  C
  C60      1.0000 0.89350  0.54660  0.52291  Biso   1.000  C
  H57      1.0000 0.56130  0.53770  0.00070  Biso   1.000  H
  H58      1.0000 0.06130  0.96230  0.99930  Biso   1.000  H
  H59      1.0000 0.43870  0.03770  0.49930  Biso   1.000  H
  H60      1.0000 0.93870  0.46230  0.50070  Biso   1.000  H
  H61      1.0000 0.52590  0.41340  0.05220  Biso   1.000  H
  H62      1.0000 0.02590  0.08660  0.94780  Biso   1.000  H
  H63      1.0000 0.47410  0.91340  0.44780  Biso   1.000  H
  H64      1.0000 0.97410  0.58660  0.55220  Biso   1.000  H
  C61      1.0000 0.70410  0.62660  0.10303  Biso   1.000  C
  C62      1.0000 0.20410  0.87340  0.89697  Biso   1.000  C
  C63      1.0000 0.29590  0.12660  0.39697  Biso   1.000  C
  C64      1.0000 0.79590  0.37340  0.60303  Biso   1.000  C
  H65      1.0000 0.79520  0.65650  0.12840  Biso   1.000  H
  H66      1.0000 0.29520  0.84350  0.87160  Biso   1.000  H
  H67      1.0000 0.20480  0.15650  0.37160  Biso   1.000  H
  H68      1.0000 0.70480  0.34350  0.62840  Biso   1.000  H
  H69      1.0000 0.61860  0.60090  0.13240  Biso   1.000  H
  H70      1.0000 0.11860  0.89910  0.86760  Biso   1.000  H
  H71      1.0000 0.38140  0.10090  0.36760  Biso   1.000  H
  H72      1.0000 0.88140  0.39910  0.63240  Biso   1.000  H
  H73      1.0000 0.67070  0.70530  0.07490  Biso   1.000  H
  H74      1.0000 0.17070  0.79470  0.92510  Biso   1.000  H
  H75      1.0000 0.32930  0.20530  0.42510  Biso   1.000  H
  H76      1.0000 0.82930  0.29470  0.57490  Biso   1.000  H
