data_image0
_cell_length_a       8.3537
_cell_length_b       9.1463
_cell_length_c       20.1898
_cell_angle_alpha    90
_cell_angle_beta     90
_cell_angle_gamma    90

_symmetry_space_group_name_H-M    "P 1"
_symmetry_int_tables_number       1

loop_
  _symmetry_equiv_pos_as_xyz
  'x, y, z'

loop_
  _atom_site_label
  _atom_site_occupancy
  _atom_site_fract_x
  _atom_site_fract_y
  _atom_site_fract_z
  _atom_site_thermal_displace_type
  _atom_site_B_iso_or_equiv
  _atom_site_type_symbol
  Cu1      1.0000 0.07596  0.02764  0.00737  Biso   1.000  Cu
  Cu2      1.0000 0.42404  0.97236  0.50737  Biso   1.000  Cu
  Cu3      1.0000 0.57596  0.47236  0.99263  Biso   1.000  Cu
  Cu4      1.0000 0.92404  0.52764  0.49263  Biso   1.000  Cu
  O1       1.0000 0.89863  0.01390  0.06581  Biso   1.000  O
  O2       1.0000 0.60137  0.98610  0.56581  Biso   1.000  O
  O3       1.0000 0.39863  0.48610  0.93419  Biso   1.000  O
  O4       1.0000 0.10137  0.51390  0.43419  Biso   1.000  O
  N1       1.0000 0.25320  0.99840  0.93793  Biso   1.000  N
  N2       1.0000 0.24680  0.00160  0.43793  Biso   1.000  N
  N3       1.0000 0.75320  0.50160  0.06207  Biso   1.000  N
  N4       1.0000 0.74680  0.49840  0.56207  Biso   1.000  N
  N5       1.0000 0.81300  0.17820  0.94755  Biso   1.000  N
  N6       1.0000 0.68700  0.82180  0.44755  Biso   1.000  N
  N7       1.0000 0.31300  0.32180  0.05245  Biso   1.000  N
  N8       1.0000 0.18700  0.67820  0.55245  Biso   1.000  N
  N9       1.0000 0.19990  0.88890  0.06112  Biso   1.000  N
  N10      1.0000 0.30010  0.11110  0.56112  Biso   1.000  N
  N11      1.0000 0.69990  0.61110  0.93888  Biso   1.000  N
  N12      1.0000 0.80010  0.38890  0.43888  Biso   1.000  N
  N13      1.0000 0.69170  0.23650  0.95220  Biso   1.000  N
  N14      1.0000 0.80830  0.76350  0.45220  Biso   1.000  N
  N15      1.0000 0.19170  0.26350  0.04780  Biso   1.000  N
  N16      1.0000 0.30830  0.73650  0.54780  Biso   1.000  N
  C1       1.0000 0.74450  0.97600  0.16093  Biso   1.000  C
  C2       1.0000 0.75550  0.02400  0.66093  Biso   1.000  C
  C3       1.0000 0.24450  0.52400  0.83907  Biso   1.000  C
  C4       1.0000 0.25550  0.47600  0.33907  Biso   1.000  C
  C5       1.0000 0.89390  0.95710  0.12447  Biso   1.000  C
  C6       1.0000 0.60610  0.04290  0.62447  Biso   1.000  C
  C7       1.0000 0.39390  0.54290  0.87553  Biso   1.000  C
  C8       1.0000 0.10610  0.45710  0.37553  Biso   1.000  C
  N17      1.0000 0.93910  0.12070  0.93914  Biso   1.000  N
  N18      1.0000 0.56090  0.87930  0.43914  Biso   1.000  N
  N19      1.0000 0.43910  0.37930  0.06086  Biso   1.000  N
  N20      1.0000 0.06090  0.62070  0.56086  Biso   1.000  N
  C9       1.0000 0.39320  0.95390  0.97697  Biso   1.000  C
  C10      1.0000 0.10680  0.04610  0.47697  Biso   1.000  C
  C11      1.0000 0.89320  0.54610  0.02303  Biso   1.000  C
  C12      1.0000 0.60680  0.45390  0.52303  Biso   1.000  C
  H1       1.0000 0.43780  0.03850  0.99930  Biso   1.000  H
  H2       1.0000 0.06220  0.96150  0.49930  Biso   1.000  H
  H3       1.0000 0.93780  0.46150  0.00070  Biso   1.000  H
  H4       1.0000 0.56220  0.53850  0.50070  Biso   1.000  H
  H5       1.0000 0.47460  0.91440  0.94770  Biso   1.000  H
  H6       1.0000 0.02540  0.08560  0.44770  Biso   1.000  H
  H7       1.0000 0.97460  0.58560  0.05230  Biso   1.000  H
  H8       1.0000 0.52540  0.41440  0.55230  Biso   1.000  H
  C13      1.0000 0.61590  0.04890  0.13138  Biso   1.000  C
  C14      1.0000 0.88410  0.95110  0.63138  Biso   1.000  C
  C15      1.0000 0.11590  0.45110  0.86862  Biso   1.000  C
  C16      1.0000 0.38410  0.54890  0.36862  Biso   1.000  C
  H9       1.0000 0.62750  0.08830  0.08920  Biso   1.000  H
  H10      1.0000 0.87250  0.91170  0.58920  Biso   1.000  H
  H11      1.0000 0.12750  0.41170  0.91080  Biso   1.000  H
  H12      1.0000 0.37250  0.58830  0.41080  Biso   1.000  H
  C17      1.0000 0.01710  0.87340  0.15338  Biso   1.000  C
  C18      1.0000 0.48290  0.12660  0.65338  Biso   1.000  C
  C19      1.0000 0.51710  0.62660  0.84662  Biso   1.000  C
  C20      1.0000 0.98290  0.37340  0.34662  Biso   1.000  C
  C21      1.0000 0.72750  0.91830  0.22569  Biso   1.000  C
  C22      1.0000 0.77250  0.08170  0.72569  Biso   1.000  C
  C23      1.0000 0.22750  0.58170  0.77431  Biso   1.000  C
  C24      1.0000 0.27250  0.41830  0.27431  Biso   1.000  C
  C25      1.0000 0.25510  0.70270  0.14428  Biso   1.000  C
  C26      1.0000 0.24490  0.29730  0.64428  Biso   1.000  C
  C27      1.0000 0.75510  0.79730  0.85572  Biso   1.000  C
  C28      1.0000 0.74490  0.20270  0.35572  Biso   1.000  C
  H13      1.0000 0.34440  0.68350  0.11560  Biso   1.000  H
  H14      1.0000 0.15560  0.31650  0.61560  Biso   1.000  H
  H15      1.0000 0.84440  0.81650  0.88440  Biso   1.000  H
  H16      1.0000 0.65560  0.18350  0.38440  Biso   1.000  H
  H17      1.0000 0.18880  0.61720  0.14700  Biso   1.000  H
  H18      1.0000 0.31120  0.38280  0.64700  Biso   1.000  H
  H19      1.0000 0.68880  0.88280  0.85300  Biso   1.000  H
  H20      1.0000 0.81120  0.11720  0.35300  Biso   1.000  H
  H21      1.0000 0.29350  0.72750  0.18770  Biso   1.000  H
  H22      1.0000 0.20650  0.27250  0.68770  Biso   1.000  H
  H23      1.0000 0.79350  0.77250  0.81230  Biso   1.000  H
  H24      1.0000 0.70650  0.22750  0.31230  Biso   1.000  H
  C29      1.0000 0.15820  0.82890  0.11675  Biso   1.000  C
  C30      1.0000 0.34180  0.17110  0.61675  Biso   1.000  C
  C31      1.0000 0.65820  0.67110  0.88325  Biso   1.000  C
  C32      1.0000 0.84180  0.32890  0.38325  Biso   1.000  C
  C33      1.0000 0.99470  0.82270  0.22033  Biso   1.000  C
  C34      1.0000 0.50530  0.17730  0.72033  Biso   1.000  C
  C35      1.0000 0.49470  0.67730  0.77967  Biso   1.000  C
  C36      1.0000 0.00530  0.32270  0.27967  Biso   1.000  C
  H25      1.0000 0.07820  0.77250  0.24060  Biso   1.000  H
  H26      1.0000 0.42180  0.22750  0.74060  Biso   1.000  H
  H27      1.0000 0.57820  0.72750  0.75940  Biso   1.000  H
  H28      1.0000 0.92180  0.27250  0.25940  Biso   1.000  H
  C37      1.0000 0.57840  0.93580  0.25811  Biso   1.000  C
  C38      1.0000 0.92160  0.06420  0.75811  Biso   1.000  C
  C39      1.0000 0.07840  0.56420  0.74189  Biso   1.000  C
  C40      1.0000 0.42160  0.43580  0.24189  Biso   1.000  C
  H29      1.0000 0.56490  0.89870  0.30060  Biso   1.000  H
  H30      1.0000 0.93510  0.10130  0.80060  Biso   1.000  H
  H31      1.0000 0.06490  0.60130  0.69940  Biso   1.000  H
  H32      1.0000 0.43510  0.39870  0.19940  Biso   1.000  H
  C41      1.0000 0.34700  0.84060  0.02733  Biso   1.000  C
  C42      1.0000 0.15300  0.15940  0.52733  Biso   1.000  C
  C43      1.0000 0.84700  0.65940  0.97267  Biso   1.000  C
  C44      1.0000 0.65300  0.34060  0.47267  Biso   1.000  C
  H33      1.0000 0.32880  0.74740  0.00570  Biso   1.000  H
  H34      1.0000 0.17120  0.25260  0.50570  Biso   1.000  H
  H35      1.0000 0.82880  0.75260  0.99430  Biso   1.000  H
  H36      1.0000 0.67120  0.24740  0.49430  Biso   1.000  H
  H37      1.0000 0.43260  0.82830  0.05930  Biso   1.000  H
  H38      1.0000 0.06740  0.17170  0.55930  Biso   1.000  H
  H39      1.0000 0.93260  0.67170  0.94070  Biso   1.000  H
  H40      1.0000 0.56740  0.32830  0.44070  Biso   1.000  H
  C45      1.0000 0.85980  0.84410  0.25482  Biso   1.000  C
  C46      1.0000 0.64020  0.15590  0.75482  Biso   1.000  C
  C47      1.0000 0.35980  0.65590  0.74518  Biso   1.000  C
  C48      1.0000 0.14020  0.34410  0.24518  Biso   1.000  C
  H41      1.0000 0.85240  0.81020  0.29810  Biso   1.000  H
  H42      1.0000 0.64760  0.18980  0.79810  Biso   1.000  H
  H43      1.0000 0.35240  0.68980  0.70190  Biso   1.000  H
  H44      1.0000 0.14760  0.31020  0.20190  Biso   1.000  H
  C49      1.0000 0.45490  0.00620  0.22803  Biso   1.000  C
  C50      1.0000 0.04510  0.99380  0.72803  Biso   1.000  C
  C51      1.0000 0.95490  0.49380  0.77197  Biso   1.000  C
  C52      1.0000 0.54510  0.50620  0.27197  Biso   1.000  C
  H45      1.0000 0.35800  0.01660  0.25020  Biso   1.000  H
  H46      1.0000 0.14200  0.98340  0.75020  Biso   1.000  H
  H47      1.0000 0.85800  0.48340  0.74980  Biso   1.000  H
  H48      1.0000 0.64200  0.51660  0.24980  Biso   1.000  H
  C53      1.0000 0.29580  0.12640  0.89695  Biso   1.000  C
  C54      1.0000 0.20420  0.87360  0.39695  Biso   1.000  C
  C55      1.0000 0.79580  0.37360  0.10305  Biso   1.000  C
  C56      1.0000 0.70420  0.62640  0.60305  Biso   1.000  C
  H49      1.0000 0.20450  0.15610  0.87140  Biso   1.000  H
  H50      1.0000 0.29550  0.84390  0.37140  Biso   1.000  H
  H51      1.0000 0.70450  0.34390  0.12860  Biso   1.000  H
  H52      1.0000 0.79550  0.65610  0.62860  Biso   1.000  H
  H53      1.0000 0.38190  0.10090  0.86770  Biso   1.000  H
  H54      1.0000 0.11810  0.89910  0.36770  Biso   1.000  H
  H55      1.0000 0.88190  0.39910  0.13230  Biso   1.000  H
  H56      1.0000 0.61810  0.60090  0.63230  Biso   1.000  H
  H57      1.0000 0.32880  0.20540  0.92520  Biso   1.000  H
  H58      1.0000 0.17120  0.79460  0.42520  Biso   1.000  H
  H59      1.0000 0.82880  0.29460  0.07480  Biso   1.000  H
  H60      1.0000 0.67120  0.70540  0.57480  Biso   1.000  H
  C57      1.0000 0.20090  0.88050  0.89411  Biso   1.000  C
  C58      1.0000 0.29910  0.11950  0.39411  Biso   1.000  C
  C59      1.0000 0.70090  0.61950  0.10589  Biso   1.000  C
  C60      1.0000 0.79910  0.38050  0.60589  Biso   1.000  C
  H61      1.0000 0.10900  0.91190  0.86940  Biso   1.000  H
  H62      1.0000 0.39100  0.08810  0.36940  Biso   1.000  H
  H63      1.0000 0.60900  0.58810  0.13060  Biso   1.000  H
  H64      1.0000 0.89100  0.41190  0.63060  Biso   1.000  H
  H65      1.0000 0.17340  0.79620  0.92010  Biso   1.000  H
  H66      1.0000 0.32660  0.20380  0.42010  Biso   1.000  H
  H67      1.0000 0.67340  0.70380  0.07990  Biso   1.000  H
  H68      1.0000 0.82660  0.29620  0.57990  Biso   1.000  H
  H69      1.0000 0.28590  0.85590  0.86410  Biso   1.000  H
  H70      1.0000 0.21410  0.14410  0.36410  Biso   1.000  H
  H71      1.0000 0.78590  0.64410  0.13590  Biso   1.000  H
  H72      1.0000 0.71410  0.35590  0.63590  Biso   1.000  H
  C61      1.0000 0.47180  0.06290  0.16427  Biso   1.000  C
  C62      1.0000 0.02820  0.93710  0.66427  Biso   1.000  C
  C63      1.0000 0.97180  0.43710  0.83573  Biso   1.000  C
  C64      1.0000 0.52820  0.56290  0.33573  Biso   1.000  C
  H73      1.0000 0.38620  0.11000  0.14400  Biso   1.000  H
  H74      1.0000 0.11380  0.89000  0.64400  Biso   1.000  H
  H75      1.0000 0.88620  0.39000  0.85600  Biso   1.000  H
  H76      1.0000 0.61380  0.61000  0.35600  Biso   1.000  H
