data_image0
_cell_length_a       8.3103
_cell_length_b       9.0566
_cell_length_c       20.1313
_cell_angle_alpha    90
_cell_angle_beta     90
_cell_angle_gamma    90

_symmetry_space_group_name_H-M    "P 1"
_symmetry_int_tables_number       1

loop_
  _symmetry_equiv_pos_as_xyz
  'x, y, z'

loop_
  _atom_site_label
  _atom_site_occupancy
  _atom_site_fract_x
  _atom_site_fract_y
  _atom_site_fract_z
  _atom_site_thermal_displace_type
  _atom_site_B_iso_or_equiv
  _atom_site_type_symbol
  Cu1      1.0000 0.92535  0.02997  0.99327  Biso   1.000  Cu
  Cu2      1.0000 0.57465  0.97003  0.49327  Biso   1.000  Cu
  Cu3      1.0000 0.42535  0.47003  0.00673  Biso   1.000  Cu
  Cu4      1.0000 0.07465  0.52997  0.50673  Biso   1.000  Cu
  O1       1.0000 0.10620  0.01190  0.93552  Biso   1.000  O
  O2       1.0000 0.39380  0.98810  0.43552  Biso   1.000  O
  O3       1.0000 0.60620  0.48810  0.06448  Biso   1.000  O
  O4       1.0000 0.89380  0.51190  0.56448  Biso   1.000  O
  N1       1.0000 0.74740  0.00030  0.06315  Biso   1.000  N
  N2       1.0000 0.75260  0.99970  0.56315  Biso   1.000  N
  N3       1.0000 0.24740  0.49970  0.93685  Biso   1.000  N
  N4       1.0000 0.25260  0.50030  0.43685  Biso   1.000  N
  N5       1.0000 0.19140  0.18220  0.05266  Biso   1.000  N
  N6       1.0000 0.30860  0.81780  0.55266  Biso   1.000  N
  N7       1.0000 0.69140  0.31780  0.94734  Biso   1.000  N
  N8       1.0000 0.80860  0.68220  0.44734  Biso   1.000  N
  N9       1.0000 0.06310  0.12440  0.06208  Biso   1.000  N
  N10      1.0000 0.43690  0.87560  0.56208  Biso   1.000  N
  N11      1.0000 0.56310  0.37560  0.93792  Biso   1.000  N
  N12      1.0000 0.93690  0.62440  0.43792  Biso   1.000  N
  N13      1.0000 0.31570  0.23970  0.04728  Biso   1.000  N
  N14      1.0000 0.18430  0.76030  0.54728  Biso   1.000  N
  N15      1.0000 0.81570  0.26030  0.95272  Biso   1.000  N
  N16      1.0000 0.68430  0.73970  0.45272  Biso   1.000  N
  C1       1.0000 0.84210  0.82630  0.88418  Biso   1.000  C
  C2       1.0000 0.65790  0.17370  0.38418  Biso   1.000  C
  C3       1.0000 0.34210  0.67370  0.11582  Biso   1.000  C
  C4       1.0000 0.15790  0.32630  0.61582  Biso   1.000  C
  C5       1.0000 0.10920  0.95610  0.87603  Biso   1.000  C
  C6       1.0000 0.39080  0.04390  0.37603  Biso   1.000  C
  C7       1.0000 0.60920  0.54390  0.12397  Biso   1.000  C
  C8       1.0000 0.89080  0.45610  0.62397  Biso   1.000  C
  C9       1.0000 0.39090  0.04700  0.86895  Biso   1.000  C
  C10      1.0000 0.10910  0.95300  0.36895  Biso   1.000  C
  C11      1.0000 0.89090  0.45300  0.13105  Biso   1.000  C
  C12      1.0000 0.60910  0.54700  0.63105  Biso   1.000  C
  H1       1.0000 0.38050  0.08660  0.91240  Biso   1.000  H
  H2       1.0000 0.11950  0.91340  0.41240  Biso   1.000  H
  H3       1.0000 0.88050  0.41340  0.08760  Biso   1.000  H
  H4       1.0000 0.61950  0.58660  0.58760  Biso   1.000  H
  N17      1.0000 0.80050  0.88840  0.93961  Biso   1.000  N
  N18      1.0000 0.69950  0.11160  0.43961  Biso   1.000  N
  N19      1.0000 0.30050  0.61160  0.06039  Biso   1.000  N
  N20      1.0000 0.19950  0.38840  0.56039  Biso   1.000  N
  C13      1.0000 0.25950  0.97540  0.83930  Biso   1.000  C
  C14      1.0000 0.24050  0.02460  0.33930  Biso   1.000  C
  C15      1.0000 0.75950  0.52460  0.16070  Biso   1.000  C
  C16      1.0000 0.74050  0.47540  0.66070  Biso   1.000  C
  C17      1.0000 0.27550  0.91680  0.77412  Biso   1.000  C
  C18      1.0000 0.22450  0.08320  0.27412  Biso   1.000  C
  C19      1.0000 0.77550  0.58320  0.22588  Biso   1.000  C
  C20      1.0000 0.72450  0.41680  0.72588  Biso   1.000  C
  C21      1.0000 0.55250  0.00320  0.77155  Biso   1.000  C
  C22      1.0000 0.94750  0.99680  0.27155  Biso   1.000  C
  C23      1.0000 0.05250  0.49680  0.22845  Biso   1.000  C
  C24      1.0000 0.44750  0.50320  0.72845  Biso   1.000  C
  H5       1.0000 0.65240  0.01290  0.74900  Biso   1.000  H
  H6       1.0000 0.84760  0.98710  0.24900  Biso   1.000  H
  H7       1.0000 0.15240  0.48710  0.25100  Biso   1.000  H
  H8       1.0000 0.34760  0.51290  0.75100  Biso   1.000  H
  C25      1.0000 0.42580  0.93300  0.74116  Biso   1.000  C
  C26      1.0000 0.07420  0.06700  0.24116  Biso   1.000  C
  C27      1.0000 0.92580  0.56700  0.25884  Biso   1.000  C
  C28      1.0000 0.57420  0.43300  0.75884  Biso   1.000  C
  H9       1.0000 0.43870  0.89470  0.69750  Biso   1.000  H
  H10      1.0000 0.06130  0.10530  0.19750  Biso   1.000  H
  H11      1.0000 0.93870  0.60530  0.30250  Biso   1.000  H
  H12      1.0000 0.56130  0.39470  0.80250  Biso   1.000  H
  C29      1.0000 0.53470  0.06050  0.83567  Biso   1.000  C
  C30      1.0000 0.96530  0.93950  0.33567  Biso   1.000  C
  C31      1.0000 0.03470  0.43950  0.16433  Biso   1.000  C
  C32      1.0000 0.46530  0.56050  0.66433  Biso   1.000  C
  H13      1.0000 0.62270  0.10910  0.85640  Biso   1.000  H
  H14      1.0000 0.87730  0.89090  0.35640  Biso   1.000  H
  H15      1.0000 0.12270  0.39090  0.14360  Biso   1.000  H
  H16      1.0000 0.37730  0.60910  0.64360  Biso   1.000  H
  C33      1.0000 0.00570  0.82140  0.77967  Biso   1.000  C
  C34      1.0000 0.49430  0.17860  0.27967  Biso   1.000  C
  C35      1.0000 0.50570  0.67860  0.22033  Biso   1.000  C
  C36      1.0000 0.99430  0.32140  0.72033  Biso   1.000  C
  H17      1.0000 0.91900  0.77090  0.75890  Biso   1.000  H
  H18      1.0000 0.58100  0.22910  0.25890  Biso   1.000  H
  H19      1.0000 0.41900  0.72910  0.24110  Biso   1.000  H
  H20      1.0000 0.08100  0.27090  0.74110  Biso   1.000  H
  C37      1.0000 0.70510  0.12970  0.10432  Biso   1.000  C
  C38      1.0000 0.79490  0.87030  0.60432  Biso   1.000  C
  C39      1.0000 0.20510  0.37030  0.89568  Biso   1.000  C
  C40      1.0000 0.29490  0.62970  0.39568  Biso   1.000  C
  H21      1.0000 0.79900  0.15990  0.13050  Biso   1.000  H
  H22      1.0000 0.70100  0.84010  0.63050  Biso   1.000  H
  H23      1.0000 0.29900  0.34010  0.86950  Biso   1.000  H
  H24      1.0000 0.20100  0.65990  0.36950  Biso   1.000  H
  H25      1.0000 0.61660  0.10370  0.13430  Biso   1.000  H
  H26      1.0000 0.88340  0.89630  0.63430  Biso   1.000  H
  H27      1.0000 0.11660  0.39630  0.86570  Biso   1.000  H
  H28      1.0000 0.38340  0.60370  0.36570  Biso   1.000  H
  H29      1.0000 0.67170  0.21130  0.07550  Biso   1.000  H
  H30      1.0000 0.82830  0.78870  0.57550  Biso   1.000  H
  H31      1.0000 0.17170  0.28870  0.92450  Biso   1.000  H
  H32      1.0000 0.32830  0.71130  0.42450  Biso   1.000  H
  C41      1.0000 0.98520  0.87160  0.84713  Biso   1.000  C
  C42      1.0000 0.51480  0.12840  0.34713  Biso   1.000  C
  C43      1.0000 0.48520  0.62840  0.15287  Biso   1.000  C
  C44      1.0000 0.01480  0.37160  0.65287  Biso   1.000  C
  C45      1.0000 0.14160  0.84260  0.74464  Biso   1.000  C
  C46      1.0000 0.35840  0.15740  0.24464  Biso   1.000  C
  C47      1.0000 0.64160  0.65740  0.25536  Biso   1.000  C
  C48      1.0000 0.85840  0.34260  0.75536  Biso   1.000  C
  H33      1.0000 0.14860  0.80810  0.70020  Biso   1.000  H
  H34      1.0000 0.35140  0.19190  0.20020  Biso   1.000  H
  H35      1.0000 0.64860  0.69190  0.29980  Biso   1.000  H
  H36      1.0000 0.85140  0.30810  0.79980  Biso   1.000  H
  C49      1.0000 0.74660  0.69860  0.85699  Biso   1.000  C
  C50      1.0000 0.75340  0.30140  0.35699  Biso   1.000  C
  C51      1.0000 0.24660  0.80140  0.14301  Biso   1.000  C
  C52      1.0000 0.25340  0.19860  0.64301  Biso   1.000  C
  H37      1.0000 0.69790  0.64360  0.89380  Biso   1.000  H
  H38      1.0000 0.80210  0.35640  0.39380  Biso   1.000  H
  H39      1.0000 0.19790  0.85640  0.10620  Biso   1.000  H
  H40      1.0000 0.30210  0.14360  0.60620  Biso   1.000  H
  H41      1.0000 0.81790  0.63320  0.83180  Biso   1.000  H
  H42      1.0000 0.68210  0.36680  0.33180  Biso   1.000  H
  H43      1.0000 0.31790  0.86680  0.16820  Biso   1.000  H
  H44      1.0000 0.18210  0.13320  0.66820  Biso   1.000  H
  H45      1.0000 0.66160  0.73600  0.82770  Biso   1.000  H
  H46      1.0000 0.83840  0.26400  0.32770  Biso   1.000  H
  H47      1.0000 0.16160  0.76400  0.17230  Biso   1.000  H
  H48      1.0000 0.33840  0.23600  0.67230  Biso   1.000  H
  C53      1.0000 0.60570  0.95510  0.02391  Biso   1.000  C
  C54      1.0000 0.89430  0.04490  0.52391  Biso   1.000  C
  C55      1.0000 0.10570  0.54490  0.97609  Biso   1.000  C
  C56      1.0000 0.39430  0.45510  0.47609  Biso   1.000  C
  H49      1.0000 0.56070  0.04200  0.00060  Biso   1.000  H
  H50      1.0000 0.93930  0.95800  0.50060  Biso   1.000  H
  H51      1.0000 0.06070  0.45800  0.99940  Biso   1.000  H
  H52      1.0000 0.43930  0.54200  0.49940  Biso   1.000  H
  H53      1.0000 0.52180  0.91550  0.05390  Biso   1.000  H
  H54      1.0000 0.97820  0.08450  0.55390  Biso   1.000  H
  H55      1.0000 0.02180  0.58450  0.94610  Biso   1.000  H
  H56      1.0000 0.47820  0.41550  0.44610  Biso   1.000  H
  C57      1.0000 0.65230  0.83830  0.97364  Biso   1.000  C
  C58      1.0000 0.84770  0.16170  0.47364  Biso   1.000  C
  C59      1.0000 0.15230  0.66170  0.02636  Biso   1.000  C
  C60      1.0000 0.34770  0.33830  0.52636  Biso   1.000  C
  H57      1.0000 0.67190  0.74290  0.99630  Biso   1.000  H
  H58      1.0000 0.82810  0.25710  0.49630  Biso   1.000  H
  H59      1.0000 0.17190  0.75710  0.00370  Biso   1.000  H
  H60      1.0000 0.32810  0.24290  0.50370  Biso   1.000  H
  H61      1.0000 0.56460  0.82440  0.94100  Biso   1.000  H
  H62      1.0000 0.93540  0.17560  0.44100  Biso   1.000  H
  H63      1.0000 0.06460  0.67560  0.05900  Biso   1.000  H
  H64      1.0000 0.43540  0.32440  0.55900  Biso   1.000  H
  C61      1.0000 0.80040  0.88110  0.10728  Biso   1.000  C
  C62      1.0000 0.69960  0.11890  0.60728  Biso   1.000  C
  C63      1.0000 0.30040  0.61890  0.89272  Biso   1.000  C
  C64      1.0000 0.19960  0.38110  0.39272  Biso   1.000  C
  H65      1.0000 0.89480  0.91370  0.13250  Biso   1.000  H
  H66      1.0000 0.60520  0.08630  0.63250  Biso   1.000  H
  H67      1.0000 0.39480  0.58630  0.86750  Biso   1.000  H
  H68      1.0000 0.10520  0.41370  0.36750  Biso   1.000  H
  H69      1.0000 0.82860  0.79410  0.08070  Biso   1.000  H
  H70      1.0000 0.67140  0.20590  0.58070  Biso   1.000  H
  H71      1.0000 0.32860  0.70590  0.91930  Biso   1.000  H
  H72      1.0000 0.17140  0.29410  0.41930  Biso   1.000  H
  H73      1.0000 0.71340  0.85580  0.13810  Biso   1.000  H
  H74      1.0000 0.78660  0.14420  0.63810  Biso   1.000  H
  H75      1.0000 0.21340  0.64420  0.86190  Biso   1.000  H
  H76      1.0000 0.28660  0.35580  0.36190  Biso   1.000  H
