data_image0
_cell_length_a       11.095
_cell_length_b       10.199
_cell_length_c       21.221
_cell_angle_alpha    90
_cell_angle_beta     101.26
_cell_angle_gamma    90

_symmetry_space_group_name_H-M    "P 1"
_symmetry_int_tables_number       1

loop_
  _symmetry_equiv_pos_as_xyz
  'x, y, z'

loop_
  _atom_site_label
  _atom_site_occupancy
  _atom_site_fract_x
  _atom_site_fract_y
  _atom_site_fract_z
  _atom_site_thermal_displace_type
  _atom_site_B_iso_or_equiv
  _atom_site_type_symbol
  Cu1      1.0000 0.14416  0.93343  0.01321  Biso   1.000  Cu
  Cu2      1.0000 0.64416  0.56657  0.51321  Biso   1.000  Cu
  Cu3      1.0000 0.85584  0.06657  0.98680  Biso   1.000  Cu
  Cu4      1.0000 0.35584  0.43343  0.48679  Biso   1.000  Cu
  N1       1.0000 0.26150  0.84520  0.96484  Biso   1.000  N
  N2       1.0000 0.76150  0.65480  0.46484  Biso   1.000  N
  N3       1.0000 0.73850  0.15480  0.03516  Biso   1.000  N
  N4       1.0000 0.23850  0.34520  0.53516  Biso   1.000  N
  N5       1.0000 0.23130  0.09590  0.98888  Biso   1.000  N
  N6       1.0000 0.73130  0.40410  0.48888  Biso   1.000  N
  N7       1.0000 0.76870  0.90410  0.01112  Biso   1.000  N
  N8       1.0000 0.26870  0.59590  0.51112  Biso   1.000  N
  C1       1.0000 0.27540  0.71800  0.95424  Biso   1.000  C
  C2       1.0000 0.77540  0.78200  0.45424  Biso   1.000  C
  C3       1.0000 0.72460  0.28200  0.04576  Biso   1.000  C
  C4       1.0000 0.22460  0.21800  0.54576  Biso   1.000  C
  H1       1.0000 0.22500  0.65830  0.96990  Biso   1.000  H
  H2       1.0000 0.72500  0.84170  0.46990  Biso   1.000  H
  H3       1.0000 0.77500  0.34170  0.03010  Biso   1.000  H
  H4       1.0000 0.27500  0.15830  0.53010  Biso   1.000  H
  C5       1.0000 0.36250  0.67050  0.92058  Biso   1.000  C
  C6       1.0000 0.86250  0.82950  0.42058  Biso   1.000  C
  C7       1.0000 0.63750  0.32950  0.07942  Biso   1.000  C
  C8       1.0000 0.13750  0.17050  0.57942  Biso   1.000  C
  H5       1.0000 0.36980  0.58090  0.91420  Biso   1.000  H
  H6       1.0000 0.86980  0.91910  0.41420  Biso   1.000  H
  H7       1.0000 0.63020  0.41910  0.08580  Biso   1.000  H
  H8       1.0000 0.13020  0.08090  0.58580  Biso   1.000  H
  C9       1.0000 0.43660  0.75630  0.89723  Biso   1.000  C
  C10      1.0000 0.93660  0.74370  0.39723  Biso   1.000  C
  C11      1.0000 0.56340  0.24370  0.10277  Biso   1.000  C
  C12      1.0000 0.06340  0.25630  0.60277  Biso   1.000  C
  H9       1.0000 0.49410  0.72560  0.87420  Biso   1.000  H
  H10      1.0000 0.99410  0.77440  0.37420  Biso   1.000  H
  H11      1.0000 0.50590  0.27440  0.12580  Biso   1.000  H
  H12      1.0000 0.00590  0.22560  0.62580  Biso   1.000  H
  C13      1.0000 0.42640  0.89130  0.90789  Biso   1.000  C
  C14      1.0000 0.92640  0.60870  0.40789  Biso   1.000  C
  C15      1.0000 0.57360  0.10870  0.09211  Biso   1.000  C
  C16      1.0000 0.07360  0.39130  0.59211  Biso   1.000  C
  C17      1.0000 0.50090  0.99030  0.88693  Biso   1.000  C
  C18      1.0000 0.00090  0.50970  0.38693  Biso   1.000  C
  C19      1.0000 0.49910  0.00970  0.11307  Biso   1.000  C
  C20      1.0000 0.99910  0.49030  0.61307  Biso   1.000  C
  H13      1.0000 0.56060  0.96580  0.86390  Biso   1.000  H
  H14      1.0000 0.06060  0.53420  0.36390  Biso   1.000  H
  H15      1.0000 0.43940  0.03420  0.13610  Biso   1.000  H
  H16      1.0000 0.93940  0.46580  0.63610  Biso   1.000  H
  C21      1.0000 0.48690  0.11730  0.89955  Biso   1.000  C
  C22      1.0000 0.98690  0.38270  0.39955  Biso   1.000  C
  C23      1.0000 0.51310  0.88270  0.10045  Biso   1.000  C
  C24      1.0000 0.01310  0.61730  0.60045  Biso   1.000  C
  H17      1.0000 0.53710  0.17900  0.88530  Biso   1.000  H
  H18      1.0000 0.03710  0.32100  0.38530  Biso   1.000  H
  H19      1.0000 0.46290  0.82100  0.11470  Biso   1.000  H
  H20      1.0000 0.96290  0.67900  0.61470  Biso   1.000  H
  C25      1.0000 0.39620  0.16020  0.93461  Biso   1.000  C
  C26      1.0000 0.89620  0.33980  0.43461  Biso   1.000  C
  C27      1.0000 0.60380  0.83980  0.06539  Biso   1.000  C
  C28      1.0000 0.10380  0.66020  0.56539  Biso   1.000  C
  C29      1.0000 0.37830  0.29120  0.95099  Biso   1.000  C
  C30      1.0000 0.87830  0.20880  0.45099  Biso   1.000  C
  C31      1.0000 0.62170  0.70880  0.04901  Biso   1.000  C
  C32      1.0000 0.12170  0.79120  0.54901  Biso   1.000  C
  H21      1.0000 0.42660  0.35740  0.93880  Biso   1.000  H
  H22      1.0000 0.92660  0.14260  0.43880  Biso   1.000  H
  H23      1.0000 0.57340  0.64260  0.06120  Biso   1.000  H
  H24      1.0000 0.07340  0.85740  0.56120  Biso   1.000  H
  C33      1.0000 0.28970  0.32010  0.98474  Biso   1.000  C
  C34      1.0000 0.78970  0.17990  0.48474  Biso   1.000  C
  C35      1.0000 0.71030  0.67990  0.01526  Biso   1.000  C
  C36      1.0000 0.21030  0.82010  0.51526  Biso   1.000  C
  H25      1.0000 0.27760  0.40650  0.99610  Biso   1.000  H
  H26      1.0000 0.77760  0.09350  0.49610  Biso   1.000  H
  H27      1.0000 0.72240  0.59350  0.00390  Biso   1.000  H
  H28      1.0000 0.22240  0.90650  0.50390  Biso   1.000  H
  C37      1.0000 0.21660  0.22000  0.00260  Biso   1.000  C
  C38      1.0000 0.71660  0.28000  0.50260  Biso   1.000  C
  C39      1.0000 0.78340  0.78000  0.99740  Biso   1.000  C
  C40      1.0000 0.28340  0.72000  0.49740  Biso   1.000  C
  H29      1.0000 0.15540  0.24220  0.02500  Biso   1.000  H
  H30      1.0000 0.65540  0.25780  0.52500  Biso   1.000  H
  H31      1.0000 0.84460  0.75780  0.97500  Biso   1.000  H
  H32      1.0000 0.34460  0.74220  0.47500  Biso   1.000  H
  C41      1.0000 0.32040  0.06630  0.95515  Biso   1.000  C
  C42      1.0000 0.82040  0.43370  0.45515  Biso   1.000  C
  C43      1.0000 0.67960  0.93370  0.04485  Biso   1.000  C
  C44      1.0000 0.17960  0.56630  0.54485  Biso   1.000  C
  C45      1.0000 0.33610  0.93020  0.94211  Biso   1.000  C
  C46      1.0000 0.83610  0.56980  0.44211  Biso   1.000  C
  C47      1.0000 0.66390  0.06980  0.05789  Biso   1.000  C
  C48      1.0000 0.16390  0.43020  0.55789  Biso   1.000  C
  O1       1.0000 0.07490  0.76820  0.03478  Biso   1.000  O
  O2       1.0000 0.57490  0.73180  0.53478  Biso   1.000  O
  O3       1.0000 0.92510  0.23180  0.96522  Biso   1.000  O
  O4       1.0000 0.42510  0.26820  0.46522  Biso   1.000  O
  O5       1.0000 0.23960  0.73630  0.11077  Biso   1.000  O
  O6       1.0000 0.73960  0.76370  0.61077  Biso   1.000  O
  O7       1.0000 0.76040  0.26370  0.88923  Biso   1.000  O
  O8       1.0000 0.26040  0.23630  0.38923  Biso   1.000  O
  C49      1.0000 0.13330  0.70880  0.08416  Biso   1.000  C
  C50      1.0000 0.63330  0.79120  0.58416  Biso   1.000  C
  C51      1.0000 0.86670  0.29120  0.91584  Biso   1.000  C
  C52      1.0000 0.36670  0.20880  0.41584  Biso   1.000  C
  C53      1.0000 0.06110  0.60210  0.11060  Biso   1.000  C
  C54      1.0000 0.56110  0.89790  0.61060  Biso   1.000  C
  C55      1.0000 0.93890  0.39790  0.88940  Biso   1.000  C
  C56      1.0000 0.43890  0.10210  0.38940  Biso   1.000  C
  H33      1.0000 0.00810  0.55690  0.07560  Biso   1.000  H
  H34      1.0000 0.50810  0.94310  0.57560  Biso   1.000  H
  H35      1.0000 0.99190  0.44310  0.92440  Biso   1.000  H
  H36      1.0000 0.49190  0.05690  0.42440  Biso   1.000  H
  H37      1.0000 0.11710  0.53860  0.13460  Biso   1.000  H
  H38      1.0000 0.61710  0.96140  0.63460  Biso   1.000  H
  H39      1.0000 0.88290  0.46140  0.86540  Biso   1.000  H
  H40      1.0000 0.38290  0.03860  0.36540  Biso   1.000  H
  C57      1.0000 0.98450  0.66580  0.15424  Biso   1.000  C
  C58      1.0000 0.48450  0.83420  0.65424  Biso   1.000  C
  C59      1.0000 0.01550  0.33420  0.84576  Biso   1.000  C
  C60      1.0000 0.51550  0.16580  0.34576  Biso   1.000  C
  H41      1.0000 0.93480  0.73440  0.13040  Biso   1.000  H
  H42      1.0000 0.43480  0.76560  0.63040  Biso   1.000  H
  H43      1.0000 0.06520  0.26560  0.86960  Biso   1.000  H
  H44      1.0000 0.56520  0.23440  0.36960  Biso   1.000  H
  H45      1.0000 0.03950  0.70700  0.18990  Biso   1.000  H
  H46      1.0000 0.53950  0.79300  0.68990  Biso   1.000  H
  H47      1.0000 0.96050  0.29300  0.81010  Biso   1.000  H
  H48      1.0000 0.46050  0.20700  0.31010  Biso   1.000  H
  C61      1.0000 0.90020  0.57180  0.18103  Biso   1.000  C
  C62      1.0000 0.40020  0.92820  0.68103  Biso   1.000  C
  C63      1.0000 0.09980  0.42820  0.81897  Biso   1.000  C
  C64      1.0000 0.59980  0.07180  0.31897  Biso   1.000  C
  H49      1.0000 0.85150  0.52250  0.14600  Biso   1.000  H
  H50      1.0000 0.35150  0.97750  0.64600  Biso   1.000  H
  H51      1.0000 0.14850  0.47750  0.85400  Biso   1.000  H
  H52      1.0000 0.64850  0.02250  0.35400  Biso   1.000  H
  H53      1.0000 0.94960  0.51010  0.20990  Biso   1.000  H
  H54      1.0000 0.44960  0.98990  0.70990  Biso   1.000  H
  H55      1.0000 0.05040  0.48990  0.79010  Biso   1.000  H
  H56      1.0000 0.55040  0.01010  0.29010  Biso   1.000  H
  C65      1.0000 0.81550  0.64440  0.21676  Biso   1.000  C
  C66      1.0000 0.31550  0.85560  0.71676  Biso   1.000  C
  C67      1.0000 0.18450  0.35560  0.78324  Biso   1.000  C
  C68      1.0000 0.68450  0.14440  0.28324  Biso   1.000  C
  H57      1.0000 0.76960  0.70840  0.18780  Biso   1.000  H
  H58      1.0000 0.26960  0.79160  0.68780  Biso   1.000  H
  H59      1.0000 0.23040  0.29160  0.81220  Biso   1.000  H
  H60      1.0000 0.73040  0.20840  0.31220  Biso   1.000  H
  H61      1.0000 0.86560  0.69230  0.25190  Biso   1.000  H
  H62      1.0000 0.36560  0.80770  0.75190  Biso   1.000  H
  H63      1.0000 0.13440  0.30770  0.74810  Biso   1.000  H
  H64      1.0000 0.63440  0.19230  0.24810  Biso   1.000  H
  C69      1.0000 0.72460  0.56100  0.24411  Biso   1.000  C
  C70      1.0000 0.22460  0.93900  0.74411  Biso   1.000  C
  C71      1.0000 0.27540  0.43900  0.75589  Biso   1.000  C
  C72      1.0000 0.77540  0.06100  0.25589  Biso   1.000  C
  H65      1.0000 0.67600  0.50970  0.20980  Biso   1.000  H
  H66      1.0000 0.17600  0.99030  0.70980  Biso   1.000  H
  H67      1.0000 0.32400  0.49030  0.79020  Biso   1.000  H
  H68      1.0000 0.82400  0.00970  0.29020  Biso   1.000  H
  H69      1.0000 0.76940  0.50040  0.27540  Biso   1.000  H
  H70      1.0000 0.26940  0.99960  0.77540  Biso   1.000  H
  H71      1.0000 0.23060  0.49960  0.72460  Biso   1.000  H
  H72      1.0000 0.73060  0.00040  0.22460  Biso   1.000  H
  C73      1.0000 0.64050  0.64170  0.27545  Biso   1.000  C
  C74      1.0000 0.14050  0.85830  0.77545  Biso   1.000  C
  C75      1.0000 0.35950  0.35830  0.72455  Biso   1.000  C
  C76      1.0000 0.85950  0.14170  0.22455  Biso   1.000  C
  H73      1.0000 0.58960  0.69490  0.24270  Biso   1.000  H
  H74      1.0000 0.08960  0.80510  0.74270  Biso   1.000  H
  H75      1.0000 0.41040  0.30510  0.75730  Biso   1.000  H
  H76      1.0000 0.91040  0.19490  0.25730  Biso   1.000  H
  H77      1.0000 0.69000  0.70100  0.30570  Biso   1.000  H
  H78      1.0000 0.19000  0.79900  0.80570  Biso   1.000  H
  H79      1.0000 0.31000  0.29900  0.69430  Biso   1.000  H
  H80      1.0000 0.81000  0.20100  0.19430  Biso   1.000  H
  C77      1.0000 0.55650  0.56460  0.31104  Biso   1.000  C
  C78      1.0000 0.05650  0.93540  0.81104  Biso   1.000  C
  C79      1.0000 0.44350  0.43540  0.68896  Biso   1.000  C
  C80      1.0000 0.94350  0.06460  0.18896  Biso   1.000  C
  H81      1.0000 0.50190  0.50970  0.28080  Biso   1.000  H
  H82      1.0000 0.00190  0.99030  0.78080  Biso   1.000  H
  H83      1.0000 0.49810  0.49030  0.71920  Biso   1.000  H
  H84      1.0000 0.99810  0.00970  0.21920  Biso   1.000  H
  H85      1.0000 0.60590  0.50780  0.34260  Biso   1.000  H
  H86      1.0000 0.10590  0.99220  0.84260  Biso   1.000  H
  H87      1.0000 0.39410  0.49220  0.65740  Biso   1.000  H
  H88      1.0000 0.89410  0.00780  0.15740  Biso   1.000  H
  C81      1.0000 0.48040  0.65610  0.34462  Biso   1.000  C
  C82      1.0000 0.98040  0.84390  0.84462  Biso   1.000  C
  C83      1.0000 0.51960  0.34390  0.65538  Biso   1.000  C
  C84      1.0000 0.01960  0.15610  0.15538  Biso   1.000  C
  H89      1.0000 0.53510  0.71440  0.37290  Biso   1.000  H
  H90      1.0000 0.03510  0.78560  0.87290  Biso   1.000  H
  H91      1.0000 0.46490  0.28560  0.62710  Biso   1.000  H
  H92      1.0000 0.96490  0.21440  0.12710  Biso   1.000  H
  H93      1.0000 0.42790  0.70940  0.31270  Biso   1.000  H
  H94      1.0000 0.92790  0.79060  0.81270  Biso   1.000  H
  H95      1.0000 0.57210  0.29060  0.68730  Biso   1.000  H
  H96      1.0000 0.07210  0.20940  0.18730  Biso   1.000  H
  C85      1.0000 0.40150  0.58140  0.38343  Biso   1.000  C
  C86      1.0000 0.90150  0.91860  0.88343  Biso   1.000  C
  C87      1.0000 0.59850  0.41860  0.61657  Biso   1.000  C
  C88      1.0000 0.09850  0.08140  0.11657  Biso   1.000  C
  O9       1.0000 0.45721  0.52950  0.43614  Biso   1.000  O
  O10      1.0000 0.95721  0.97050  0.93614  Biso   1.000  O
  O11      1.0000 0.54279  0.47050  0.56386  Biso   1.000  O
  O12      1.0000 0.04279  0.02950  0.06386  Biso   1.000  O
  O13      1.0000 0.28860  0.57340  0.36483  Biso   1.000  O
  O14      1.0000 0.78860  0.92660  0.86483  Biso   1.000  O
  O15      1.0000 0.71140  0.42660  0.63517  Biso   1.000  O
  O16      1.0000 0.21140  0.07340  0.13517  Biso   1.000  O
  O17      1.0000 0.20020  0.37890  0.27290  Biso   1.000  O
  O18      1.0000 0.70020  0.12110  0.77290  Biso   1.000  O
  O19      1.0000 0.79980  0.62110  0.72710  Biso   1.000  O
  O20      1.0000 0.29980  0.87890  0.22710  Biso   1.000  O
  O21      1.0000 0.17140  0.81600  0.32350  Biso   1.000  O
  O22      1.0000 0.67140  0.68400  0.82350  Biso   1.000  O
  O23      1.0000 0.82860  0.18400  0.67650  Biso   1.000  O
  O24      1.0000 0.32860  0.31600  0.17650  Biso   1.000  O
  O25      1.0000 0.41180  0.53090  0.11070  Biso   1.000  O
  O26      1.0000 0.91180  0.96910  0.61070  Biso   1.000  O
  O27      1.0000 0.58820  0.46910  0.88930  Biso   1.000  O
  O28      1.0000 0.08820  0.03090  0.38930  Biso   1.000  O
  H97      1.0000 0.19900  0.33400  0.30600  Biso   1.000  H
  H98      1.0000 0.69900  0.16600  0.80600  Biso   1.000  H
  H99      1.0000 0.80100  0.66600  0.69400  Biso   1.000  H
  H100     1.0000 0.30100  0.83400  0.19400  Biso   1.000  H
  H101     1.0000 0.22400  0.44200  0.28200  Biso   1.000  H
  H102     1.0000 0.72400  0.05800  0.78200  Biso   1.000  H
  H103     1.0000 0.77600  0.55800  0.71800  Biso   1.000  H
  H104     1.0000 0.27600  0.94200  0.21800  Biso   1.000  H
  H105     1.0000 0.20600  0.83800  0.29200  Biso   1.000  H
  H106     1.0000 0.70600  0.66200  0.79200  Biso   1.000  H
  H107     1.0000 0.79400  0.16200  0.70800  Biso   1.000  H
  H108     1.0000 0.29400  0.33800  0.20800  Biso   1.000  H
  H109     1.0000 0.20100  0.76000  0.33400  Biso   1.000  H
  H110     1.0000 0.70100  0.74000  0.83400  Biso   1.000  H
  H111     1.0000 0.79900  0.24000  0.66600  Biso   1.000  H
  H112     1.0000 0.29900  0.26000  0.16600  Biso   1.000  H
  H113     1.0000 0.38700  0.47500  0.12900  Biso   1.000  H
  H114     1.0000 0.88700  0.02500  0.62900  Biso   1.000  H
  H115     1.0000 0.61300  0.52500  0.87100  Biso   1.000  H
  H116     1.0000 0.11300  0.97500  0.37100  Biso   1.000  H
  H117     1.0000 0.37000  0.58000  0.11200  Biso   1.000  H
  H118     1.0000 0.87000  0.92000  0.61200  Biso   1.000  H
  H119     1.0000 0.63000  0.42000  0.88800  Biso   1.000  H
  H120     1.0000 0.13000  0.08000  0.38800  Biso   1.000  H
