data_image0
_cell_length_a       4.959
_cell_length_b       6.4582
_cell_length_c       27.249
_cell_angle_alpha    90
_cell_angle_beta     90
_cell_angle_gamma    90

_symmetry_space_group_name_H-M    "P 1"
_symmetry_int_tables_number       1

loop_
  _symmetry_equiv_pos_as_xyz
  'x, y, z'

loop_
  _atom_site_label
  _atom_site_occupancy
  _atom_site_fract_x
  _atom_site_fract_y
  _atom_site_fract_z
  _atom_site_thermal_displace_type
  _atom_site_B_iso_or_equiv
  _atom_site_type_symbol
  Cu1      1.0000 0.99543  0.63679  0.25141  Biso   1.000  Cu
  Cu2      1.0000 0.50457  0.36321  0.75141  Biso   1.000  Cu
  Cu3      1.0000 0.00457  0.13679  0.24859  Biso   1.000  Cu
  Cu4      1.0000 0.49543  0.86321  0.74859  Biso   1.000  Cu
  O1       1.0000 0.82100  0.71260  0.31220  Biso   1.000  O
  O2       1.0000 0.67900  0.28740  0.81220  Biso   1.000  O
  O3       1.0000 0.17900  0.21260  0.18780  Biso   1.000  O
  O4       1.0000 0.32100  0.78740  0.68780  Biso   1.000  O
  O5       1.0000 0.83040  0.06220  0.30892  Biso   1.000  O
  O6       1.0000 0.66960  0.93780  0.80892  Biso   1.000  O
  O7       1.0000 0.16960  0.56220  0.19108  Biso   1.000  O
  O8       1.0000 0.33040  0.43780  0.69108  Biso   1.000  O
  N1       1.0000 0.23540  0.88620  0.25295  Biso   1.000  N
  N2       1.0000 0.26460  0.11380  0.75295  Biso   1.000  N
  N3       1.0000 0.76460  0.38620  0.24705  Biso   1.000  N
  N4       1.0000 0.73540  0.61380  0.74705  Biso   1.000  N
  N5       1.0000 0.44400  0.88000  0.22787  Biso   1.000  N
  N6       1.0000 0.05600  0.12000  0.72787  Biso   1.000  N
  N7       1.0000 0.55600  0.38000  0.27213  Biso   1.000  N
  N8       1.0000 0.94400  0.62000  0.77213  Biso   1.000  N
  N9       1.0000 0.65140  0.87460  0.20626  Biso   1.000  N
  N10      1.0000 0.84860  0.12540  0.70626  Biso   1.000  N
  N11      1.0000 0.34860  0.37460  0.29374  Biso   1.000  N
  N12      1.0000 0.15140  0.62540  0.79374  Biso   1.000  N
  C1       1.0000 0.68120  0.06850  0.41137  Biso   1.000  C
  C2       1.0000 0.81880  0.93150  0.91137  Biso   1.000  C
  C3       1.0000 0.31880  0.56850  0.08863  Biso   1.000  C
  C4       1.0000 0.18120  0.43150  0.58863  Biso   1.000  C
  C5       1.0000 0.77650  0.89110  0.32944  Biso   1.000  C
  C6       1.0000 0.72350  0.10890  0.82944  Biso   1.000  C
  C7       1.0000 0.22350  0.39110  0.17056  Biso   1.000  C
  C8       1.0000 0.27650  0.60890  0.67056  Biso   1.000  C
  C9       1.0000 0.63670  0.90340  0.37824  Biso   1.000  C
  C10      1.0000 0.86330  0.09660  0.87824  Biso   1.000  C
  C11      1.0000 0.36330  0.40340  0.12176  Biso   1.000  C
  C12      1.0000 0.13670  0.59660  0.62176  Biso   1.000  C
  C13      1.0000 0.87830  0.24230  0.40191  Biso   1.000  C
  C14      1.0000 0.62170  0.75770  0.90191  Biso   1.000  C
  C15      1.0000 0.12170  0.74230  0.09809  Biso   1.000  C
  C16      1.0000 0.37830  0.25770  0.59809  Biso   1.000  C
  H1       1.0000 0.87520  0.33720  0.42900  Biso   1.000  H
  H2       1.0000 0.62480  0.66280  0.92900  Biso   1.000  H
  H3       1.0000 0.12480  0.83720  0.07100  Biso   1.000  H
  H4       1.0000 0.37520  0.16280  0.57100  Biso   1.000  H
  H5       1.0000 0.82830  0.31380  0.37240  Biso   1.000  H
  H6       1.0000 0.67170  0.68620  0.87240  Biso   1.000  H
  H7       1.0000 0.17170  0.81380  0.12760  Biso   1.000  H
  H8       1.0000 0.32830  0.18620  0.62760  Biso   1.000  H
  H9       1.0000 0.05650  0.18630  0.39830  Biso   1.000  H
  H10      1.0000 0.44350  0.81370  0.89830  Biso   1.000  H
  H11      1.0000 0.94350  0.68630  0.10170  Biso   1.000  H
  H12      1.0000 0.55650  0.31370  0.60170  Biso   1.000  H
  C17      1.0000 0.30740  0.75460  0.43341  Biso   1.000  C
  C18      1.0000 0.19260  0.24540  0.93341  Biso   1.000  C
  C19      1.0000 0.69260  0.25460  0.06659  Biso   1.000  C
  C20      1.0000 0.80740  0.74540  0.56659  Biso   1.000  C
  H13      1.0000 0.18200  0.65180  0.44050  Biso   1.000  H
  H14      1.0000 0.31800  0.34820  0.94050  Biso   1.000  H
  H15      1.0000 0.81800  0.15180  0.05950  Biso   1.000  H
  H16      1.0000 0.68200  0.84820  0.55950  Biso   1.000  H
  C21      1.0000 0.35090  0.91490  0.46619  Biso   1.000  C
  C22      1.0000 0.14910  0.08510  0.96619  Biso   1.000  C
  C23      1.0000 0.64910  0.41490  0.03381  Biso   1.000  C
  C24      1.0000 0.85090  0.58510  0.53381  Biso   1.000  C
  H17      1.0000 0.25520  0.92000  0.49550  Biso   1.000  H
  H18      1.0000 0.24480  0.08000  0.99550  Biso   1.000  H
  H19      1.0000 0.74480  0.42000  0.00450  Biso   1.000  H
  H20      1.0000 0.75520  0.58000  0.50450  Biso   1.000  H
  C25      1.0000 0.45260  0.74850  0.38985  Biso   1.000  C
  C26      1.0000 0.04740  0.25150  0.88985  Biso   1.000  C
  C27      1.0000 0.54740  0.24850  0.11015  Biso   1.000  C
  C28      1.0000 0.95260  0.75150  0.61015  Biso   1.000  C
  H21      1.0000 0.42630  0.63930  0.36810  Biso   1.000  H
  H22      1.0000 0.07370  0.36070  0.86810  Biso   1.000  H
  H23      1.0000 0.57370  0.13930  0.13190  Biso   1.000  H
  H24      1.0000 0.92630  0.86070  0.63190  Biso   1.000  H
  C29      1.0000 0.53780  0.06820  0.45522  Biso   1.000  C
  C30      1.0000 0.96220  0.93180  0.95522  Biso   1.000  C
  C31      1.0000 0.46220  0.56820  0.04478  Biso   1.000  C
  C32      1.0000 0.03780  0.43180  0.54478  Biso   1.000  C
  H25      1.0000 0.56780  0.17370  0.47780  Biso   1.000  H
  H26      1.0000 0.93220  0.82630  0.97780  Biso   1.000  H
  H27      1.0000 0.43220  0.67370  0.02220  Biso   1.000  H
  H28      1.0000 0.06780  0.32630  0.52220  Biso   1.000  H
