data_image0
_cell_length_a       15.912
_cell_length_b       6.799
_cell_length_c       9.948
_cell_angle_alpha    90
_cell_angle_beta     101.981
_cell_angle_gamma    90

_symmetry_space_group_name_H-M    "P 1"
_symmetry_int_tables_number       1

loop_
  _symmetry_equiv_pos_as_xyz
  'x, y, z'

loop_
  _atom_site_label
  _atom_site_occupancy
  _atom_site_fract_x
  _atom_site_fract_y
  _atom_site_fract_z
  _atom_site_thermal_displace_type
  _atom_site_B_iso_or_equiv
  _atom_site_type_symbol
  Cu1      1.0000 0.99284  0.03162  0.75370  Biso   1.000  Cu
  Cu2      1.0000 0.00716  0.53162  0.74630  Biso   1.000  Cu
  Cu3      1.0000 0.00716  0.96838  0.24630  Biso   1.000  Cu
  Cu4      1.0000 0.99284  0.46838  0.25370  Biso   1.000  Cu
  O1       1.0000 0.08860  0.93640  0.89050  Biso   1.000  O
  O2       1.0000 0.91140  0.43640  0.60950  Biso   1.000  O
  O3       1.0000 0.91140  0.06360  0.10950  Biso   1.000  O
  O4       1.0000 0.08860  0.56360  0.39050  Biso   1.000  O
  O5       1.0000 0.11430  0.61770  0.86050  Biso   1.000  O
  O6       1.0000 0.88570  0.11770  0.63950  Biso   1.000  O
  O7       1.0000 0.88570  0.38230  0.13950  Biso   1.000  O
  O8       1.0000 0.11430  0.88230  0.36050  Biso   1.000  O
  N1       1.0000 0.99330  0.78840  0.64310  Biso   1.000  N
  N2       1.0000 0.00670  0.28840  0.85690  Biso   1.000  N
  N3       1.0000 0.00670  0.21160  0.35690  Biso   1.000  N
  N4       1.0000 0.99330  0.71160  0.14310  Biso   1.000  N
  N5       1.0000 0.95060  0.78680  0.52580  Biso   1.000  N
  N6       1.0000 0.04940  0.28680  0.97420  Biso   1.000  N
  N7       1.0000 0.04940  0.21320  0.47420  Biso   1.000  N
  N8       1.0000 0.95060  0.71320  0.02580  Biso   1.000  N
  N9       1.0000 0.91420  0.78600  0.41140  Biso   1.000  N
  N10      1.0000 0.08580  0.28600  0.08860  Biso   1.000  N
  N11      1.0000 0.08580  0.21400  0.58860  Biso   1.000  N
  N12      1.0000 0.91420  0.71400  0.91140  Biso   1.000  N
  C1       1.0000 0.13740  0.78900  0.90620  Biso   1.000  C
  C2       1.0000 0.86260  0.28900  0.59380  Biso   1.000  C
  C3       1.0000 0.86260  0.21100  0.09380  Biso   1.000  C
  C4       1.0000 0.13740  0.71100  0.40620  Biso   1.000  C
  C5       1.0000 0.27870  0.98400  0.97180  Biso   1.000  C
  C6       1.0000 0.72130  0.48400  0.52820  Biso   1.000  C
  C7       1.0000 0.72130  0.01600  0.02820  Biso   1.000  C
  C8       1.0000 0.27870  0.51600  0.47180  Biso   1.000  C
  C9       1.0000 0.36480  0.99100  0.05160  Biso   1.000  C
  C10      1.0000 0.63520  0.49100  0.44840  Biso   1.000  C
  C11      1.0000 0.63520  0.00900  0.94840  Biso   1.000  C
  C12      1.0000 0.36480  0.50900  0.55160  Biso   1.000  C
  C13      1.0000 0.30330  0.29300  0.86090  Biso   1.000  C
  C14      1.0000 0.69670  0.79300  0.63910  Biso   1.000  C
  C15      1.0000 0.69670  0.70700  0.13910  Biso   1.000  C
  C16      1.0000 0.30330  0.20700  0.36090  Biso   1.000  C
  H1       1.0000 0.28390  0.39000  0.79570  Biso   1.000  H
  H2       1.0000 0.71610  0.89000  0.70430  Biso   1.000  H
  H3       1.0000 0.71610  0.61000  0.20430  Biso   1.000  H
  H4       1.0000 0.28390  0.11000  0.29570  Biso   1.000  H
  C17      1.0000 0.22790  0.81300  0.98740  Biso   1.000  C
  C18      1.0000 0.77210  0.31300  0.51260  Biso   1.000  C
  C19      1.0000 0.77210  0.18700  0.01260  Biso   1.000  C
  C20      1.0000 0.22790  0.68700  0.48740  Biso   1.000  C
  C21      1.0000 0.24980  0.14100  0.87970  Biso   1.000  C
  C22      1.0000 0.75020  0.64100  0.62030  Biso   1.000  C
  C23      1.0000 0.75020  0.85900  0.12030  Biso   1.000  C
  C24      1.0000 0.24980  0.35900  0.37970  Biso   1.000  C
  H5       1.0000 0.19330  0.14100  0.83070  Biso   1.000  H
  H6       1.0000 0.80670  0.64100  0.66930  Biso   1.000  H
  H7       1.0000 0.80670  0.85900  0.16930  Biso   1.000  H
  H8       1.0000 0.19330  0.35900  0.33070  Biso   1.000  H
  C25      1.0000 0.26210  0.66400  0.07870  Biso   1.000  C
  C26      1.0000 0.73790  0.16400  0.42130  Biso   1.000  C
  C27      1.0000 0.73790  0.33600  0.92130  Biso   1.000  C
  C28      1.0000 0.26210  0.83600  0.57870  Biso   1.000  C
  H9       1.0000 0.22970  0.55240  0.08670  Biso   1.000  H
  H10      1.0000 0.77030  0.05240  0.41330  Biso   1.000  H
  H11      1.0000 0.77030  0.44760  0.91330  Biso   1.000  H
  H12      1.0000 0.22970  0.94760  0.58670  Biso   1.000  H
  C29      1.0000 0.39650  0.84000  0.14540  Biso   1.000  C
  C30      1.0000 0.60350  0.34000  0.35460  Biso   1.000  C
  C31      1.0000 0.60350  0.16000  0.85460  Biso   1.000  C
  C32      1.0000 0.39650  0.66000  0.64540  Biso   1.000  C
  H13      1.0000 0.45200  0.84850  0.19790  Biso   1.000  H
  H14      1.0000 0.54800  0.34850  0.30210  Biso   1.000  H
  H15      1.0000 0.54800  0.15150  0.80210  Biso   1.000  H
  H16      1.0000 0.45200  0.65150  0.69790  Biso   1.000  H
  C33      1.0000 0.34650  0.68200  0.15980  Biso   1.000  C
  C34      1.0000 0.65350  0.18200  0.34020  Biso   1.000  C
  C35      1.0000 0.65350  0.31800  0.84020  Biso   1.000  C
  C36      1.0000 0.34650  0.81800  0.65980  Biso   1.000  C
  H17      1.0000 0.36790  0.58500  0.22350  Biso   1.000  H
  H18      1.0000 0.63210  0.08500  0.27650  Biso   1.000  H
  H19      1.0000 0.63210  0.41500  0.77650  Biso   1.000  H
  H20      1.0000 0.36790  0.91500  0.72350  Biso   1.000  H
  C37      1.0000 0.41760  0.15700  0.03620  Biso   1.000  C
  C38      1.0000 0.58240  0.65700  0.46380  Biso   1.000  C
  C39      1.0000 0.58240  0.84300  0.96380  Biso   1.000  C
  C40      1.0000 0.41760  0.34300  0.53620  Biso   1.000  C
  H21      1.0000 0.47240  0.16660  0.09100  Biso   1.000  H
  H22      1.0000 0.52760  0.66660  0.40900  Biso   1.000  H
  H23      1.0000 0.52760  0.83340  0.90900  Biso   1.000  H
  H24      1.0000 0.47240  0.33340  0.59100  Biso   1.000  H
  C41      1.0000 0.38870  0.30200  0.94200  Biso   1.000  C
  C42      1.0000 0.61130  0.80200  0.55800  Biso   1.000  C
  C43      1.0000 0.61130  0.69800  0.05800  Biso   1.000  C
  C44      1.0000 0.38870  0.19800  0.44200  Biso   1.000  C
  H25      1.0000 0.42460  0.40620  0.93100  Biso   1.000  H
  H26      1.0000 0.57540  0.90620  0.56900  Biso   1.000  H
  H27      1.0000 0.57540  0.59380  0.06900  Biso   1.000  H
  H28      1.0000 0.42460  0.09380  0.43100  Biso   1.000  H
