data_image0
_cell_length_a       15.9568
_cell_length_b       29.329
_cell_length_c       28.657
_cell_angle_alpha    90
_cell_angle_beta     90
_cell_angle_gamma    90

_symmetry_space_group_name_H-M    "P 1"
_symmetry_int_tables_number       1

loop_
  _symmetry_equiv_pos_as_xyz
  'x, y, z'

loop_
  _atom_site_label
  _atom_site_occupancy
  _atom_site_fract_x
  _atom_site_fract_y
  _atom_site_fract_z
  _atom_site_thermal_displace_type
  _atom_site_B_iso_or_equiv
  _atom_site_type_symbol
  Cu1      1.0000 0.18503  0.22270  0.00000  Biso   1.000  Cu
  Cu2      1.0000 0.81497  0.77730  0.00000  Biso   1.000  Cu
  Cu3      1.0000 0.81497  0.22270  0.50000  Biso   1.000  Cu
  Cu4      1.0000 0.18503  0.77730  0.50000  Biso   1.000  Cu
  Cu5      1.0000 0.68503  0.72270  0.00000  Biso   1.000  Cu
  Cu6      1.0000 0.31497  0.27730  0.00000  Biso   1.000  Cu
  Cu7      1.0000 0.31497  0.72270  0.50000  Biso   1.000  Cu
  Cu8      1.0000 0.68503  0.27730  0.50000  Biso   1.000  Cu
  C1       1.0000 0.31490  0.20147  0.93789  Biso   1.000  C
  C2       1.0000 0.68510  0.79853  0.93789  Biso   1.000  C
  C3       1.0000 0.68510  0.20147  0.56211  Biso   1.000  C
  C4       1.0000 0.31490  0.79853  0.56211  Biso   1.000  C
  C5       1.0000 0.81490  0.70147  0.93789  Biso   1.000  C
  C6       1.0000 0.18510  0.29853  0.93789  Biso   1.000  C
  C7       1.0000 0.18510  0.70147  0.56211  Biso   1.000  C
  C8       1.0000 0.81490  0.29853  0.56211  Biso   1.000  C
  C9       1.0000 0.68510  0.79853  0.06211  Biso   1.000  C
  C10      1.0000 0.31490  0.20147  0.06211  Biso   1.000  C
  C11      1.0000 0.31490  0.79853  0.43789  Biso   1.000  C
  C12      1.0000 0.68510  0.20147  0.43789  Biso   1.000  C
  C13      1.0000 0.18510  0.29853  0.06211  Biso   1.000  C
  C14      1.0000 0.81490  0.70147  0.06211  Biso   1.000  C
  C15      1.0000 0.81490  0.29853  0.43789  Biso   1.000  C
  C16      1.0000 0.18510  0.70147  0.43789  Biso   1.000  C
  O1       1.0000 0.24570  0.18981  0.95199  Biso   1.000  O
  O2       1.0000 0.75430  0.81019  0.95199  Biso   1.000  O
  O3       1.0000 0.75430  0.18981  0.54801  Biso   1.000  O
  O4       1.0000 0.24570  0.81019  0.54801  Biso   1.000  O
  O5       1.0000 0.74570  0.68981  0.95199  Biso   1.000  O
  O6       1.0000 0.25430  0.31019  0.95199  Biso   1.000  O
  O7       1.0000 0.25430  0.68981  0.54801  Biso   1.000  O
  O8       1.0000 0.74570  0.31019  0.54801  Biso   1.000  O
  O9       1.0000 0.75430  0.81019  0.04801  Biso   1.000  O
  O10      1.0000 0.24570  0.18981  0.04801  Biso   1.000  O
  O11      1.0000 0.24570  0.81019  0.45199  Biso   1.000  O
  O12      1.0000 0.75430  0.18981  0.45199  Biso   1.000  O
  O13      1.0000 0.25430  0.31019  0.04801  Biso   1.000  O
  O14      1.0000 0.74570  0.68981  0.04801  Biso   1.000  O
  O15      1.0000 0.74570  0.31019  0.45199  Biso   1.000  O
  O16      1.0000 0.25430  0.68981  0.45199  Biso   1.000  O
  O17      1.0000 0.35800  0.23645  0.95196  Biso   1.000  O
  O18      1.0000 0.64200  0.76355  0.95196  Biso   1.000  O
  O19      1.0000 0.64200  0.23645  0.54804  Biso   1.000  O
  O20      1.0000 0.35800  0.76355  0.54804  Biso   1.000  O
  O21      1.0000 0.85800  0.73645  0.95196  Biso   1.000  O
  O22      1.0000 0.14200  0.26355  0.95196  Biso   1.000  O
  O23      1.0000 0.14200  0.73645  0.54804  Biso   1.000  O
  O24      1.0000 0.85800  0.26355  0.54804  Biso   1.000  O
  O25      1.0000 0.64200  0.76355  0.04804  Biso   1.000  O
  O26      1.0000 0.35800  0.23645  0.04804  Biso   1.000  O
  O27      1.0000 0.35800  0.76355  0.45196  Biso   1.000  O
  O28      1.0000 0.64200  0.23645  0.45196  Biso   1.000  O
  O29      1.0000 0.14200  0.26355  0.04804  Biso   1.000  O
  O30      1.0000 0.85800  0.73645  0.04804  Biso   1.000  O
  O31      1.0000 0.85800  0.26355  0.45196  Biso   1.000  O
  O32      1.0000 0.14200  0.73645  0.45196  Biso   1.000  O
  C17      1.0000 0.46600  0.04994  0.78568  Biso   1.000  C
  C18      1.0000 0.53400  0.95006  0.78568  Biso   1.000  C
  C19      1.0000 0.53400  0.04994  0.71432  Biso   1.000  C
  C20      1.0000 0.46600  0.95006  0.71432  Biso   1.000  C
  C21      1.0000 0.96600  0.54994  0.78568  Biso   1.000  C
  C22      1.0000 0.03400  0.45006  0.78568  Biso   1.000  C
  C23      1.0000 0.03400  0.54994  0.71432  Biso   1.000  C
  C24      1.0000 0.96600  0.45006  0.71432  Biso   1.000  C
  C25      1.0000 0.53400  0.95006  0.21432  Biso   1.000  C
  C26      1.0000 0.46600  0.04994  0.21432  Biso   1.000  C
  C27      1.0000 0.46600  0.95006  0.28568  Biso   1.000  C
  C28      1.0000 0.53400  0.04994  0.28568  Biso   1.000  C
  C29      1.0000 0.03400  0.45006  0.21432  Biso   1.000  C
  C30      1.0000 0.96600  0.54994  0.21432  Biso   1.000  C
  C31      1.0000 0.96600  0.45006  0.28568  Biso   1.000  C
  C32      1.0000 0.03400  0.54994  0.28568  Biso   1.000  C
  C33      1.0000 0.46360  0.09764  0.78693  Biso   1.000  C
  C34      1.0000 0.53640  0.90236  0.78693  Biso   1.000  C
  C35      1.0000 0.53640  0.09764  0.71307  Biso   1.000  C
  C36      1.0000 0.46360  0.90236  0.71307  Biso   1.000  C
  C37      1.0000 0.96360  0.59764  0.78693  Biso   1.000  C
  C38      1.0000 0.03640  0.40236  0.78693  Biso   1.000  C
  C39      1.0000 0.03640  0.59764  0.71307  Biso   1.000  C
  C40      1.0000 0.96360  0.40236  0.71307  Biso   1.000  C
  C41      1.0000 0.53640  0.90236  0.21307  Biso   1.000  C
  C42      1.0000 0.46360  0.09764  0.21307  Biso   1.000  C
  C43      1.0000 0.46360  0.90236  0.28693  Biso   1.000  C
  C44      1.0000 0.53640  0.09764  0.28693  Biso   1.000  C
  C45      1.0000 0.03640  0.40236  0.21307  Biso   1.000  C
  C46      1.0000 0.96360  0.59764  0.21307  Biso   1.000  C
  C47      1.0000 0.96360  0.40236  0.28693  Biso   1.000  C
  C48      1.0000 0.03640  0.59764  0.28693  Biso   1.000  C
  C49      1.0000 0.31460  0.13614  0.88171  Biso   1.000  C
  C50      1.0000 0.68540  0.86386  0.88171  Biso   1.000  C
  C51      1.0000 0.68540  0.13614  0.61829  Biso   1.000  C
  C52      1.0000 0.31460  0.86386  0.61829  Biso   1.000  C
  C53      1.0000 0.81460  0.63614  0.88171  Biso   1.000  C
  C54      1.0000 0.18540  0.36386  0.88171  Biso   1.000  C
  C55      1.0000 0.18540  0.63614  0.61829  Biso   1.000  C
  C56      1.0000 0.81460  0.36386  0.61829  Biso   1.000  C
  C57      1.0000 0.68540  0.86386  0.11829  Biso   1.000  C
  C58      1.0000 0.31460  0.13614  0.11829  Biso   1.000  C
  C59      1.0000 0.31460  0.86386  0.38171  Biso   1.000  C
  C60      1.0000 0.68540  0.13614  0.38171  Biso   1.000  C
  C61      1.0000 0.18540  0.36386  0.11829  Biso   1.000  C
  C62      1.0000 0.81460  0.63614  0.11829  Biso   1.000  C
  C63      1.0000 0.81460  0.36386  0.38171  Biso   1.000  C
  C64      1.0000 0.18540  0.63614  0.38171  Biso   1.000  C
  H1       1.0000 0.26400  0.12670  0.89460  Biso   1.000  H
  H2       1.0000 0.73600  0.87330  0.89460  Biso   1.000  H
  H3       1.0000 0.73600  0.12670  0.60540  Biso   1.000  H
  H4       1.0000 0.26400  0.87330  0.60540  Biso   1.000  H
  H5       1.0000 0.76400  0.62670  0.89460  Biso   1.000  H
  H6       1.0000 0.23600  0.37330  0.89460  Biso   1.000  H
  H7       1.0000 0.23600  0.62670  0.60540  Biso   1.000  H
  H8       1.0000 0.76400  0.37330  0.60540  Biso   1.000  H
  H9       1.0000 0.73600  0.87330  0.10540  Biso   1.000  H
  H10      1.0000 0.26400  0.12670  0.10540  Biso   1.000  H
  H11      1.0000 0.26400  0.87330  0.39460  Biso   1.000  H
  H12      1.0000 0.73600  0.12670  0.39460  Biso   1.000  H
  H13      1.0000 0.23600  0.37330  0.10540  Biso   1.000  H
  H14      1.0000 0.76400  0.62670  0.10540  Biso   1.000  H
  H15      1.0000 0.76400  0.37330  0.39460  Biso   1.000  H
  H16      1.0000 0.23600  0.62670  0.39460  Biso   1.000  H
  C65      1.0000 0.35370  0.17511  0.89880  Biso   1.000  C
  C66      1.0000 0.64630  0.82489  0.89880  Biso   1.000  C
  C67      1.0000 0.64630  0.17511  0.60120  Biso   1.000  C
  C68      1.0000 0.35370  0.82489  0.60120  Biso   1.000  C
  C69      1.0000 0.85370  0.67511  0.89880  Biso   1.000  C
  C70      1.0000 0.14630  0.32489  0.89880  Biso   1.000  C
  C71      1.0000 0.14630  0.67511  0.60120  Biso   1.000  C
  C72      1.0000 0.85370  0.32489  0.60120  Biso   1.000  C
  C73      1.0000 0.64630  0.82489  0.10120  Biso   1.000  C
  C74      1.0000 0.35370  0.17511  0.10120  Biso   1.000  C
  C75      1.0000 0.35370  0.82489  0.39880  Biso   1.000  C
  C76      1.0000 0.64630  0.17511  0.39880  Biso   1.000  C
  C77      1.0000 0.14630  0.32489  0.10120  Biso   1.000  C
  C78      1.0000 0.85370  0.67511  0.10120  Biso   1.000  C
  C79      1.0000 0.85370  0.32489  0.39880  Biso   1.000  C
  C80      1.0000 0.14630  0.67511  0.39880  Biso   1.000  C
  C81      1.0000 0.42990  0.18697  0.88033  Biso   1.000  C
  C82      1.0000 0.57010  0.81303  0.88033  Biso   1.000  C
  C83      1.0000 0.57010  0.18697  0.61967  Biso   1.000  C
  C84      1.0000 0.42990  0.81303  0.61967  Biso   1.000  C
  C85      1.0000 0.92990  0.68697  0.88033  Biso   1.000  C
  C86      1.0000 0.07010  0.31303  0.88033  Biso   1.000  C
  C87      1.0000 0.07010  0.68697  0.61967  Biso   1.000  C
  C88      1.0000 0.92990  0.31303  0.61967  Biso   1.000  C
  C89      1.0000 0.57010  0.81303  0.11967  Biso   1.000  C
  C90      1.0000 0.42990  0.18697  0.11967  Biso   1.000  C
  C91      1.0000 0.42990  0.81303  0.38033  Biso   1.000  C
  C92      1.0000 0.57010  0.18697  0.38033  Biso   1.000  C
  C93      1.0000 0.07010  0.31303  0.11967  Biso   1.000  C
  C94      1.0000 0.92990  0.68697  0.11967  Biso   1.000  C
  C95      1.0000 0.92990  0.31303  0.38033  Biso   1.000  C
  C96      1.0000 0.07010  0.68697  0.38033  Biso   1.000  C
  H17      1.0000 0.45780  0.21230  0.89220  Biso   1.000  H
  H18      1.0000 0.54220  0.78770  0.89220  Biso   1.000  H
  H19      1.0000 0.54220  0.21230  0.60780  Biso   1.000  H
  H20      1.0000 0.45780  0.78770  0.60780  Biso   1.000  H
  H21      1.0000 0.95780  0.71230  0.89220  Biso   1.000  H
  H22      1.0000 0.04220  0.28770  0.89220  Biso   1.000  H
  H23      1.0000 0.04220  0.71230  0.60780  Biso   1.000  H
  H24      1.0000 0.95780  0.28770  0.60780  Biso   1.000  H
  H25      1.0000 0.54220  0.78770  0.10780  Biso   1.000  H
  H26      1.0000 0.45780  0.21230  0.10780  Biso   1.000  H
  H27      1.0000 0.45780  0.78770  0.39220  Biso   1.000  H
  H28      1.0000 0.54220  0.21230  0.39220  Biso   1.000  H
  H29      1.0000 0.04220  0.28770  0.10780  Biso   1.000  H
  H30      1.0000 0.95780  0.71230  0.10780  Biso   1.000  H
  H31      1.0000 0.95780  0.28770  0.39220  Biso   1.000  H
  H32      1.0000 0.04220  0.71230  0.39220  Biso   1.000  H
  C97      1.0000 0.50000  0.02573  0.75000  Biso   1.000  C
  C98      1.0000 0.50000  0.97427  0.75000  Biso   1.000  C
  C99      1.0000 0.00000  0.52573  0.75000  Biso   1.000  C
  C100     1.0000 0.00000  0.47427  0.75000  Biso   1.000  C
  C101     1.0000 0.50000  0.97427  0.25000  Biso   1.000  C
  C102     1.0000 0.50000  0.02573  0.25000  Biso   1.000  C
  C103     1.0000 0.00000  0.47427  0.25000  Biso   1.000  C
  C104     1.0000 0.00000  0.52573  0.25000  Biso   1.000  C
  O33      1.0000 0.07760  0.17895  0.00000  Biso   1.000  O
  O34      1.0000 0.92240  0.82105  0.00000  Biso   1.000  O
  O35      1.0000 0.92240  0.17895  0.50000  Biso   1.000  O
  O36      1.0000 0.07760  0.82105  0.50000  Biso   1.000  O
  O37      1.0000 0.57760  0.67895  0.00000  Biso   1.000  O
  O38      1.0000 0.42240  0.32105  0.00000  Biso   1.000  O
  O39      1.0000 0.42240  0.67895  0.50000  Biso   1.000  O
  O40      1.0000 0.57760  0.32105  0.50000  Biso   1.000  O
  C105     1.0000 0.35070  0.11091  0.84534  Biso   1.000  C
  C106     1.0000 0.64930  0.88909  0.84534  Biso   1.000  C
  C107     1.0000 0.64930  0.11091  0.65466  Biso   1.000  C
  C108     1.0000 0.35070  0.88909  0.65466  Biso   1.000  C
  C109     1.0000 0.85070  0.61091  0.84534  Biso   1.000  C
  C110     1.0000 0.14930  0.38909  0.84534  Biso   1.000  C
  C111     1.0000 0.14930  0.61091  0.65466  Biso   1.000  C
  C112     1.0000 0.85070  0.38909  0.65466  Biso   1.000  C
  C113     1.0000 0.64930  0.88909  0.15466  Biso   1.000  C
  C114     1.0000 0.35070  0.11091  0.15466  Biso   1.000  C
  C115     1.0000 0.35070  0.88909  0.34534  Biso   1.000  C
  C116     1.0000 0.64930  0.11091  0.34534  Biso   1.000  C
  C117     1.0000 0.14930  0.38909  0.15466  Biso   1.000  C
  C118     1.0000 0.85070  0.61091  0.15466  Biso   1.000  C
  C119     1.0000 0.85070  0.38909  0.34534  Biso   1.000  C
  C120     1.0000 0.14930  0.61091  0.34534  Biso   1.000  C
  H33      1.0000 0.32260  0.08550  0.83370  Biso   1.000  H
  H34      1.0000 0.67740  0.91450  0.83370  Biso   1.000  H
  H35      1.0000 0.67740  0.08550  0.66630  Biso   1.000  H
  H36      1.0000 0.32260  0.91450  0.66630  Biso   1.000  H
  H37      1.0000 0.82260  0.58550  0.83370  Biso   1.000  H
  H38      1.0000 0.17740  0.41450  0.83370  Biso   1.000  H
  H39      1.0000 0.17740  0.58550  0.66630  Biso   1.000  H
  H40      1.0000 0.82260  0.41450  0.66630  Biso   1.000  H
  H41      1.0000 0.67740  0.91450  0.16630  Biso   1.000  H
  H42      1.0000 0.32260  0.08550  0.16630  Biso   1.000  H
  H43      1.0000 0.32260  0.91450  0.33370  Biso   1.000  H
  H44      1.0000 0.67740  0.08550  0.33370  Biso   1.000  H
  H45      1.0000 0.17740  0.41450  0.16630  Biso   1.000  H
  H46      1.0000 0.82260  0.58550  0.16630  Biso   1.000  H
  H47      1.0000 0.82260  0.41450  0.33370  Biso   1.000  H
  H48      1.0000 0.17740  0.58550  0.33370  Biso   1.000  H
  C121     1.0000 0.42720  0.12301  0.82637  Biso   1.000  C
  C122     1.0000 0.57280  0.87699  0.82637  Biso   1.000  C
  C123     1.0000 0.57280  0.12301  0.67363  Biso   1.000  C
  C124     1.0000 0.42720  0.87699  0.67363  Biso   1.000  C
  C125     1.0000 0.92720  0.62301  0.82637  Biso   1.000  C
  C126     1.0000 0.07280  0.37699  0.82637  Biso   1.000  C
  C127     1.0000 0.07280  0.62301  0.67363  Biso   1.000  C
  C128     1.0000 0.92720  0.37699  0.67363  Biso   1.000  C
  C129     1.0000 0.57280  0.87699  0.17363  Biso   1.000  C
  C130     1.0000 0.42720  0.12301  0.17363  Biso   1.000  C
  C131     1.0000 0.42720  0.87699  0.32637  Biso   1.000  C
  C132     1.0000 0.57280  0.12301  0.32637  Biso   1.000  C
  C133     1.0000 0.07280  0.37699  0.17363  Biso   1.000  C
  C134     1.0000 0.92720  0.62301  0.17363  Biso   1.000  C
  C135     1.0000 0.92720  0.37699  0.32637  Biso   1.000  C
  C136     1.0000 0.07280  0.62301  0.32637  Biso   1.000  C
  C137     1.0000 0.46730  0.16187  0.84380  Biso   1.000  C
  C138     1.0000 0.53270  0.83813  0.84380  Biso   1.000  C
  C139     1.0000 0.53270  0.16187  0.65620  Biso   1.000  C
  C140     1.0000 0.46730  0.83813  0.65620  Biso   1.000  C
  C141     1.0000 0.96730  0.66187  0.84380  Biso   1.000  C
  C142     1.0000 0.03270  0.33813  0.84380  Biso   1.000  C
  C143     1.0000 0.03270  0.66187  0.65620  Biso   1.000  C
  C144     1.0000 0.96730  0.33813  0.65620  Biso   1.000  C
  C145     1.0000 0.53270  0.83813  0.15620  Biso   1.000  C
  C146     1.0000 0.46730  0.16187  0.15620  Biso   1.000  C
  C147     1.0000 0.46730  0.83813  0.34380  Biso   1.000  C
  C148     1.0000 0.53270  0.16187  0.34380  Biso   1.000  C
  C149     1.0000 0.03270  0.33813  0.15620  Biso   1.000  C
  C150     1.0000 0.96730  0.66187  0.15620  Biso   1.000  C
  C151     1.0000 0.96730  0.33813  0.34380  Biso   1.000  C
  C152     1.0000 0.03270  0.66187  0.34380  Biso   1.000  C
  H49      1.0000 0.51830  0.17110  0.83140  Biso   1.000  H
  H50      1.0000 0.48170  0.82890  0.83140  Biso   1.000  H
  H51      1.0000 0.48170  0.17110  0.66860  Biso   1.000  H
  H52      1.0000 0.51830  0.82890  0.66860  Biso   1.000  H
  H53      1.0000 0.01830  0.67110  0.83140  Biso   1.000  H
  H54      1.0000 0.98170  0.32890  0.83140  Biso   1.000  H
  H55      1.0000 0.98170  0.67110  0.66860  Biso   1.000  H
  H56      1.0000 0.01830  0.32890  0.66860  Biso   1.000  H
  H57      1.0000 0.48170  0.82890  0.16860  Biso   1.000  H
  H58      1.0000 0.51830  0.17110  0.16860  Biso   1.000  H
  H59      1.0000 0.51830  0.82890  0.33140  Biso   1.000  H
  H60      1.0000 0.48170  0.17110  0.33140  Biso   1.000  H
  H61      1.0000 0.98170  0.32890  0.16860  Biso   1.000  H
  H62      1.0000 0.01830  0.67110  0.16860  Biso   1.000  H
  H63      1.0000 0.01830  0.32890  0.33140  Biso   1.000  H
  H64      1.0000 0.98170  0.67110  0.33140  Biso   1.000  H
  C153     1.0000 0.50000  0.11992  0.75000  Biso   1.000  C
  C154     1.0000 0.50000  0.88008  0.75000  Biso   1.000  C
  C155     1.0000 0.00000  0.61992  0.75000  Biso   1.000  C
  C156     1.0000 0.00000  0.38008  0.75000  Biso   1.000  C
  C157     1.0000 0.50000  0.88008  0.25000  Biso   1.000  C
  C158     1.0000 0.50000  0.11992  0.25000  Biso   1.000  C
  C159     1.0000 0.00000  0.38008  0.25000  Biso   1.000  C
  C160     1.0000 0.00000  0.61992  0.25000  Biso   1.000  C
  H65      1.0000 0.50000  0.15160  0.75000  Biso   1.000  H
  H66      1.0000 0.50000  0.84840  0.75000  Biso   1.000  H
  H67      1.0000 0.00000  0.65160  0.75000  Biso   1.000  H
  H68      1.0000 0.00000  0.34840  0.75000  Biso   1.000  H
  H69      1.0000 0.50000  0.84840  0.25000  Biso   1.000  H
  H70      1.0000 0.50000  0.15160  0.25000  Biso   1.000  H
  H71      1.0000 0.00000  0.34840  0.25000  Biso   1.000  H
  H72      1.0000 0.00000  0.65160  0.25000  Biso   1.000  H
  O41      1.0000 0.42760  0.02817  0.82291  Biso   1.000  O
  O42      1.0000 0.57240  0.97183  0.82291  Biso   1.000  O
  O43      1.0000 0.57240  0.02817  0.67709  Biso   1.000  O
  O44      1.0000 0.42760  0.97183  0.67709  Biso   1.000  O
  O45      1.0000 0.92760  0.52817  0.82291  Biso   1.000  O
  O46      1.0000 0.07240  0.47183  0.82291  Biso   1.000  O
  O47      1.0000 0.07240  0.52817  0.67709  Biso   1.000  O
  O48      1.0000 0.92760  0.47183  0.67709  Biso   1.000  O
  O49      1.0000 0.57240  0.97183  0.17709  Biso   1.000  O
  O50      1.0000 0.42760  0.02817  0.17709  Biso   1.000  O
  O51      1.0000 0.42760  0.97183  0.32291  Biso   1.000  O
  O52      1.0000 0.57240  0.02817  0.32291  Biso   1.000  O
  O53      1.0000 0.07240  0.47183  0.17709  Biso   1.000  O
  O54      1.0000 0.92760  0.52817  0.17709  Biso   1.000  O
  O55      1.0000 0.92760  0.47183  0.32291  Biso   1.000  O
  O56      1.0000 0.07240  0.52817  0.32291  Biso   1.000  O
  H73      1.0000 0.99900  0.17900  0.01700  Biso   1.000  H
  H74      1.0000 0.00100  0.82100  0.01700  Biso   1.000  H
  H75      1.0000 0.00100  0.17900  0.48300  Biso   1.000  H
  H76      1.0000 0.99900  0.82100  0.48300  Biso   1.000  H
  H77      1.0000 0.49900  0.67900  0.01700  Biso   1.000  H
  H78      1.0000 0.50100  0.32100  0.01700  Biso   1.000  H
  H79      1.0000 0.50100  0.67900  0.48300  Biso   1.000  H
  H80      1.0000 0.49900  0.32100  0.48300  Biso   1.000  H
  H81      1.0000 0.00100  0.82100  0.98300  Biso   1.000  H
  H82      1.0000 0.99900  0.17900  0.98300  Biso   1.000  H
  H83      1.0000 0.99900  0.82100  0.51700  Biso   1.000  H
  H84      1.0000 0.00100  0.17900  0.51700  Biso   1.000  H
  H85      1.0000 0.50100  0.32100  0.98300  Biso   1.000  H
  H86      1.0000 0.49900  0.67900  0.98300  Biso   1.000  H
  H87      1.0000 0.49900  0.32100  0.51700  Biso   1.000  H
  H88      1.0000 0.50100  0.67900  0.51700  Biso   1.000  H
