data_image0
_cell_length_a       6.8436
_cell_length_b       7.0732
_cell_length_c       16.6
_cell_angle_alpha    90
_cell_angle_beta     90
_cell_angle_gamma    90

_symmetry_space_group_name_H-M    "P 1"
_symmetry_int_tables_number       1

loop_
  _symmetry_equiv_pos_as_xyz
  'x, y, z'

loop_
  _atom_site_label
  _atom_site_occupancy
  _atom_site_fract_x
  _atom_site_fract_y
  _atom_site_fract_z
  _atom_site_thermal_displace_type
  _atom_site_B_iso_or_equiv
  _atom_site_type_symbol
  Cu1      1.0000 0.50000  0.00000  0.50000  Biso   1.000  Cu
  Cu2      1.0000 0.00000  0.00000  0.00000  Biso   1.000  Cu
  Cu3      1.0000 0.50000  0.50000  0.50000  Biso   1.000  Cu
  Cu4      1.0000 0.00000  0.50000  0.00000  Biso   1.000  Cu
  O1       1.0000 0.73770  0.09190  0.55210  Biso   1.000  O
  O2       1.0000 0.76230  0.90810  0.05210  Biso   1.000  O
  O3       1.0000 0.26230  0.59190  0.44790  Biso   1.000  O
  O4       1.0000 0.23770  0.40810  0.94790  Biso   1.000  O
  O5       1.0000 0.26230  0.90810  0.44790  Biso   1.000  O
  O6       1.0000 0.23770  0.09190  0.94790  Biso   1.000  O
  O7       1.0000 0.73770  0.40810  0.55210  Biso   1.000  O
  O8       1.0000 0.76230  0.59190  0.05210  Biso   1.000  O
  N1       1.0000 0.36090  0.25000  0.38760  Biso   1.000  N
  N2       1.0000 0.13910  0.75000  0.88760  Biso   1.000  N
  N3       1.0000 0.63910  0.75000  0.61240  Biso   1.000  N
  N4       1.0000 0.86090  0.25000  0.11240  Biso   1.000  N
  N5       1.0000 0.45380  0.25000  0.45020  Biso   1.000  N
  N6       1.0000 0.04620  0.75000  0.95020  Biso   1.000  N
  N7       1.0000 0.54620  0.75000  0.54980  Biso   1.000  N
  N8       1.0000 0.95380  0.25000  0.04980  Biso   1.000  N
  N9       1.0000 0.28100  0.25000  0.32520  Biso   1.000  N
  N10      1.0000 0.21900  0.75000  0.82520  Biso   1.000  N
  N11      1.0000 0.71900  0.75000  0.67480  Biso   1.000  N
  N12      1.0000 0.78100  0.25000  0.17480  Biso   1.000  N
  C1       1.0000 0.80770  0.25000  0.56790  Biso   1.000  C
  C2       1.0000 0.69230  0.75000  0.06790  Biso   1.000  C
  C3       1.0000 0.19230  0.75000  0.43210  Biso   1.000  C
  C4       1.0000 0.30770  0.25000  0.93210  Biso   1.000  C
  C5       1.0000 0.00550  0.25000  0.60560  Biso   1.000  C
  C6       1.0000 0.49450  0.75000  0.10560  Biso   1.000  C
  C7       1.0000 0.99450  0.75000  0.39440  Biso   1.000  C
  C8       1.0000 0.50550  0.25000  0.89440  Biso   1.000  C
  C9       1.0000 0.28040  0.08180  0.66570  Biso   1.000  C
  C10      1.0000 0.21960  0.91820  0.16570  Biso   1.000  C
  C11      1.0000 0.71960  0.58180  0.33430  Biso   1.000  C
  C12      1.0000 0.78040  0.41820  0.83430  Biso   1.000  C
  C13      1.0000 0.71960  0.91820  0.33430  Biso   1.000  C
  C14      1.0000 0.78040  0.08180  0.83430  Biso   1.000  C
  C15      1.0000 0.28040  0.41820  0.66570  Biso   1.000  C
  C16      1.0000 0.21960  0.58180  0.16570  Biso   1.000  C
  H1       1.0000 0.34170  0.96890  0.67930  Biso   1.000  H
  H2       1.0000 0.15830  0.03110  0.17930  Biso   1.000  H
  H3       1.0000 0.65830  0.46890  0.32070  Biso   1.000  H
  H4       1.0000 0.84170  0.53110  0.82070  Biso   1.000  H
  H5       1.0000 0.65830  0.03110  0.32070  Biso   1.000  H
  H6       1.0000 0.84170  0.96890  0.82070  Biso   1.000  H
  H7       1.0000 0.34170  0.53110  0.67930  Biso   1.000  H
  H8       1.0000 0.15830  0.46890  0.17930  Biso   1.000  H
  C17      1.0000 0.36700  0.25000  0.68510  Biso   1.000  C
  C18      1.0000 0.13300  0.75000  0.18510  Biso   1.000  C
  C19      1.0000 0.63300  0.75000  0.31490  Biso   1.000  C
  C20      1.0000 0.86700  0.25000  0.81490  Biso   1.000  C
  H9       1.0000 0.48610  0.25000  0.71200  Biso   1.000  H
  H10      1.0000 0.01390  0.75000  0.21200  Biso   1.000  H
  H11      1.0000 0.51390  0.75000  0.28800  Biso   1.000  H
  H12      1.0000 0.98610  0.25000  0.78800  Biso   1.000  H
  C21      1.0000 0.10070  0.07780  0.62550  Biso   1.000  C
  C22      1.0000 0.39930  0.92220  0.12550  Biso   1.000  C
  C23      1.0000 0.89930  0.57780  0.37450  Biso   1.000  C
  C24      1.0000 0.60070  0.42220  0.87450  Biso   1.000  C
  C25      1.0000 0.89930  0.92220  0.37450  Biso   1.000  C
  C26      1.0000 0.60070  0.07780  0.87450  Biso   1.000  C
  C27      1.0000 0.10070  0.42220  0.62550  Biso   1.000  C
  C28      1.0000 0.39930  0.57780  0.12550  Biso   1.000  C
  H13      1.0000 0.04380  0.96280  0.61180  Biso   1.000  H
  H14      1.0000 0.45620  0.03720  0.11180  Biso   1.000  H
  H15      1.0000 0.95620  0.46280  0.38820  Biso   1.000  H
  H16      1.0000 0.54380  0.53720  0.88820  Biso   1.000  H
  H17      1.0000 0.95620  0.03720  0.38820  Biso   1.000  H
  H18      1.0000 0.54380  0.96280  0.88820  Biso   1.000  H
  H19      1.0000 0.04380  0.53720  0.61180  Biso   1.000  H
  H20      1.0000 0.45620  0.46280  0.11180  Biso   1.000  H
