data_image0
_cell_length_a       10.536
_cell_length_b       11.077
_cell_length_c       14.174
_cell_angle_alpha    90
_cell_angle_beta     105.124
_cell_angle_gamma    90

_symmetry_space_group_name_H-M    "P 1"
_symmetry_int_tables_number       1

loop_
  _symmetry_equiv_pos_as_xyz
  'x, y, z'

loop_
  _atom_site_label
  _atom_site_occupancy
  _atom_site_fract_x
  _atom_site_fract_y
  _atom_site_fract_z
  _atom_site_thermal_displace_type
  _atom_site_B_iso_or_equiv
  _atom_site_type_symbol
  Cu1      1.0000 0.00000  0.13075  0.00000  Biso   1.000  Cu
  Cu2      1.0000 0.50000  0.63075  0.00000  Biso   1.000  Cu
  Cu3      1.0000 0.50000  0.36836  0.50000  Biso   1.000  Cu
  Cu4      1.0000 0.00000  0.86836  0.50000  Biso   1.000  Cu
  O1       1.0000 0.62150  0.33690  0.37450  Biso   1.000  O
  O2       1.0000 0.37850  0.33690  0.62550  Biso   1.000  O
  O3       1.0000 0.12150  0.83690  0.37450  Biso   1.000  O
  O4       1.0000 0.87850  0.83690  0.62550  Biso   1.000  O
  C1       1.0000 0.11320  0.37360  0.01770  Biso   1.000  C
  C2       1.0000 0.88680  0.37360  0.98230  Biso   1.000  C
  C3       1.0000 0.61320  0.87360  0.01770  Biso   1.000  C
  C4       1.0000 0.38680  0.87360  0.98230  Biso   1.000  C
  H1       1.0000 0.19210  0.33150  0.02940  Biso   1.000  H
  H2       1.0000 0.80790  0.33150  0.97060  Biso   1.000  H
  H3       1.0000 0.69210  0.83150  0.02940  Biso   1.000  H
  H4       1.0000 0.30790  0.83150  0.97060  Biso   1.000  H
  C5       1.0000 0.53520  0.61290  0.43010  Biso   1.000  C
  C6       1.0000 0.46480  0.61290  0.56990  Biso   1.000  C
  C7       1.0000 0.03520  0.11290  0.43010  Biso   1.000  C
  C8       1.0000 0.96480  0.11290  0.56990  Biso   1.000  C
  H5       1.0000 0.55870  0.57130  0.38020  Biso   1.000  H
  H6       1.0000 0.44130  0.57130  0.61980  Biso   1.000  H
  H7       1.0000 0.05870  0.07130  0.38020  Biso   1.000  H
  H8       1.0000 0.94130  0.07130  0.61980  Biso   1.000  H
  O5       1.0000 0.33200  0.44140  0.22850  Biso   1.000  O
  O6       1.0000 0.66800  0.44140  0.77150  Biso   1.000  O
  O7       1.0000 0.83200  0.94140  0.22850  Biso   1.000  O
  O8       1.0000 0.16800  0.94140  0.77150  Biso   1.000  O
  C9       1.0000 0.36730  0.36990  0.29750  Biso   1.000  C
  C10      1.0000 0.63270  0.36990  0.70250  Biso   1.000  C
  C11      1.0000 0.86730  0.86990  0.29750  Biso   1.000  C
  C12      1.0000 0.13270  0.86990  0.70250  Biso   1.000  C
  O9       1.0000 0.35140  0.38410  0.38193  Biso   1.000  O
  O10      1.0000 0.64860  0.38410  0.61807  Biso   1.000  O
  O11      1.0000 0.85140  0.88410  0.38193  Biso   1.000  O
  O12      1.0000 0.14860  0.88410  0.61807  Biso   1.000  O
  C13      1.0000 0.09030  0.76180  0.06890  Biso   1.000  C
  C14      1.0000 0.90970  0.76180  0.93110  Biso   1.000  C
  C15      1.0000 0.59030  0.26180  0.06890  Biso   1.000  C
  C16      1.0000 0.40970  0.26180  0.93110  Biso   1.000  C
  H9       1.0000 0.15460  0.72240  0.11640  Biso   1.000  H
  H10      1.0000 0.84540  0.72240  0.88360  Biso   1.000  H
  H11      1.0000 0.65460  0.22240  0.11640  Biso   1.000  H
  H12      1.0000 0.34540  0.22240  0.88360  Biso   1.000  H
  C17      1.0000 0.08500  0.88420  0.06700  Biso   1.000  C
  C18      1.0000 0.91500  0.88420  0.93300  Biso   1.000  C
  C19      1.0000 0.58500  0.38420  0.06700  Biso   1.000  C
  C20      1.0000 0.41500  0.38420  0.93300  Biso   1.000  C
  H13      1.0000 0.14470  0.92650  0.11580  Biso   1.000  H
  H14      1.0000 0.85530  0.92650  0.88420  Biso   1.000  H
  H15      1.0000 0.64470  0.42650  0.11580  Biso   1.000  H
  H16      1.0000 0.35530  0.42650  0.88420  Biso   1.000  H
  N1       1.0000 0.00000  0.94640  0.00000  Biso   1.000  N
  N2       1.0000 0.50000  0.44640  0.00000  Biso   1.000  N
  N3       1.0000 0.56060  0.24570  0.31950  Biso   1.000  N
  N4       1.0000 0.43940  0.24570  0.68050  Biso   1.000  N
  N5       1.0000 0.06060  0.74570  0.31950  Biso   1.000  N
  N6       1.0000 0.93940  0.74570  0.68050  Biso   1.000  N
  C21      1.0000 0.42980  0.25540  0.27810  Biso   1.000  C
  C22      1.0000 0.57020  0.25540  0.72190  Biso   1.000  C
  C23      1.0000 0.92980  0.75540  0.27810  Biso   1.000  C
  C24      1.0000 0.07020  0.75540  0.72190  Biso   1.000  C
  N7       1.0000 0.50000  0.18490  0.50000  Biso   1.000  N
  N8       1.0000 0.00000  0.68490  0.50000  Biso   1.000  N
  C25      1.0000 0.62720  0.14370  0.31170  Biso   1.000  C
  C26      1.0000 0.37280  0.14370  0.68830  Biso   1.000  C
  C27      1.0000 0.12720  0.64370  0.31170  Biso   1.000  C
  C28      1.0000 0.87280  0.64370  0.68830  Biso   1.000  C
  H17      1.0000 0.71690  0.13900  0.34110  Biso   1.000  H
  H18      1.0000 0.28310  0.13900  0.65890  Biso   1.000  H
  H19      1.0000 0.21690  0.63900  0.34110  Biso   1.000  H
  H20      1.0000 0.78310  0.63900  0.65890  Biso   1.000  H
  C29      1.0000 0.36300  0.15920  0.22320  Biso   1.000  C
  C30      1.0000 0.63700  0.15920  0.77680  Biso   1.000  C
  C31      1.0000 0.86300  0.65920  0.22320  Biso   1.000  C
  C32      1.0000 0.13700  0.65920  0.77680  Biso   1.000  C
  C33      1.0000 0.43010  0.05480  0.21580  Biso   1.000  C
  C34      1.0000 0.56990  0.05480  0.78420  Biso   1.000  C
  C35      1.0000 0.93010  0.55480  0.21580  Biso   1.000  C
  C36      1.0000 0.06990  0.55480  0.78420  Biso   1.000  C
  H21      1.0000 0.38630  0.98930  0.18090  Biso   1.000  H
  H22      1.0000 0.61370  0.98930  0.81910  Biso   1.000  H
  H23      1.0000 0.88630  0.48930  0.18090  Biso   1.000  H
  H24      1.0000 0.11370  0.48930  0.81910  Biso   1.000  H
  C37      1.0000 0.56330  0.04770  0.26070  Biso   1.000  C
  C38      1.0000 0.43670  0.04770  0.73930  Biso   1.000  C
  C39      1.0000 0.06330  0.54770  0.26070  Biso   1.000  C
  C40      1.0000 0.93670  0.54770  0.73930  Biso   1.000  C
  H25      1.0000 0.60920  0.97720  0.25600  Biso   1.000  H
  H26      1.0000 0.39080  0.97720  0.74400  Biso   1.000  H
  H27      1.0000 0.10920  0.47720  0.25600  Biso   1.000  H
  H28      1.0000 0.89080  0.47720  0.74400  Biso   1.000  H
  C41      1.0000 0.00000  0.56510  0.00000  Biso   1.000  C
  C42      1.0000 0.50000  0.06510  0.00000  Biso   1.000  C
  O13      1.0000 0.17790  0.12770  0.09346  Biso   1.000  O
  O14      1.0000 0.82210  0.12770  0.90654  Biso   1.000  O
  O15      1.0000 0.67790  0.62770  0.09346  Biso   1.000  O
  O16      1.0000 0.32210  0.62770  0.90654  Biso   1.000  O
  C43      1.0000 0.53830  0.73590  0.42860  Biso   1.000  C
  C44      1.0000 0.46170  0.73590  0.57140  Biso   1.000  C
  C45      1.0000 0.03830  0.23590  0.42860  Biso   1.000  C
  C46      1.0000 0.96170  0.23590  0.57140  Biso   1.000  C
  H29      1.0000 0.56600  0.77590  0.37990  Biso   1.000  H
  H30      1.0000 0.43400  0.77590  0.62010  Biso   1.000  H
  H31      1.0000 0.06600  0.27590  0.37990  Biso   1.000  H
  H32      1.0000 0.93400  0.27590  0.62010  Biso   1.000  H
  C47      1.0000 0.11650  0.49810  0.01920  Biso   1.000  C
  C48      1.0000 0.88350  0.49810  0.98080  Biso   1.000  C
  C49      1.0000 0.61650  0.99810  0.01920  Biso   1.000  C
  C50      1.0000 0.38350  0.99810  0.98080  Biso   1.000  C
  H33      1.0000 0.19700  0.53790  0.03310  Biso   1.000  H
  H34      1.0000 0.80300  0.53790  0.96690  Biso   1.000  H
  H35      1.0000 0.69700  0.03790  0.03310  Biso   1.000  H
  H36      1.0000 0.30300  0.03790  0.96690  Biso   1.000  H
  O17      1.0000 0.89620  0.14730  0.13960  Biso   1.000  O
  O18      1.0000 0.10380  0.14730  0.86040  Biso   1.000  O
  O19      1.0000 0.39620  0.64730  0.13960  Biso   1.000  O
  O20      1.0000 0.60380  0.64730  0.86040  Biso   1.000  O
  H37      1.0000 0.92230  0.22020  0.14360  Biso   1.000  H
  H38      1.0000 0.07770  0.22020  0.85640  Biso   1.000  H
  H39      1.0000 0.42230  0.72020  0.14360  Biso   1.000  H
  H40      1.0000 0.57770  0.72020  0.85640  Biso   1.000  H
  H41      1.0000 0.92850  0.11170  0.19360  Biso   1.000  H
  H42      1.0000 0.07150  0.11170  0.80640  Biso   1.000  H
  H43      1.0000 0.42850  0.61170  0.19360  Biso   1.000  H
  H44      1.0000 0.57150  0.61170  0.80640  Biso   1.000  H
  N9       1.0000 0.00000  0.31070  0.00000  Biso   1.000  N
  N10      1.0000 0.50000  0.81070  0.00000  Biso   1.000  N
  C51      1.0000 0.21660  0.16990  0.17910  Biso   1.000  C
  C52      1.0000 0.78340  0.16990  0.82090  Biso   1.000  C
  C53      1.0000 0.71660  0.66990  0.17910  Biso   1.000  C
  C54      1.0000 0.28340  0.66990  0.82090  Biso   1.000  C
  C55      1.0000 0.61100  0.12240  0.53610  Biso   1.000  C
  C56      1.0000 0.38900  0.12240  0.46390  Biso   1.000  C
  C57      1.0000 0.11100  0.62240  0.53610  Biso   1.000  C
  C58      1.0000 0.88900  0.62240  0.46390  Biso   1.000  C
  H45      1.0000 0.68870  0.16460  0.56190  Biso   1.000  H
  H46      1.0000 0.31130  0.16460  0.43810  Biso   1.000  H
  H47      1.0000 0.18870  0.66460  0.56190  Biso   1.000  H
  H48      1.0000 0.81130  0.66460  0.43810  Biso   1.000  H
  C59      1.0000 0.61440  0.00050  0.53630  Biso   1.000  C
  C60      1.0000 0.38560  0.00050  0.46370  Biso   1.000  C
  C61      1.0000 0.11440  0.50050  0.53630  Biso   1.000  C
  C62      1.0000 0.88560  0.50050  0.46370  Biso   1.000  C
  H49      1.0000 0.69350  0.96000  0.56080  Biso   1.000  H
  H50      1.0000 0.30650  0.96000  0.43920  Biso   1.000  H
  H51      1.0000 0.19350  0.46000  0.56080  Biso   1.000  H
  H52      1.0000 0.80650  0.46000  0.43920  Biso   1.000  H
  O21      1.0000 0.14890  0.21630  0.22770  Biso   1.000  O
  O22      1.0000 0.85110  0.21630  0.77230  Biso   1.000  O
  O23      1.0000 0.64890  0.71630  0.22770  Biso   1.000  O
  O24      1.0000 0.35110  0.71630  0.77230  Biso   1.000  O
  C63      1.0000 0.50000  0.93650  0.50000  Biso   1.000  C
  C64      1.0000 0.00000  0.43650  0.50000  Biso   1.000  C
  N11      1.0000 0.50000  0.54830  0.50000  Biso   1.000  N
  N12      1.0000 0.00000  0.04830  0.50000  Biso   1.000  N
  C65      1.0000 0.00000  0.69570  0.00000  Biso   1.000  C
  C66      1.0000 0.50000  0.19570  0.00000  Biso   1.000  C
  C67      1.0000 0.50000  0.80140  0.50000  Biso   1.000  C
  C68      1.0000 0.00000  0.30140  0.50000  Biso   1.000  C
