data_image0
_cell_length_a       25.767
_cell_length_b       11.9442
_cell_length_c       14.1265
_cell_angle_alpha    90
_cell_angle_beta     98.993
_cell_angle_gamma    90

_symmetry_space_group_name_H-M    "P 1"
_symmetry_int_tables_number       1

loop_
  _symmetry_equiv_pos_as_xyz
  'x, y, z'

loop_
  _atom_site_label
  _atom_site_occupancy
  _atom_site_fract_x
  _atom_site_fract_y
  _atom_site_fract_z
  _atom_site_thermal_displace_type
  _atom_site_B_iso_or_equiv
  _atom_site_type_symbol
  Cu1      1.0000 0.00000  0.08706  0.75000  Biso   1.000  Cu
  Cu2      1.0000 0.50000  0.58706  0.75000  Biso   1.000  Cu
  Cu3      1.0000 0.00000  0.91294  0.25000  Biso   1.000  Cu
  Cu4      1.0000 0.50000  0.41294  0.25000  Biso   1.000  Cu
  Cu5      1.0000 0.14671  0.04903  0.82220  Biso   1.000  Cu
  Cu6      1.0000 0.85329  0.04903  0.67780  Biso   1.000  Cu
  Cu7      1.0000 0.64671  0.54903  0.82220  Biso   1.000  Cu
  Cu8      1.0000 0.35329  0.54903  0.67780  Biso   1.000  Cu
  Cu9      1.0000 0.85329  0.95097  0.17780  Biso   1.000  Cu
  Cu10     1.0000 0.14671  0.95097  0.32220  Biso   1.000  Cu
  Cu11     1.0000 0.35329  0.45097  0.17780  Biso   1.000  Cu
  Cu12     1.0000 0.64671  0.45097  0.32220  Biso   1.000  Cu
  N1       1.0000 0.03684  0.97508  0.83922  Biso   1.000  N
  N2       1.0000 0.96316  0.97508  0.66078  Biso   1.000  N
  N3       1.0000 0.53684  0.47508  0.83922  Biso   1.000  N
  N4       1.0000 0.46316  0.47508  0.66078  Biso   1.000  N
  N5       1.0000 0.96316  0.02492  0.16078  Biso   1.000  N
  N6       1.0000 0.03684  0.02492  0.33922  Biso   1.000  N
  N7       1.0000 0.46316  0.52492  0.16078  Biso   1.000  N
  N8       1.0000 0.53684  0.52492  0.33922  Biso   1.000  N
  N9       1.0000 0.08965  0.96918  0.86008  Biso   1.000  N
  N10      1.0000 0.91035  0.96918  0.63992  Biso   1.000  N
  N11      1.0000 0.58965  0.46918  0.86008  Biso   1.000  N
  N12      1.0000 0.41035  0.46918  0.63992  Biso   1.000  N
  N13      1.0000 0.91035  0.03082  0.13992  Biso   1.000  N
  N14      1.0000 0.08965  0.03082  0.36008  Biso   1.000  N
  N15      1.0000 0.41035  0.53082  0.13992  Biso   1.000  N
  N16      1.0000 0.58965  0.53082  0.36008  Biso   1.000  N
  N17      1.0000 0.10772  0.16300  0.74690  Biso   1.000  N
  N18      1.0000 0.89228  0.16300  0.75310  Biso   1.000  N
  N19      1.0000 0.60772  0.66300  0.74690  Biso   1.000  N
  N20      1.0000 0.39228  0.66300  0.75310  Biso   1.000  N
  N21      1.0000 0.89228  0.83700  0.25310  Biso   1.000  N
  N22      1.0000 0.10772  0.83700  0.24690  Biso   1.000  N
  N23      1.0000 0.39228  0.33700  0.25310  Biso   1.000  N
  N24      1.0000 0.60772  0.33700  0.24690  Biso   1.000  N
  O1       1.0000 0.18836  0.93767  0.90213  Biso   1.000  O
  O2       1.0000 0.81164  0.93767  0.59787  Biso   1.000  O
  O3       1.0000 0.68836  0.43767  0.90213  Biso   1.000  O
  O4       1.0000 0.31164  0.43767  0.59787  Biso   1.000  O
  O5       1.0000 0.81164  0.06233  0.09787  Biso   1.000  O
  O6       1.0000 0.18836  0.06233  0.40213  Biso   1.000  O
  O7       1.0000 0.31164  0.56233  0.09787  Biso   1.000  O
  O8       1.0000 0.68836  0.56233  0.40213  Biso   1.000  O
  O9       1.0000 0.18071  0.78140  0.98320  Biso   1.000  O
  O10      1.0000 0.81929  0.78140  0.51680  Biso   1.000  O
  O11      1.0000 0.68071  0.28140  0.98320  Biso   1.000  O
  O12      1.0000 0.31929  0.28140  0.51680  Biso   1.000  O
  O13      1.0000 0.81929  0.21860  0.01680  Biso   1.000  O
  O14      1.0000 0.18071  0.21860  0.48320  Biso   1.000  O
  O15      1.0000 0.31929  0.71860  0.01680  Biso   1.000  O
  O16      1.0000 0.68071  0.71860  0.48320  Biso   1.000  O
  O17      1.0000 0.20708  0.12930  0.78889  Biso   1.000  O
  O18      1.0000 0.79292  0.12930  0.71111  Biso   1.000  O
  O19      1.0000 0.70708  0.62930  0.78889  Biso   1.000  O
  O20      1.0000 0.29292  0.62930  0.71111  Biso   1.000  O
  O21      1.0000 0.79292  0.87070  0.21111  Biso   1.000  O
  O22      1.0000 0.20708  0.87070  0.28889  Biso   1.000  O
  O23      1.0000 0.29292  0.37070  0.21111  Biso   1.000  O
  O24      1.0000 0.70708  0.37070  0.28889  Biso   1.000  O
  O25      1.0000 0.22761  0.27230  0.70170  Biso   1.000  O
  O26      1.0000 0.77239  0.27230  0.79830  Biso   1.000  O
  O27      1.0000 0.72761  0.77230  0.70170  Biso   1.000  O
  O28      1.0000 0.27239  0.77230  0.79830  Biso   1.000  O
  O29      1.0000 0.77239  0.72770  0.29830  Biso   1.000  O
  O30      1.0000 0.22761  0.72770  0.20170  Biso   1.000  O
  O31      1.0000 0.27239  0.22770  0.29830  Biso   1.000  O
  O32      1.0000 0.72761  0.22770  0.20170  Biso   1.000  O
  O33      1.0000 0.28257  0.93490  0.11420  Biso   1.000  O
  O34      1.0000 0.71743  0.93490  0.38580  Biso   1.000  O
  O35      1.0000 0.78257  0.43490  0.11420  Biso   1.000  O
  O36      1.0000 0.21743  0.43490  0.38580  Biso   1.000  O
  O37      1.0000 0.71743  0.06510  0.88580  Biso   1.000  O
  O38      1.0000 0.28257  0.06510  0.61420  Biso   1.000  O
  O39      1.0000 0.21743  0.56510  0.88580  Biso   1.000  O
  O40      1.0000 0.78257  0.56510  0.61420  Biso   1.000  O
  H1       1.0000 0.29270  0.88710  0.16570  Biso   1.000  H
  H2       1.0000 0.70730  0.88710  0.33430  Biso   1.000  H
  H3       1.0000 0.79270  0.38710  0.16570  Biso   1.000  H
  H4       1.0000 0.20730  0.38710  0.33430  Biso   1.000  H
  H5       1.0000 0.70730  0.11290  0.83430  Biso   1.000  H
  H6       1.0000 0.29270  0.11290  0.66570  Biso   1.000  H
  H7       1.0000 0.20730  0.61290  0.83430  Biso   1.000  H
  H8       1.0000 0.79270  0.61290  0.66570  Biso   1.000  H
  O41      1.0000 0.30128  0.04210  0.88520  Biso   1.000  O
  O42      1.0000 0.69872  0.04210  0.61480  Biso   1.000  O
  O43      1.0000 0.80128  0.54210  0.88520  Biso   1.000  O
  O44      1.0000 0.19872  0.54210  0.61480  Biso   1.000  O
  O45      1.0000 0.69872  0.95790  0.11480  Biso   1.000  O
  O46      1.0000 0.30128  0.95790  0.38520  Biso   1.000  O
  O47      1.0000 0.19872  0.45790  0.11480  Biso   1.000  O
  O48      1.0000 0.80128  0.45790  0.38520  Biso   1.000  O
  H9       1.0000 0.27570  0.07400  0.85530  Biso   1.000  H
  H10      1.0000 0.72430  0.07400  0.64470  Biso   1.000  H
  H11      1.0000 0.77570  0.57400  0.85530  Biso   1.000  H
  H12      1.0000 0.22430  0.57400  0.64470  Biso   1.000  H
  H13      1.0000 0.72430  0.92600  0.14470  Biso   1.000  H
  H14      1.0000 0.27570  0.92600  0.35530  Biso   1.000  H
  H15      1.0000 0.22430  0.42600  0.14470  Biso   1.000  H
  H16      1.0000 0.77570  0.42600  0.35530  Biso   1.000  H
  C1       1.0000 0.10308  0.87800  0.91340  Biso   1.000  C
  C2       1.0000 0.89692  0.87800  0.58660  Biso   1.000  C
  C3       1.0000 0.60308  0.37800  0.91340  Biso   1.000  C
  C4       1.0000 0.39692  0.37800  0.58660  Biso   1.000  C
  C5       1.0000 0.89692  0.12200  0.08660  Biso   1.000  C
  C6       1.0000 0.10308  0.12200  0.41340  Biso   1.000  C
  C7       1.0000 0.39692  0.62200  0.08660  Biso   1.000  C
  C8       1.0000 0.60308  0.62200  0.41340  Biso   1.000  C
  C9       1.0000 0.05792  0.82190  0.92860  Biso   1.000  C
  C10      1.0000 0.94208  0.82190  0.57140  Biso   1.000  C
  C11      1.0000 0.55792  0.32190  0.92860  Biso   1.000  C
  C12      1.0000 0.44208  0.32190  0.57140  Biso   1.000  C
  C13      1.0000 0.94208  0.17810  0.07140  Biso   1.000  C
  C14      1.0000 0.05792  0.17810  0.42860  Biso   1.000  C
  C15      1.0000 0.44208  0.67810  0.07140  Biso   1.000  C
  C16      1.0000 0.55792  0.67810  0.42860  Biso   1.000  C
  H17      1.0000 0.05560  0.75670  0.96360  Biso   1.000  H
  H18      1.0000 0.94440  0.75670  0.53640  Biso   1.000  H
  H19      1.0000 0.55560  0.25670  0.96360  Biso   1.000  H
  H20      1.0000 0.44440  0.25670  0.53640  Biso   1.000  H
  H21      1.0000 0.94440  0.24330  0.03640  Biso   1.000  H
  H22      1.0000 0.05560  0.24330  0.46360  Biso   1.000  H
  H23      1.0000 0.44440  0.74330  0.03640  Biso   1.000  H
  H24      1.0000 0.55560  0.74330  0.46360  Biso   1.000  H
  C17      1.0000 0.01692  0.88490  0.87982  Biso   1.000  C
  C18      1.0000 0.98308  0.88490  0.62018  Biso   1.000  C
  C19      1.0000 0.51692  0.38490  0.87982  Biso   1.000  C
  C20      1.0000 0.48308  0.38490  0.62018  Biso   1.000  C
  C21      1.0000 0.98308  0.11510  0.12018  Biso   1.000  C
  C22      1.0000 0.01692  0.11510  0.37982  Biso   1.000  C
  C23      1.0000 0.48308  0.61510  0.12018  Biso   1.000  C
  C24      1.0000 0.51692  0.61510  0.37982  Biso   1.000  C
  C25      1.0000 0.95947  0.86400  0.86676  Biso   1.000  C
  C26      1.0000 0.04053  0.86400  0.63324  Biso   1.000  C
  C27      1.0000 0.45947  0.36400  0.86676  Biso   1.000  C
  C28      1.0000 0.54053  0.36400  0.63324  Biso   1.000  C
  C29      1.0000 0.04053  0.13600  0.13324  Biso   1.000  C
  C30      1.0000 0.95947  0.13600  0.36676  Biso   1.000  C
  C31      1.0000 0.54053  0.63600  0.13324  Biso   1.000  C
  C32      1.0000 0.45947  0.63600  0.36676  Biso   1.000  C
  C33      1.0000 0.93935  0.76670  0.82140  Biso   1.000  C
  C34      1.0000 0.06065  0.76670  0.67860  Biso   1.000  C
  C35      1.0000 0.43935  0.26670  0.82140  Biso   1.000  C
  C36      1.0000 0.56065  0.26670  0.67860  Biso   1.000  C
  C37      1.0000 0.06065  0.23330  0.17860  Biso   1.000  C
  C38      1.0000 0.93935  0.23330  0.32140  Biso   1.000  C
  C39      1.0000 0.56065  0.73330  0.17860  Biso   1.000  C
  C40      1.0000 0.43935  0.73330  0.32140  Biso   1.000  C
  H25      1.0000 0.96200  0.71320  0.80290  Biso   1.000  H
  H26      1.0000 0.03800  0.71320  0.69710  Biso   1.000  H
  H27      1.0000 0.46200  0.21320  0.80290  Biso   1.000  H
  H28      1.0000 0.53800  0.21320  0.69710  Biso   1.000  H
  H29      1.0000 0.03800  0.28680  0.19710  Biso   1.000  H
  H30      1.0000 0.96200  0.28680  0.30290  Biso   1.000  H
  H31      1.0000 0.53800  0.78680  0.19710  Biso   1.000  H
  H32      1.0000 0.46200  0.78680  0.30290  Biso   1.000  H
  C41      1.0000 0.88528  0.74920  0.80350  Biso   1.000  C
  C42      1.0000 0.11472  0.74920  0.69650  Biso   1.000  C
  C43      1.0000 0.38528  0.24920  0.80350  Biso   1.000  C
  C44      1.0000 0.61472  0.24920  0.69650  Biso   1.000  C
  C45      1.0000 0.11472  0.25080  0.19650  Biso   1.000  C
  C46      1.0000 0.88528  0.25080  0.30350  Biso   1.000  C
  C47      1.0000 0.61472  0.75080  0.19650  Biso   1.000  C
  C48      1.0000 0.38528  0.75080  0.30350  Biso   1.000  C
  H33      1.0000 0.87190  0.68460  0.77180  Biso   1.000  H
  H34      1.0000 0.12810  0.68460  0.72820  Biso   1.000  H
  H35      1.0000 0.37190  0.18460  0.77180  Biso   1.000  H
  H36      1.0000 0.62810  0.18460  0.72820  Biso   1.000  H
  H37      1.0000 0.12810  0.31540  0.22820  Biso   1.000  H
  H38      1.0000 0.87190  0.31540  0.27180  Biso   1.000  H
  H39      1.0000 0.62810  0.81540  0.22820  Biso   1.000  H
  H40      1.0000 0.37190  0.81540  0.27180  Biso   1.000  H
  C49      1.0000 0.85168  0.82630  0.83220  Biso   1.000  C
  C50      1.0000 0.14832  0.82630  0.66780  Biso   1.000  C
  C51      1.0000 0.35168  0.32630  0.83220  Biso   1.000  C
  C52      1.0000 0.64832  0.32630  0.66780  Biso   1.000  C
  C53      1.0000 0.14832  0.17370  0.16780  Biso   1.000  C
  C54      1.0000 0.85168  0.17370  0.33220  Biso   1.000  C
  C55      1.0000 0.64832  0.67370  0.16780  Biso   1.000  C
  C56      1.0000 0.35168  0.67370  0.33220  Biso   1.000  C
  H41      1.0000 0.81560  0.81450  0.82000  Biso   1.000  H
  H42      1.0000 0.18440  0.81450  0.68000  Biso   1.000  H
  H43      1.0000 0.31560  0.31450  0.82000  Biso   1.000  H
  H44      1.0000 0.68440  0.31450  0.68000  Biso   1.000  H
  H45      1.0000 0.18440  0.18550  0.18000  Biso   1.000  H
  H46      1.0000 0.81560  0.18550  0.32000  Biso   1.000  H
  H47      1.0000 0.68440  0.68550  0.18000  Biso   1.000  H
  H48      1.0000 0.31560  0.68550  0.32000  Biso   1.000  H
  C57      1.0000 0.87177  0.92170  0.87930  Biso   1.000  C
  C58      1.0000 0.12823  0.92170  0.62070  Biso   1.000  C
  C59      1.0000 0.37177  0.42170  0.87930  Biso   1.000  C
  C60      1.0000 0.62823  0.42170  0.62070  Biso   1.000  C
  C61      1.0000 0.12823  0.07830  0.12070  Biso   1.000  C
  C62      1.0000 0.87177  0.07830  0.37930  Biso   1.000  C
  C63      1.0000 0.62823  0.57830  0.12070  Biso   1.000  C
  C64      1.0000 0.37177  0.57830  0.37930  Biso   1.000  C
  H49      1.0000 0.84900  0.97360  0.89990  Biso   1.000  H
  H50      1.0000 0.15100  0.97360  0.60010  Biso   1.000  H
  H51      1.0000 0.34900  0.47360  0.89990  Biso   1.000  H
  H52      1.0000 0.65100  0.47360  0.60010  Biso   1.000  H
  H53      1.0000 0.15100  0.02640  0.10010  Biso   1.000  H
  H54      1.0000 0.84900  0.02640  0.39990  Biso   1.000  H
  H55      1.0000 0.65100  0.52640  0.10010  Biso   1.000  H
  H56      1.0000 0.34900  0.52640  0.39990  Biso   1.000  H
  C65      1.0000 0.92526  0.94110  0.89640  Biso   1.000  C
  C66      1.0000 0.07474  0.94110  0.60360  Biso   1.000  C
  C67      1.0000 0.42526  0.44110  0.89640  Biso   1.000  C
  C68      1.0000 0.57474  0.44110  0.60360  Biso   1.000  C
  C69      1.0000 0.07474  0.05890  0.10360  Biso   1.000  C
  C70      1.0000 0.92526  0.05890  0.39640  Biso   1.000  C
  C71      1.0000 0.57474  0.55890  0.10360  Biso   1.000  C
  C72      1.0000 0.42526  0.55890  0.39640  Biso   1.000  C
  H57      1.0000 0.93830  0.00600  0.92780  Biso   1.000  H
  H58      1.0000 0.06170  0.00600  0.57220  Biso   1.000  H
  H59      1.0000 0.43830  0.50600  0.92780  Biso   1.000  H
  H60      1.0000 0.56170  0.50600  0.57220  Biso   1.000  H
  H61      1.0000 0.06170  0.99400  0.07220  Biso   1.000  H
  H62      1.0000 0.93830  0.99400  0.42780  Biso   1.000  H
  H63      1.0000 0.56170  0.49400  0.07220  Biso   1.000  H
  H64      1.0000 0.43830  0.49400  0.42780  Biso   1.000  H
  C73      1.0000 0.16107  0.86130  0.93620  Biso   1.000  C
  C74      1.0000 0.83893  0.86130  0.56380  Biso   1.000  C
  C75      1.0000 0.66107  0.36130  0.93620  Biso   1.000  C
  C76      1.0000 0.33893  0.36130  0.56380  Biso   1.000  C
  C77      1.0000 0.83893  0.13870  0.06380  Biso   1.000  C
  C78      1.0000 0.16107  0.13870  0.43620  Biso   1.000  C
  C79      1.0000 0.33893  0.63870  0.06380  Biso   1.000  C
  C80      1.0000 0.66107  0.63870  0.43620  Biso   1.000  C
  C81      1.0000 0.13778  0.24030  0.71440  Biso   1.000  C
  C82      1.0000 0.86222  0.24030  0.78560  Biso   1.000  C
  C83      1.0000 0.63778  0.74030  0.71440  Biso   1.000  C
  C84      1.0000 0.36222  0.74030  0.78560  Biso   1.000  C
  C85      1.0000 0.86222  0.75970  0.28560  Biso   1.000  C
  C86      1.0000 0.13778  0.75970  0.21440  Biso   1.000  C
  C87      1.0000 0.36222  0.25970  0.28560  Biso   1.000  C
  C88      1.0000 0.63778  0.25970  0.21440  Biso   1.000  C
  C89      1.0000 0.10623  0.32130  0.66500  Biso   1.000  C
  C90      1.0000 0.89377  0.32130  0.83500  Biso   1.000  C
  C91      1.0000 0.60623  0.82130  0.66500  Biso   1.000  C
  C92      1.0000 0.39377  0.82130  0.83500  Biso   1.000  C
  C93      1.0000 0.89377  0.67870  0.33500  Biso   1.000  C
  C94      1.0000 0.10623  0.67870  0.16500  Biso   1.000  C
  C95      1.0000 0.39377  0.17870  0.33500  Biso   1.000  C
  C96      1.0000 0.60623  0.17870  0.16500  Biso   1.000  C
  H65      1.0000 0.11690  0.38510  0.63550  Biso   1.000  H
  H66      1.0000 0.88310  0.38510  0.86450  Biso   1.000  H
  H67      1.0000 0.61690  0.88510  0.63550  Biso   1.000  H
  H68      1.0000 0.38310  0.88510  0.86450  Biso   1.000  H
  H69      1.0000 0.88310  0.61490  0.36450  Biso   1.000  H
  H70      1.0000 0.11690  0.61490  0.13550  Biso   1.000  H
  H71      1.0000 0.38310  0.11490  0.36450  Biso   1.000  H
  H72      1.0000 0.61690  0.11490  0.13550  Biso   1.000  H
  C97      1.0000 0.05492  0.28660  0.66912  Biso   1.000  C
  C98      1.0000 0.94508  0.28660  0.83088  Biso   1.000  C
  C99      1.0000 0.55492  0.78660  0.66912  Biso   1.000  C
  C100     1.0000 0.44508  0.78660  0.83088  Biso   1.000  C
  C101     1.0000 0.94508  0.71340  0.33088  Biso   1.000  C
  C102     1.0000 0.05492  0.71340  0.16912  Biso   1.000  C
  C103     1.0000 0.44508  0.21340  0.33088  Biso   1.000  C
  C104     1.0000 0.55492  0.21340  0.16912  Biso   1.000  C
  C105     1.0000 0.00558  0.34160  0.62870  Biso   1.000  C
  C106     1.0000 0.99442  0.34160  0.87130  Biso   1.000  C
  C107     1.0000 0.50558  0.84160  0.62870  Biso   1.000  C
  C108     1.0000 0.49442  0.84160  0.87130  Biso   1.000  C
  C109     1.0000 0.99442  0.65840  0.37130  Biso   1.000  C
  C110     1.0000 0.00558  0.65840  0.12870  Biso   1.000  C
  C111     1.0000 0.49442  0.15840  0.37130  Biso   1.000  C
  C112     1.0000 0.50558  0.15840  0.12870  Biso   1.000  C
  C113     1.0000 0.96203  0.28060  0.58650  Biso   1.000  C
  C114     1.0000 0.03797  0.28060  0.91350  Biso   1.000  C
  C115     1.0000 0.46203  0.78060  0.58650  Biso   1.000  C
  C116     1.0000 0.53797  0.78060  0.91350  Biso   1.000  C
  C117     1.0000 0.03797  0.71940  0.41350  Biso   1.000  C
  C118     1.0000 0.96203  0.71940  0.08650  Biso   1.000  C
  C119     1.0000 0.53797  0.21940  0.41350  Biso   1.000  C
  C120     1.0000 0.46203  0.21940  0.08650  Biso   1.000  C
  H73      1.0000 0.96450  0.20340  0.57980  Biso   1.000  H
  H74      1.0000 0.03550  0.20340  0.92020  Biso   1.000  H
  H75      1.0000 0.46450  0.70340  0.57980  Biso   1.000  H
  H76      1.0000 0.53550  0.70340  0.92020  Biso   1.000  H
  H77      1.0000 0.03550  0.79660  0.42020  Biso   1.000  H
  H78      1.0000 0.96450  0.79660  0.07980  Biso   1.000  H
  H79      1.0000 0.53550  0.29660  0.42020  Biso   1.000  H
  H80      1.0000 0.46450  0.29660  0.07980  Biso   1.000  H
  C121     1.0000 0.91493  0.33500  0.55450  Biso   1.000  C
  C122     1.0000 0.08507  0.33500  0.94550  Biso   1.000  C
  C123     1.0000 0.41493  0.83500  0.55450  Biso   1.000  C
  C124     1.0000 0.58507  0.83500  0.94550  Biso   1.000  C
  C125     1.0000 0.08507  0.66500  0.44550  Biso   1.000  C
  C126     1.0000 0.91493  0.66500  0.05450  Biso   1.000  C
  C127     1.0000 0.58507  0.16500  0.44550  Biso   1.000  C
  C128     1.0000 0.41493  0.16500  0.05450  Biso   1.000  C
  H81      1.0000 0.88600  0.29410  0.52560  Biso   1.000  H
  H82      1.0000 0.11400  0.29410  0.97440  Biso   1.000  H
  H83      1.0000 0.38600  0.79410  0.52560  Biso   1.000  H
  H84      1.0000 0.61400  0.79410  0.97440  Biso   1.000  H
  H85      1.0000 0.11400  0.70590  0.47440  Biso   1.000  H
  H86      1.0000 0.88600  0.70590  0.02560  Biso   1.000  H
  H87      1.0000 0.61400  0.20590  0.47440  Biso   1.000  H
  H88      1.0000 0.38600  0.20590  0.02560  Biso   1.000  H
  C129     1.0000 0.91074  0.44780  0.56490  Biso   1.000  C
  C130     1.0000 0.08926  0.44780  0.93510  Biso   1.000  C
  C131     1.0000 0.41074  0.94780  0.56490  Biso   1.000  C
  C132     1.0000 0.58926  0.94780  0.93510  Biso   1.000  C
  C133     1.0000 0.08926  0.55220  0.43510  Biso   1.000  C
  C134     1.0000 0.91074  0.55220  0.06490  Biso   1.000  C
  C135     1.0000 0.58926  0.05220  0.43510  Biso   1.000  C
  C136     1.0000 0.41074  0.05220  0.06490  Biso   1.000  C
  H89      1.0000 0.87880  0.48340  0.54530  Biso   1.000  H
  H90      1.0000 0.12120  0.48340  0.95470  Biso   1.000  H
  H91      1.0000 0.37880  0.98340  0.54530  Biso   1.000  H
  H92      1.0000 0.62120  0.98340  0.95470  Biso   1.000  H
  H93      1.0000 0.12120  0.51660  0.45470  Biso   1.000  H
  H94      1.0000 0.87880  0.51660  0.04530  Biso   1.000  H
  H95      1.0000 0.62120  0.01660  0.45470  Biso   1.000  H
  H96      1.0000 0.37880  0.01660  0.04530  Biso   1.000  H
  C137     1.0000 0.95420  0.50920  0.60490  Biso   1.000  C
  C138     1.0000 0.04580  0.50920  0.89510  Biso   1.000  C
  C139     1.0000 0.45420  0.00920  0.60490  Biso   1.000  C
  C140     1.0000 0.54580  0.00920  0.89510  Biso   1.000  C
  C141     1.0000 0.04580  0.49080  0.39510  Biso   1.000  C
  C142     1.0000 0.95420  0.49080  0.10490  Biso   1.000  C
  C143     1.0000 0.54580  0.99080  0.39510  Biso   1.000  C
  C144     1.0000 0.45420  0.99080  0.10490  Biso   1.000  C
  H97      1.0000 0.95150  0.58640  0.61110  Biso   1.000  H
  H98      1.0000 0.04850  0.58640  0.88890  Biso   1.000  H
  H99      1.0000 0.45150  0.08640  0.61110  Biso   1.000  H
  H100     1.0000 0.54850  0.08640  0.88890  Biso   1.000  H
  H101     1.0000 0.04850  0.41360  0.38890  Biso   1.000  H
  H102     1.0000 0.95150  0.41360  0.11110  Biso   1.000  H
  H103     1.0000 0.54850  0.91360  0.38890  Biso   1.000  H
  H104     1.0000 0.45150  0.91360  0.11110  Biso   1.000  H
  C145     1.0000 0.00110  0.45700  0.63530  Biso   1.000  C
  C146     1.0000 0.99890  0.45700  0.86470  Biso   1.000  C
  C147     1.0000 0.50110  0.95700  0.63530  Biso   1.000  C
  C148     1.0000 0.49890  0.95700  0.86470  Biso   1.000  C
  C149     1.0000 0.99890  0.54300  0.36470  Biso   1.000  C
  C150     1.0000 0.00110  0.54300  0.13530  Biso   1.000  C
  C151     1.0000 0.49890  0.04300  0.36470  Biso   1.000  C
  C152     1.0000 0.50110  0.04300  0.13530  Biso   1.000  C
  H105     1.0000 0.03030  0.49930  0.66060  Biso   1.000  H
  H106     1.0000 0.96970  0.49930  0.83940  Biso   1.000  H
  H107     1.0000 0.53030  0.99930  0.66060  Biso   1.000  H
  H108     1.0000 0.46970  0.99930  0.83940  Biso   1.000  H
  H109     1.0000 0.96970  0.50070  0.33940  Biso   1.000  H
  H110     1.0000 0.03030  0.50070  0.16060  Biso   1.000  H
  H111     1.0000 0.46970  0.00070  0.33940  Biso   1.000  H
  H112     1.0000 0.53030  0.00070  0.16060  Biso   1.000  H
  C153     1.0000 0.19516  0.21620  0.73470  Biso   1.000  C
  C154     1.0000 0.80484  0.21620  0.76530  Biso   1.000  C
  C155     1.0000 0.69516  0.71620  0.73470  Biso   1.000  C
  C156     1.0000 0.30484  0.71620  0.76530  Biso   1.000  C
  C157     1.0000 0.80484  0.78380  0.26530  Biso   1.000  C
  C158     1.0000 0.19516  0.78380  0.23470  Biso   1.000  C
  C159     1.0000 0.30484  0.28380  0.26530  Biso   1.000  C
  C160     1.0000 0.69516  0.28380  0.23470  Biso   1.000  C
  Na1      1.0000 0.27457  0.87113  0.94681  Biso   1.000  Na
  Na2      1.0000 0.72543  0.87113  0.55319  Biso   1.000  Na
  Na3      1.0000 0.77457  0.37113  0.94681  Biso   1.000  Na
  Na4      1.0000 0.22543  0.37113  0.55319  Biso   1.000  Na
  Na5      1.0000 0.72543  0.12887  0.05319  Biso   1.000  Na
  Na6      1.0000 0.27457  0.12887  0.44681  Biso   1.000  Na
  Na7      1.0000 0.22543  0.62887  0.05319  Biso   1.000  Na
  Na8      1.0000 0.77457  0.62887  0.44681  Biso   1.000  Na
  N25      1.0000 0.05649  0.18931  0.71911  Biso   1.000  N
  N26      1.0000 0.94351  0.18931  0.78089  Biso   1.000  N
  N27      1.0000 0.55649  0.68931  0.71911  Biso   1.000  N
  N28      1.0000 0.44351  0.68931  0.78089  Biso   1.000  N
  N29      1.0000 0.94351  0.81069  0.28089  Biso   1.000  N
  N30      1.0000 0.05649  0.81069  0.21911  Biso   1.000  N
  N31      1.0000 0.44351  0.31069  0.28089  Biso   1.000  N
  N32      1.0000 0.55649  0.31069  0.21911  Biso   1.000  N
  C161     1.0000 0.27110  0.04500  0.12600  Biso   1.000  C
  C162     1.0000 0.72890  0.04500  0.37400  Biso   1.000  C
  C163     1.0000 0.77110  0.54500  0.12600  Biso   1.000  C
  C164     1.0000 0.22890  0.54500  0.37400  Biso   1.000  C
  C165     1.0000 0.72890  0.95500  0.87400  Biso   1.000  C
  C166     1.0000 0.27110  0.95500  0.62600  Biso   1.000  C
  C167     1.0000 0.22890  0.45500  0.87400  Biso   1.000  C
  C168     1.0000 0.77110  0.45500  0.62600  Biso   1.000  C
  H113     1.0000 0.27540  0.06230  0.19360  Biso   1.000  H
  H114     1.0000 0.72460  0.06230  0.30640  Biso   1.000  H
  H115     1.0000 0.77540  0.56230  0.19360  Biso   1.000  H
  H116     1.0000 0.22460  0.56230  0.30640  Biso   1.000  H
  H117     1.0000 0.72460  0.93770  0.80640  Biso   1.000  H
  H118     1.0000 0.27540  0.93770  0.69360  Biso   1.000  H
  H119     1.0000 0.22460  0.43770  0.80640  Biso   1.000  H
  H120     1.0000 0.77540  0.43770  0.69360  Biso   1.000  H
  H121     1.0000 0.23540  0.06000  0.09780  Biso   1.000  H
  H122     1.0000 0.76460  0.06000  0.40220  Biso   1.000  H
  H123     1.0000 0.73540  0.56000  0.09780  Biso   1.000  H
  H124     1.0000 0.26460  0.56000  0.40220  Biso   1.000  H
  H125     1.0000 0.76460  0.94000  0.90220  Biso   1.000  H
  H126     1.0000 0.23540  0.94000  0.59780  Biso   1.000  H
  H127     1.0000 0.26460  0.44000  0.90220  Biso   1.000  H
  H128     1.0000 0.73540  0.44000  0.59780  Biso   1.000  H
  H129     1.0000 0.29430  0.09140  0.09630  Biso   1.000  H
  H130     1.0000 0.70570  0.09140  0.40370  Biso   1.000  H
  H131     1.0000 0.79430  0.59140  0.09630  Biso   1.000  H
  H132     1.0000 0.20570  0.59140  0.40370  Biso   1.000  H
  H133     1.0000 0.70570  0.90860  0.90370  Biso   1.000  H
  H134     1.0000 0.29430  0.90860  0.59630  Biso   1.000  H
  H135     1.0000 0.20570  0.40860  0.90370  Biso   1.000  H
  H136     1.0000 0.79430  0.40860  0.59630  Biso   1.000  H
