data_image0
_cell_length_a       13.868
_cell_length_b       5.817
_cell_length_c       20.578
_cell_angle_alpha    90
_cell_angle_beta     91.174
_cell_angle_gamma    90

_symmetry_space_group_name_H-M    "P 1"
_symmetry_int_tables_number       1

loop_
  _symmetry_equiv_pos_as_xyz
  'x, y, z'

loop_
  _atom_site_label
  _atom_site_occupancy
  _atom_site_fract_x
  _atom_site_fract_y
  _atom_site_fract_z
  _atom_site_thermal_displace_type
  _atom_site_B_iso_or_equiv
  _atom_site_type_symbol
  Cu1      1.0000 0.50000  0.48238  0.75000  Biso   1.000  Cu
  Cu2      1.0000 0.50000  0.51762  0.25000  Biso   1.000  Cu
  C1       1.0000 0.64340  0.29590  0.66846  Biso   1.000  C
  C2       1.0000 0.35660  0.29590  0.83154  Biso   1.000  C
  C3       1.0000 0.35660  0.70410  0.33154  Biso   1.000  C
  C4       1.0000 0.64340  0.70410  0.16846  Biso   1.000  C
  C5       1.0000 0.72850  0.33000  0.62525  Biso   1.000  C
  C6       1.0000 0.27150  0.33000  0.87475  Biso   1.000  C
  C7       1.0000 0.27150  0.67000  0.37475  Biso   1.000  C
  C8       1.0000 0.72850  0.67000  0.12525  Biso   1.000  C
  C9       1.0000 0.78310  0.52990  0.62815  Biso   1.000  C
  C10      1.0000 0.21690  0.52990  0.87185  Biso   1.000  C
  C11      1.0000 0.21690  0.47010  0.37185  Biso   1.000  C
  C12      1.0000 0.78310  0.47010  0.12815  Biso   1.000  C
  H1       1.0000 0.76570  0.64690  0.65640  Biso   1.000  H
  H2       1.0000 0.23430  0.64690  0.84360  Biso   1.000  H
  H3       1.0000 0.23430  0.35310  0.34360  Biso   1.000  H
  H4       1.0000 0.76570  0.35310  0.15640  Biso   1.000  H
  C13      1.0000 0.75570  0.15760  0.58288  Biso   1.000  C
  C14      1.0000 0.24430  0.15760  0.91712  Biso   1.000  C
  C15      1.0000 0.24430  0.84240  0.41712  Biso   1.000  C
  C16      1.0000 0.75570  0.84240  0.08288  Biso   1.000  C
  H5       1.0000 0.72050  0.02180  0.58050  Biso   1.000  H
  H6       1.0000 0.27950  0.02180  0.91950  Biso   1.000  H
  H7       1.0000 0.27950  0.97820  0.41950  Biso   1.000  H
  H8       1.0000 0.72050  0.97820  0.08050  Biso   1.000  H
  C17      1.0000 0.83520  0.18720  0.54421  Biso   1.000  C
  C18      1.0000 0.16480  0.18720  0.95579  Biso   1.000  C
  C19      1.0000 0.16480  0.81280  0.45579  Biso   1.000  C
  C20      1.0000 0.83520  0.81280  0.04421  Biso   1.000  C
  H9       1.0000 0.85220  0.07060  0.51570  Biso   1.000  H
  H10      1.0000 0.14780  0.07060  0.98430  Biso   1.000  H
  H11      1.0000 0.14780  0.92940  0.48430  Biso   1.000  H
  H12      1.0000 0.85220  0.92940  0.01570  Biso   1.000  H
  C21      1.0000 0.86280  0.55820  0.58990  Biso   1.000  C
  C22      1.0000 0.13720  0.55820  0.91010  Biso   1.000  C
  C23      1.0000 0.13720  0.44180  0.41010  Biso   1.000  C
  C24      1.0000 0.86280  0.44180  0.08990  Biso   1.000  C
  H13      1.0000 0.89870  0.69300  0.59280  Biso   1.000  H
  H14      1.0000 0.10130  0.69300  0.90720  Biso   1.000  H
  H15      1.0000 0.10130  0.30700  0.40720  Biso   1.000  H
  H16      1.0000 0.89870  0.30700  0.09280  Biso   1.000  H
  C25      1.0000 0.89000  0.38550  0.54685  Biso   1.000  C
  C26      1.0000 0.11000  0.38550  0.95315  Biso   1.000  C
  C27      1.0000 0.11000  0.61450  0.45315  Biso   1.000  C
  C28      1.0000 0.89000  0.61450  0.04685  Biso   1.000  C
  C29      1.0000 0.97380  0.40820  0.50442  Biso   1.000  C
  C30      1.0000 0.02620  0.40820  0.99558  Biso   1.000  C
  C31      1.0000 0.02620  0.59180  0.49558  Biso   1.000  C
  C32      1.0000 0.97380  0.59180  0.00442  Biso   1.000  C
  H17      1.0000 0.99130  0.27760  0.48140  Biso   1.000  H
  H18      1.0000 0.00870  0.27760  0.01860  Biso   1.000  H
  H19      1.0000 0.00870  0.72240  0.51860  Biso   1.000  H
  H20      1.0000 0.99130  0.72240  0.98140  Biso   1.000  H
  C33      1.0000 0.44850  0.61600  0.61564  Biso   1.000  C
  C34      1.0000 0.55150  0.61600  0.88436  Biso   1.000  C
  C35      1.0000 0.55150  0.38400  0.38436  Biso   1.000  C
  C36      1.0000 0.44850  0.38400  0.11564  Biso   1.000  C
  H21      1.0000 0.49060  0.73700  0.62460  Biso   1.000  H
  H22      1.0000 0.50940  0.73700  0.87540  Biso   1.000  H
  H23      1.0000 0.50940  0.26300  0.37540  Biso   1.000  H
  H24      1.0000 0.49060  0.26300  0.12460  Biso   1.000  H
  C37      1.0000 0.40580  0.60140  0.55490  Biso   1.000  C
  C38      1.0000 0.59420  0.60140  0.94510  Biso   1.000  C
  C39      1.0000 0.59420  0.39860  0.44510  Biso   1.000  C
  C40      1.0000 0.40580  0.39860  0.05490  Biso   1.000  C
  H25      1.0000 0.42000  0.70960  0.52320  Biso   1.000  H
  H26      1.0000 0.58000  0.70960  0.97680  Biso   1.000  H
  H27      1.0000 0.58000  0.29040  0.47680  Biso   1.000  H
  H28      1.0000 0.42000  0.29040  0.02320  Biso   1.000  H
  C41      1.0000 0.34290  0.42880  0.54120  Biso   1.000  C
  C42      1.0000 0.65710  0.42880  0.95880  Biso   1.000  C
  C43      1.0000 0.65710  0.57120  0.45880  Biso   1.000  C
  C44      1.0000 0.34290  0.57120  0.04120  Biso   1.000  C
  H29      1.0000 0.31230  0.41920  0.50070  Biso   1.000  H
  H30      1.0000 0.68770  0.41920  0.99930  Biso   1.000  H
  H31      1.0000 0.68770  0.58080  0.49930  Biso   1.000  H
  H32      1.0000 0.31230  0.58080  0.00070  Biso   1.000  H
  C45      1.0000 0.32540  0.26950  0.58820  Biso   1.000  C
  C46      1.0000 0.67460  0.26950  0.91180  Biso   1.000  C
  C47      1.0000 0.67460  0.73050  0.41180  Biso   1.000  C
  C48      1.0000 0.32540  0.73050  0.08820  Biso   1.000  C
  H33      1.0000 0.28390  0.14690  0.57990  Biso   1.000  H
  H34      1.0000 0.71610  0.14690  0.92010  Biso   1.000  H
  H35      1.0000 0.71610  0.85310  0.42010  Biso   1.000  H
  H36      1.0000 0.28390  0.85310  0.07990  Biso   1.000  H
  C49      1.0000 0.37030  0.29350  0.64825  Biso   1.000  C
  C50      1.0000 0.62970  0.29350  0.85175  Biso   1.000  C
  C51      1.0000 0.62970  0.70650  0.35175  Biso   1.000  C
  C52      1.0000 0.37030  0.70650  0.14825  Biso   1.000  C
  H37      1.0000 0.35710  0.18660  0.68050  Biso   1.000  H
  H38      1.0000 0.64290  0.18660  0.81950  Biso   1.000  H
  H39      1.0000 0.64290  0.81340  0.31950  Biso   1.000  H
  H40      1.0000 0.35710  0.81340  0.18050  Biso   1.000  H
  C53      1.0000 0.85980  0.21110  0.35900  Biso   1.000  C
  C54      1.0000 0.14020  0.21110  0.14100  Biso   1.000  C
  C55      1.0000 0.14020  0.78890  0.64100  Biso   1.000  C
  C56      1.0000 0.85980  0.78890  0.85900  Biso   1.000  C
  H41      1.0000 0.85390  0.33860  0.38590  Biso   1.000  H
  H42      1.0000 0.14610  0.33860  0.11410  Biso   1.000  H
  H43      1.0000 0.14610  0.66140  0.61410  Biso   1.000  H
  H44      1.0000 0.85390  0.66140  0.88590  Biso   1.000  H
  C57      1.0000 0.80630  0.20570  0.30250  Biso   1.000  C
  C58      1.0000 0.19370  0.20570  0.19750  Biso   1.000  C
  C59      1.0000 0.19370  0.79430  0.69750  Biso   1.000  C
  C60      1.0000 0.80630  0.79430  0.80250  Biso   1.000  C
  H45      1.0000 0.76500  0.32620  0.29160  Biso   1.000  H
  H46      1.0000 0.23500  0.32620  0.20840  Biso   1.000  H
  H47      1.0000 0.23500  0.67380  0.70840  Biso   1.000  H
  H48      1.0000 0.76500  0.67380  0.79160  Biso   1.000  H
  C61      1.0000 0.81460  0.02280  0.26290  Biso   1.000  C
  C62      1.0000 0.18540  0.02280  0.23710  Biso   1.000  C
  C63      1.0000 0.18540  0.97720  0.73710  Biso   1.000  C
  C64      1.0000 0.81460  0.97720  0.76290  Biso   1.000  C
  H49      1.0000 0.77990  0.01510  0.22380  Biso   1.000  H
  H50      1.0000 0.22010  0.01510  0.27620  Biso   1.000  H
  H51      1.0000 0.22010  0.98490  0.77620  Biso   1.000  H
  H52      1.0000 0.77990  0.98490  0.72380  Biso   1.000  H
  C65      1.0000 0.87440  0.85140  0.28130  Biso   1.000  C
  C66      1.0000 0.12560  0.85140  0.21870  Biso   1.000  C
  C67      1.0000 0.12560  0.14860  0.71870  Biso   1.000  C
  C68      1.0000 0.87440  0.14860  0.78130  Biso   1.000  C
  H53      1.0000 0.88140  0.72180  0.25540  Biso   1.000  H
  H54      1.0000 0.11860  0.72180  0.24460  Biso   1.000  H
  H55      1.0000 0.11860  0.27820  0.74460  Biso   1.000  H
  H56      1.0000 0.88140  0.27820  0.75540  Biso   1.000  H
  C69      1.0000 0.92490  0.87130  0.33920  Biso   1.000  C
  C70      1.0000 0.07510  0.87130  0.16080  Biso   1.000  C
  C71      1.0000 0.07510  0.12870  0.66080  Biso   1.000  C
  C72      1.0000 0.92490  0.12870  0.83920  Biso   1.000  C
  H57      1.0000 0.96580  0.75160  0.35160  Biso   1.000  H
  H58      1.0000 0.03420  0.75160  0.14840  Biso   1.000  H
  H59      1.0000 0.03420  0.24840  0.64840  Biso   1.000  H
  H60      1.0000 0.96580  0.24840  0.85160  Biso   1.000  H
  N1       1.0000 0.43173  0.46320  0.66197  Biso   1.000  N
  N2       1.0000 0.56827  0.46320  0.83803  Biso   1.000  N
  N3       1.0000 0.56827  0.53680  0.33803  Biso   1.000  N
  N4       1.0000 0.43173  0.53680  0.16197  Biso   1.000  N
  N5       1.0000 0.91890  0.04720  0.37750  Biso   1.000  N
  N6       1.0000 0.08110  0.04720  0.12250  Biso   1.000  N
  N7       1.0000 0.08110  0.95280  0.62250  Biso   1.000  N
  N8       1.0000 0.91890  0.95280  0.87750  Biso   1.000  N
  O1       1.0000 0.62341  0.46280  0.70607  Biso   1.000  O
  O2       1.0000 0.37659  0.46280  0.79393  Biso   1.000  O
  O3       1.0000 0.37659  0.53720  0.29393  Biso   1.000  O
  O4       1.0000 0.62341  0.53720  0.20607  Biso   1.000  O
  O5       1.0000 0.59910  0.11140  0.66520  Biso   1.000  O
  O6       1.0000 0.40090  0.11140  0.83480  Biso   1.000  O
  O7       1.0000 0.40090  0.88860  0.33480  Biso   1.000  O
  O8       1.0000 0.59910  0.88860  0.16520  Biso   1.000  O
  O9       1.0000 0.50000  0.86080  0.75000  Biso   1.000  O
  O10      1.0000 0.50000  0.13920  0.25000  Biso   1.000  O
  H61      1.0000 0.52700  0.93800  0.72800  Biso   1.000  H
  H62      1.0000 0.47300  0.93800  0.77200  Biso   1.000  H
  H63      1.0000 0.47300  0.06200  0.27200  Biso   1.000  H
  H64      1.0000 0.52700  0.06200  0.22800  Biso   1.000  H
