data_image0
_cell_length_a       5.14948
_cell_length_b       6.72065
_cell_length_c       10.3797
_cell_angle_alpha    86.5106
_cell_angle_beta     100.13
_cell_angle_gamma    108.122

_symmetry_space_group_name_H-M    "P 1"
_symmetry_int_tables_number       1

loop_
  _symmetry_equiv_pos_as_xyz
  'x, y, z'

loop_
  _atom_site_label
  _atom_site_occupancy
  _atom_site_fract_x
  _atom_site_fract_y
  _atom_site_fract_z
  _atom_site_thermal_displace_type
  _atom_site_B_iso_or_equiv
  _atom_site_type_symbol
  Cu1      1.0000 0.00000  0.00000  0.00000  Biso   1.000  Cu
  Cu2      1.0000 0.00000  0.50000  0.50000  Biso   1.000  Cu
  N1       1.0000 0.09284  0.84776  0.15436  Biso   1.000  N
  N2       1.0000 0.90716  0.15224  0.84564  Biso   1.000  N
  C1       1.0000 0.96238  0.69045  0.23122  Biso   1.000  C
  C2       1.0000 0.03762  0.30955  0.76878  Biso   1.000  C
  H1       1.0000 0.77742  0.60698  0.20147  Biso   1.000  H
  H2       1.0000 0.22258  0.39302  0.79853  Biso   1.000  H
  N3       1.0000 0.09671  0.65265  0.35067  Biso   1.000  N
  N4       1.0000 0.90329  0.34735  0.64933  Biso   1.000  N
  C3       1.0000 0.36150  0.77216  0.39326  Biso   1.000  C
  C4       1.0000 0.63850  0.22784  0.60674  Biso   1.000  C
  C5       1.0000 0.49196  0.92946  0.31640  Biso   1.000  C
  C6       1.0000 0.50804  0.07054  0.68360  Biso   1.000  C
  H3       1.0000 0.67692  0.01294  0.34614  Biso   1.000  H
  H4       1.0000 0.32308  0.98706  0.65386  Biso   1.000  H
  C7       1.0000 0.35763  0.96727  0.19695  Biso   1.000  C
  C8       1.0000 0.64237  0.03273  0.80305  Biso   1.000  C
  C9       1.0000 0.50153  0.14077  0.11217  Biso   1.000  C
  C10      1.0000 0.49847  0.85923  0.88783  Biso   1.000  C
  O1       1.0000 0.75661  0.22803  0.14088  Biso   1.000  O
  O2       1.0000 0.24339  0.77197  0.85912  Biso   1.000  O
  O3       1.0000 0.36635  0.19810  0.01281  Biso   1.000  O
  O4       1.0000 0.63365  0.80190  0.98719  Biso   1.000  O
  C11      1.0000 0.50965  0.73046  0.52501  Biso   1.000  C
  C12      1.0000 0.49035  0.26954  0.47499  Biso   1.000  C
  O5       1.0000 0.37455  0.62939  0.60949  Biso   1.000  O
  O6       1.0000 0.62545  0.37061  0.39051  Biso   1.000  O
  O7       1.0000 0.76821  0.79679  0.55031  Biso   1.000  O
  O8       1.0000 0.23179  0.20321  0.44969  Biso   1.000  O
