data_image0
_cell_length_a       7.01183
_cell_length_b       12.1701
_cell_length_c       10.3889
_cell_angle_alpha    90
_cell_angle_beta     94.8196
_cell_angle_gamma    90

_symmetry_space_group_name_H-M    "P 1"
_symmetry_int_tables_number       1

loop_
  _symmetry_equiv_pos_as_xyz
  'x, y, z'

loop_
  _atom_site_label
  _atom_site_occupancy
  _atom_site_fract_x
  _atom_site_fract_y
  _atom_site_fract_z
  _atom_site_thermal_displace_type
  _atom_site_B_iso_or_equiv
  _atom_site_type_symbol
  Cu1      1.0000 0.76093  0.24530  0.49387  Biso   1.000  Cu
  Cu2      1.0000 0.73907  0.74530  0.00613  Biso   1.000  Cu
  Cu3      1.0000 0.23907  0.75470  0.50613  Biso   1.000  Cu
  Cu4      1.0000 0.26093  0.25470  0.99387  Biso   1.000  Cu
  O1       1.0000 0.47810  0.22290  0.61808  Biso   1.000  O
  O2       1.0000 0.02190  0.72290  0.88192  Biso   1.000  O
  O3       1.0000 0.52190  0.77710  0.38192  Biso   1.000  O
  O4       1.0000 0.97810  0.27710  0.11808  Biso   1.000  O
  O5       1.0000 0.03290  0.28250  0.36466  Biso   1.000  O
  O6       1.0000 0.46710  0.78250  0.13534  Biso   1.000  O
  O7       1.0000 0.96710  0.71750  0.63534  Biso   1.000  O
  O8       1.0000 0.53290  0.21750  0.86466  Biso   1.000  O
  N1       1.0000 0.61144  0.29418  0.35232  Biso   1.000  N
  N2       1.0000 0.88856  0.79418  0.14768  Biso   1.000  N
  N3       1.0000 0.38856  0.70582  0.64768  Biso   1.000  N
  N4       1.0000 0.11144  0.20582  0.85232  Biso   1.000  N
  C1       1.0000 0.51856  0.24126  0.25013  Biso   1.000  C
  C2       1.0000 0.98144  0.74126  0.24987  Biso   1.000  C
  C3       1.0000 0.48144  0.75874  0.74987  Biso   1.000  C
  C4       1.0000 0.01856  0.25874  0.75013  Biso   1.000  C
  H1       1.0000 0.52201  0.16334  0.24545  Biso   1.000  H
  H2       1.0000 0.97799  0.66334  0.25455  Biso   1.000  H
  H3       1.0000 0.47799  0.83666  0.75455  Biso   1.000  H
  H4       1.0000 0.02201  0.33666  0.74545  Biso   1.000  H
  N5       1.0000 0.42074  0.29991  0.15464  Biso   1.000  N
  N6       1.0000 0.07926  0.79991  0.34536  Biso   1.000  N
  N7       1.0000 0.57926  0.70009  0.84536  Biso   1.000  N
  N8       1.0000 0.92074  0.20009  0.65464  Biso   1.000  N
  C5       1.0000 0.41580  0.41146  0.16134  Biso   1.000  C
  C6       1.0000 0.08420  0.91146  0.33866  Biso   1.000  C
  C7       1.0000 0.58420  0.58854  0.83866  Biso   1.000  C
  C8       1.0000 0.91580  0.08854  0.66134  Biso   1.000  C
  C9       1.0000 0.50868  0.46437  0.26353  Biso   1.000  C
  C10      1.0000 0.99132  0.96437  0.23647  Biso   1.000  C
  C11      1.0000 0.49132  0.53563  0.73647  Biso   1.000  C
  C12      1.0000 0.00868  0.03563  0.76353  Biso   1.000  C
  H5       1.0000 0.50523  0.54230  0.26820  Biso   1.000  H
  H6       1.0000 0.99477  0.04230  0.23180  Biso   1.000  H
  H7       1.0000 0.49477  0.45770  0.73180  Biso   1.000  H
  H8       1.0000 0.00523  0.95770  0.76820  Biso   1.000  H
  C13      1.0000 0.60650  0.40573  0.35902  Biso   1.000  C
  C14      1.0000 0.89350  0.90573  0.14098  Biso   1.000  C
  C15      1.0000 0.39350  0.59427  0.64098  Biso   1.000  C
  C16      1.0000 0.10650  0.09427  0.85902  Biso   1.000  C
  C17      1.0000 0.70894  0.46409  0.47172  Biso   1.000  C
  C18      1.0000 0.79106  0.96409  0.02828  Biso   1.000  C
  C19      1.0000 0.29106  0.53591  0.52828  Biso   1.000  C
  C20      1.0000 0.20894  0.03591  0.97172  Biso   1.000  C
  O9       1.0000 0.71486  0.56673  0.47385  Biso   1.000  O
  O10      1.0000 0.78514  0.06673  0.02615  Biso   1.000  O
  O11      1.0000 0.28514  0.43327  0.52615  Biso   1.000  O
  O12      1.0000 0.21486  0.93327  0.97385  Biso   1.000  O
  O13      1.0000 0.78839  0.41008  0.56351  Biso   1.000  O
  O14      1.0000 0.71161  0.91008  0.93649  Biso   1.000  O
  O15      1.0000 0.21161  0.58992  0.43649  Biso   1.000  O
  O16      1.0000 0.28839  0.08992  0.06351  Biso   1.000  O
  C21      1.0000 0.30791  0.47614  0.05602  Biso   1.000  C
  C22      1.0000 0.19209  0.97614  0.44398  Biso   1.000  C
  C23      1.0000 0.69209  0.52386  0.94398  Biso   1.000  C
  C24      1.0000 0.80791  0.02386  0.55602  Biso   1.000  C
  O17      1.0000 0.23792  0.42858  0.95636  Biso   1.000  O
  O18      1.0000 0.26208  0.92858  0.54364  Biso   1.000  O
  O19      1.0000 0.76208  0.57142  0.04364  Biso   1.000  O
  O20      1.0000 0.73792  0.07142  0.45636  Biso   1.000  O
  O21      1.0000 0.28799  0.57761  0.06792  Biso   1.000  O
  O22      1.0000 0.21201  0.07761  0.43208  Biso   1.000  O
  O23      1.0000 0.71201  0.42239  0.93208  Biso   1.000  O
  O24      1.0000 0.78799  0.92239  0.56792  Biso   1.000  O
