data_image0
_cell_length_a       7.8224
_cell_length_b       14.1255
_cell_length_c       8.8197
_cell_angle_alpha    90
_cell_angle_beta     91.558
_cell_angle_gamma    90

_symmetry_space_group_name_H-M    "P 1"
_symmetry_int_tables_number       1

loop_
  _symmetry_equiv_pos_as_xyz
  'x, y, z'

loop_
  _atom_site_label
  _atom_site_occupancy
  _atom_site_fract_x
  _atom_site_fract_y
  _atom_site_fract_z
  _atom_site_thermal_displace_type
  _atom_site_B_iso_or_equiv
  _atom_site_type_symbol
  Cu1      1.0000 0.50000  0.00000  0.00000  Biso   1.000  Cu
  Cu2      1.0000 0.50000  0.50000  0.50000  Biso   1.000  Cu
  S1       1.0000 0.23317  0.95659  0.45310  Biso   1.000  S
  S2       1.0000 0.76683  0.45659  0.04690  Biso   1.000  S
  S3       1.0000 0.76683  0.04341  0.54690  Biso   1.000  S
  S4       1.0000 0.23317  0.54341  0.95310  Biso   1.000  S
  C1       1.0000 0.35100  0.96616  0.30770  Biso   1.000  C
  C2       1.0000 0.64900  0.46616  0.19230  Biso   1.000  C
  C3       1.0000 0.64900  0.03384  0.69230  Biso   1.000  C
  C4       1.0000 0.35100  0.53384  0.80770  Biso   1.000  C
  N1       1.0000 0.36260  0.11804  0.00350  Biso   1.000  N
  N2       1.0000 0.63740  0.61804  0.49650  Biso   1.000  N
  N3       1.0000 0.63740  0.88196  0.99650  Biso   1.000  N
  N4       1.0000 0.36260  0.38196  0.50350  Biso   1.000  N
  N5       1.0000 0.21770  0.13373  0.91900  Biso   1.000  N
  N6       1.0000 0.78230  0.63373  0.58100  Biso   1.000  N
  N7       1.0000 0.78230  0.86627  0.08100  Biso   1.000  N
  N8       1.0000 0.21770  0.36627  0.41900  Biso   1.000  N
  N9       1.0000 0.43210  0.97198  0.20420  Biso   1.000  N
  N10      1.0000 0.56790  0.47198  0.29580  Biso   1.000  N
  N11      1.0000 0.56790  0.02802  0.79580  Biso   1.000  N
  N12      1.0000 0.43210  0.52802  0.70420  Biso   1.000  N
  C5       1.0000 0.17060  0.22520  0.93140  Biso   1.000  C
  C6       1.0000 0.82940  0.72520  0.56860  Biso   1.000  C
  C7       1.0000 0.82940  0.77480  0.06860  Biso   1.000  C
  C8       1.0000 0.17060  0.27480  0.43140  Biso   1.000  C
  C9       1.0000 0.01120  0.26290  0.85390  Biso   1.000  C
  C10      1.0000 0.98880  0.76290  0.64610  Biso   1.000  C
  C11      1.0000 0.98880  0.73710  0.14610  Biso   1.000  C
  C12      1.0000 0.01120  0.23710  0.35390  Biso   1.000  C
  H1       1.0000 0.01710  0.25260  0.74660  Biso   1.000  H
  H2       1.0000 0.98290  0.75260  0.75340  Biso   1.000  H
  H3       1.0000 0.98290  0.74740  0.25340  Biso   1.000  H
  H4       1.0000 0.01710  0.24740  0.24660  Biso   1.000  H
  H5       1.0000 0.00150  0.32950  0.87370  Biso   1.000  H
  H6       1.0000 0.99850  0.82950  0.62630  Biso   1.000  H
  H7       1.0000 0.99850  0.67050  0.12630  Biso   1.000  H
  H8       1.0000 0.00150  0.17050  0.37370  Biso   1.000  H
  H9       1.0000 0.91320  0.23060  0.89200  Biso   1.000  H
  H10      1.0000 0.08680  0.73060  0.60800  Biso   1.000  H
  H11      1.0000 0.08680  0.76940  0.10800  Biso   1.000  H
  H12      1.0000 0.91320  0.26940  0.39200  Biso   1.000  H
  C13      1.0000 0.28750  0.26845  0.02470  Biso   1.000  C
  C14      1.0000 0.71250  0.76845  0.47530  Biso   1.000  C
  C15      1.0000 0.71250  0.73155  0.97530  Biso   1.000  C
  C16      1.0000 0.28750  0.23155  0.52470  Biso   1.000  C
  H13      1.0000 0.28780  0.33180  0.05350  Biso   1.000  H
  H14      1.0000 0.71220  0.83180  0.44650  Biso   1.000  H
  H15      1.0000 0.71220  0.66820  0.94650  Biso   1.000  H
  H16      1.0000 0.28780  0.16820  0.55350  Biso   1.000  H
  C17      1.0000 0.40580  0.20021  0.06850  Biso   1.000  C
  C18      1.0000 0.59420  0.70021  0.43150  Biso   1.000  C
  C19      1.0000 0.59420  0.79979  0.93150  Biso   1.000  C
  C20      1.0000 0.40580  0.29979  0.56850  Biso   1.000  C
  C21      1.0000 0.56020  0.20830  0.16890  Biso   1.000  C
  C22      1.0000 0.43980  0.70830  0.33110  Biso   1.000  C
  C23      1.0000 0.43980  0.79170  0.83110  Biso   1.000  C
  C24      1.0000 0.56020  0.29170  0.66890  Biso   1.000  C
  H17      1.0000 0.57460  0.15110  0.22650  Biso   1.000  H
  H18      1.0000 0.42540  0.65110  0.27350  Biso   1.000  H
  H19      1.0000 0.42540  0.84890  0.77350  Biso   1.000  H
  H20      1.0000 0.57460  0.34890  0.72650  Biso   1.000  H
  H21      1.0000 0.54720  0.26080  0.23670  Biso   1.000  H
  H22      1.0000 0.45280  0.76080  0.26330  Biso   1.000  H
  H23      1.0000 0.45280  0.73920  0.76330  Biso   1.000  H
  H24      1.0000 0.54720  0.23920  0.73670  Biso   1.000  H
  H25      1.0000 0.65880  0.21830  0.10840  Biso   1.000  H
  H26      1.0000 0.34120  0.71830  0.39160  Biso   1.000  H
  H27      1.0000 0.34120  0.78170  0.89160  Biso   1.000  H
  H28      1.0000 0.65880  0.28170  0.60840  Biso   1.000  H
  C25      1.0000 0.13480  0.05520  0.83900  Biso   1.000  C
  C26      1.0000 0.86520  0.55520  0.66100  Biso   1.000  C
  C27      1.0000 0.86520  0.94480  0.16100  Biso   1.000  C
  C28      1.0000 0.13480  0.44480  0.33900  Biso   1.000  C
  H29      1.0000 0.21700  0.02540  0.77390  Biso   1.000  H
  H30      1.0000 0.78300  0.52540  0.72610  Biso   1.000  H
  H31      1.0000 0.78300  0.97460  0.22610  Biso   1.000  H
  H32      1.0000 0.21700  0.47460  0.27390  Biso   1.000  H
  H33      1.0000 0.04260  0.07990  0.77460  Biso   1.000  H
  H34      1.0000 0.95740  0.57990  0.72540  Biso   1.000  H
  H35      1.0000 0.95740  0.92010  0.22540  Biso   1.000  H
  H36      1.0000 0.04260  0.42010  0.27460  Biso   1.000  H
  C29      1.0000 0.06270  0.98090  0.94410  Biso   1.000  C
  C30      1.0000 0.93730  0.48090  0.55590  Biso   1.000  C
  C31      1.0000 0.93730  0.01910  0.05590  Biso   1.000  C
  C32      1.0000 0.06270  0.51910  0.44410  Biso   1.000  C
  H37      1.0000 0.00630  0.93240  0.88310  Biso   1.000  H
  H38      1.0000 0.99370  0.43240  0.61690  Biso   1.000  H
  H39      1.0000 0.99370  0.06760  0.11690  Biso   1.000  H
  H40      1.0000 0.00630  0.56760  0.38310  Biso   1.000  H
  H41      1.0000 0.15680  0.95110  0.99990  Biso   1.000  H
  H42      1.0000 0.84320  0.45110  0.50010  Biso   1.000  H
  H43      1.0000 0.84320  0.04890  0.00010  Biso   1.000  H
  H44      1.0000 0.15680  0.54890  0.49990  Biso   1.000  H
