data_image0
_cell_length_a       7.097
_cell_length_b       9.776
_cell_length_c       10.454
_cell_angle_alpha    85.91
_cell_angle_beta     70.69
_cell_angle_gamma    87.4

_symmetry_space_group_name_H-M    "P 1"
_symmetry_int_tables_number       1

loop_
  _symmetry_equiv_pos_as_xyz
  'x, y, z'

loop_
  _atom_site_label
  _atom_site_occupancy
  _atom_site_fract_x
  _atom_site_fract_y
  _atom_site_fract_z
  _atom_site_thermal_displace_type
  _atom_site_B_iso_or_equiv
  _atom_site_type_symbol
  Cu1      1.0000 0.87438  0.48627  0.88574  Biso   1.000  Cu
  Cu2      1.0000 0.12562  0.51373  0.11426  Biso   1.000  Cu
  O1       1.0000 0.81630  0.61670  0.02420  Biso   1.000  O
  O2       1.0000 0.18370  0.38330  0.97580  Biso   1.000  O
  O3       1.0000 0.66650  0.38020  0.01770  Biso   1.000  O
  O4       1.0000 0.33350  0.61980  0.98230  Biso   1.000  O
  O5       1.0000 0.41670  0.40870  0.20990  Biso   1.000  O
  O6       1.0000 0.58330  0.59130  0.79010  Biso   1.000  O
  O7       1.0000 0.57830  0.66260  0.21700  Biso   1.000  O
  O8       1.0000 0.42170  0.33740  0.78300  Biso   1.000  O
  C1       1.0000 0.65730  0.58920  0.12400  Biso   1.000  C
  C2       1.0000 0.34270  0.41080  0.87600  Biso   1.000  C
  C3       1.0000 0.56950  0.44710  0.11990  Biso   1.000  C
  C4       1.0000 0.43050  0.55290  0.88010  Biso   1.000  C
  N1       1.0000 0.07060  0.59880  0.74370  Biso   1.000  N
  N2       1.0000 0.92940  0.40120  0.25630  Biso   1.000  N
  C5       1.0000 0.11980  0.72760  0.75340  Biso   1.000  C
  C6       1.0000 0.88020  0.27240  0.24660  Biso   1.000  C
  C7       1.0000 0.25300  0.79930  0.64650  Biso   1.000  C
  C8       1.0000 0.74700  0.20070  0.35350  Biso   1.000  C
  C9       1.0000 0.33690  0.73760  0.52510  Biso   1.000  C
  C10      1.0000 0.66310  0.26240  0.47490  Biso   1.000  C
  C11      1.0000 0.28840  0.60480  0.51360  Biso   1.000  C
  C12      1.0000 0.71160  0.39520  0.48640  Biso   1.000  C
  C13      1.0000 0.15510  0.53760  0.62570  Biso   1.000  C
  C14      1.0000 0.84490  0.46240  0.37430  Biso   1.000  C
  C15      1.0000 0.09410  0.39460  0.62900  Biso   1.000  C
  C16      1.0000 0.90590  0.60540  0.37100  Biso   1.000  C
  N3       1.0000 0.95730  0.35070  0.74620  Biso   1.000  N
  N4       1.0000 0.04270  0.64930  0.25380  Biso   1.000  N
  C17      1.0000 0.89480  0.22190  0.76200  Biso   1.000  C
  C18      1.0000 0.10520  0.77810  0.23800  Biso   1.000  C
  C19      1.0000 0.96990  0.13030  0.66190  Biso   1.000  C
  C20      1.0000 0.03010  0.86970  0.33810  Biso   1.000  C
  C21      1.0000 0.10920  0.17480  0.54100  Biso   1.000  C
  C22      1.0000 0.89080  0.82520  0.45900  Biso   1.000  C
  C23      1.0000 0.17180  0.30890  0.52320  Biso   1.000  C
  C24      1.0000 0.82820  0.69110  0.47680  Biso   1.000  C
  O9       1.0000 0.65310  0.87950  0.82390  Biso   1.000  O
  O10      1.0000 0.34690  0.12050  0.17610  Biso   1.000  O
  O11      1.0000 0.08730  0.03000  0.03470  Biso   1.000  O
  O12      1.0000 0.91270  0.97000  0.96530  Biso   1.000  O
  O13      1.0000 0.31000  0.06160  0.91230  Biso   1.000  O
  O14      1.0000 0.69000  0.93840  0.08770  Biso   1.000  O
  O15      1.0000 0.37310  0.06650  0.77500  Biso   1.000  O
  O16      1.0000 0.62690  0.93350  0.22500  Biso   1.000  O
  H1       1.0000 0.06900  0.76400  0.82600  Biso   1.000  H
  H2       1.0000 0.93100  0.23600  0.17400  Biso   1.000  H
  H3       1.0000 0.27600  0.89500  0.66400  Biso   1.000  H
  H4       1.0000 0.72400  0.10500  0.33600  Biso   1.000  H
  H5       1.0000 0.42300  0.78900  0.45400  Biso   1.000  H
  H6       1.0000 0.57700  0.21100  0.54600  Biso   1.000  H
  H7       1.0000 0.35200  0.56300  0.43800  Biso   1.000  H
  H8       1.0000 0.64800  0.43700  0.56200  Biso   1.000  H
  H9       1.0000 0.80600  0.20000  0.83500  Biso   1.000  H
  H10      1.0000 0.19400  0.80000  0.16500  Biso   1.000  H
  H11      1.0000 0.92200  0.04200  0.67300  Biso   1.000  H
  H12      1.0000 0.07800  0.95800  0.32700  Biso   1.000  H
  H13      1.0000 0.17000  0.12900  0.46500  Biso   1.000  H
  H14      1.0000 0.83000  0.87100  0.53500  Biso   1.000  H
  H15      1.0000 0.26500  0.34000  0.45200  Biso   1.000  H
  H16      1.0000 0.73500  0.66000  0.54800  Biso   1.000  H
