data_image0
_cell_length_a       7.01875
_cell_length_b       12.6502
_cell_length_c       10.3889
_cell_angle_alpha    90
_cell_angle_beta     94.9849
_cell_angle_gamma    90

_symmetry_space_group_name_H-M    "P 1"
_symmetry_int_tables_number       1

loop_
  _symmetry_equiv_pos_as_xyz
  'x, y, z'

loop_
  _atom_site_label
  _atom_site_occupancy
  _atom_site_fract_x
  _atom_site_fract_y
  _atom_site_fract_z
  _atom_site_thermal_displace_type
  _atom_site_B_iso_or_equiv
  _atom_site_type_symbol
  Cu1      1.0000 0.75000  0.75000  0.00000  Biso   1.000  Cu
  Cu2      1.0000 0.25000  0.25000  0.00000  Biso   1.000  Cu
  Cu3      1.0000 0.75000  0.25000  0.50000  Biso   1.000  Cu
  Cu4      1.0000 0.25000  0.75000  0.50000  Biso   1.000  Cu
  O1       1.0000 0.05147  0.77755  0.89708  Biso   1.000  O
  O2       1.0000 0.55147  0.27755  0.89708  Biso   1.000  O
  O3       1.0000 0.44853  0.27755  0.60292  Biso   1.000  O
  O4       1.0000 0.94853  0.77755  0.60292  Biso   1.000  O
  O5       1.0000 0.94853  0.22245  0.10292  Biso   1.000  O
  O6       1.0000 0.44853  0.72245  0.10292  Biso   1.000  O
  O7       1.0000 0.55147  0.72245  0.39708  Biso   1.000  O
  O8       1.0000 0.05147  0.22245  0.39708  Biso   1.000  O
  N1       1.0000 0.90103  0.70520  0.15245  Biso   1.000  N
  N2       1.0000 0.40103  0.20520  0.15245  Biso   1.000  N
  N3       1.0000 0.59897  0.20520  0.34755  Biso   1.000  N
  N4       1.0000 0.09897  0.70520  0.34755  Biso   1.000  N
  N5       1.0000 0.09897  0.29480  0.84755  Biso   1.000  N
  N6       1.0000 0.59897  0.79480  0.84755  Biso   1.000  N
  N7       1.0000 0.40103  0.79480  0.65245  Biso   1.000  N
  N8       1.0000 0.90103  0.29480  0.65245  Biso   1.000  N
  C1       1.0000 0.00000  0.75896  0.25000  Biso   1.000  C
  C2       1.0000 0.50000  0.25896  0.25000  Biso   1.000  C
  C3       1.0000 0.00000  0.24104  0.75000  Biso   1.000  C
  C4       1.0000 0.50000  0.74104  0.75000  Biso   1.000  C
  H1       1.0000 0.00000  0.83406  0.25000  Biso   1.000  H
  H2       1.0000 0.50000  0.33406  0.25000  Biso   1.000  H
  H3       1.0000 0.00000  0.16594  0.75000  Biso   1.000  H
  H4       1.0000 0.50000  0.66594  0.75000  Biso   1.000  H
  C5       1.0000 0.90103  0.59770  0.15245  Biso   1.000  C
  C6       1.0000 0.40103  0.09770  0.15245  Biso   1.000  C
  C7       1.0000 0.59897  0.09770  0.34755  Biso   1.000  C
  C8       1.0000 0.09897  0.59770  0.34755  Biso   1.000  C
  C9       1.0000 0.09897  0.40230  0.84755  Biso   1.000  C
  C10      1.0000 0.59897  0.90230  0.84755  Biso   1.000  C
  C11      1.0000 0.40103  0.90230  0.65245  Biso   1.000  C
  C12      1.0000 0.90103  0.40230  0.65245  Biso   1.000  C
  C13      1.0000 0.00000  0.54394  0.25000  Biso   1.000  C
  C14      1.0000 0.50000  0.04394  0.25000  Biso   1.000  C
  C15      1.0000 0.00000  0.45606  0.75000  Biso   1.000  C
  C16      1.0000 0.50000  0.95606  0.75000  Biso   1.000  C
  H5       1.0000 0.00000  0.46884  0.25000  Biso   1.000  H
  H6       1.0000 0.50000  0.96884  0.25000  Biso   1.000  H
  H7       1.0000 0.00000  0.53116  0.75000  Biso   1.000  H
  H8       1.0000 0.50000  0.03116  0.75000  Biso   1.000  H
  C17      1.0000 0.79186  0.53841  0.04487  Biso   1.000  C
  C18      1.0000 0.29186  0.03841  0.04487  Biso   1.000  C
  C19      1.0000 0.70814  0.03841  0.45513  Biso   1.000  C
  C20      1.0000 0.20814  0.53841  0.45513  Biso   1.000  C
  C21      1.0000 0.20814  0.46159  0.95513  Biso   1.000  C
  C22      1.0000 0.70814  0.96159  0.95513  Biso   1.000  C
  C23      1.0000 0.29186  0.96159  0.54487  Biso   1.000  C
  C24      1.0000 0.79186  0.46159  0.54487  Biso   1.000  C
  O9       1.0000 0.79432  0.43961  0.04380  Biso   1.000  O
  O10      1.0000 0.29432  0.93961  0.04380  Biso   1.000  O
  O11      1.0000 0.70568  0.93961  0.45620  Biso   1.000  O
  O12      1.0000 0.20568  0.43961  0.45620  Biso   1.000  O
  O13      1.0000 0.20568  0.56039  0.95620  Biso   1.000  O
  O14      1.0000 0.70568  0.06039  0.95620  Biso   1.000  O
  O15      1.0000 0.29432  0.06039  0.54380  Biso   1.000  O
  O16      1.0000 0.79432  0.56039  0.54380  Biso   1.000  O
  O17      1.0000 0.69923  0.58780  0.95593  Biso   1.000  O
  O18      1.0000 0.19923  0.08780  0.95593  Biso   1.000  O
  O19      1.0000 0.80077  0.08780  0.54407  Biso   1.000  O
  O20      1.0000 0.30077  0.58780  0.54407  Biso   1.000  O
  O21      1.0000 0.30077  0.41220  0.04407  Biso   1.000  O
  O22      1.0000 0.80077  0.91220  0.04407  Biso   1.000  O
  O23      1.0000 0.19923  0.91220  0.45593  Biso   1.000  O
  O24      1.0000 0.69923  0.41220  0.45593  Biso   1.000  O
  O25      1.0000 0.00000  0.97340  0.25000  Biso   1.000  O
  O26      1.0000 0.50000  0.47340  0.25000  Biso   1.000  O
  O27      1.0000 0.00000  0.02660  0.75000  Biso   1.000  O
  O28      1.0000 0.50000  0.52660  0.75000  Biso   1.000  O
