data_image0
_cell_length_a       10.9265
_cell_length_b       11.5269
_cell_length_c       18.0941
_cell_angle_alpha    90
_cell_angle_beta     100.183
_cell_angle_gamma    90

_symmetry_space_group_name_H-M    "P 1"
_symmetry_int_tables_number       1

loop_
  _symmetry_equiv_pos_as_xyz
  'x, y, z'

loop_
  _atom_site_label
  _atom_site_occupancy
  _atom_site_fract_x
  _atom_site_fract_y
  _atom_site_fract_z
  _atom_site_thermal_displace_type
  _atom_site_B_iso_or_equiv
  _atom_site_type_symbol
  H1       1.0000 0.18500  0.70400  0.19730  Biso   1.000  H
  H2       1.0000 0.31500  0.20400  0.30270  Biso   1.000  H
  H3       1.0000 0.81500  0.29600  0.80270  Biso   1.000  H
  H4       1.0000 0.68500  0.79600  0.69730  Biso   1.000  H
  H5       1.0000 0.35440  0.83020  0.21060  Biso   1.000  H
  H6       1.0000 0.14560  0.33020  0.28940  Biso   1.000  H
  H7       1.0000 0.64560  0.16980  0.78940  Biso   1.000  H
  H8       1.0000 0.85440  0.66980  0.71060  Biso   1.000  H
  H9       1.0000 0.31900  0.02960  0.19230  Biso   1.000  H
  H10      1.0000 0.18100  0.52960  0.30770  Biso   1.000  H
  H11      1.0000 0.68100  0.97040  0.80770  Biso   1.000  H
  H12      1.0000 0.81900  0.47040  0.69230  Biso   1.000  H
  H13      1.0000 0.11770  0.10030  0.15710  Biso   1.000  H
  H14      1.0000 0.38230  0.60030  0.34290  Biso   1.000  H
  H15      1.0000 0.88230  0.89970  0.84290  Biso   1.000  H
  H16      1.0000 0.61770  0.39970  0.65710  Biso   1.000  H
  H17      1.0000 0.91520  0.12380  0.99520  Biso   1.000  H
  H18      1.0000 0.58480  0.62380  0.50480  Biso   1.000  H
  H19      1.0000 0.08480  0.87620  0.00480  Biso   1.000  H
  H20      1.0000 0.41520  0.37620  0.49520  Biso   1.000  H
  H21      1.0000 0.94700  0.31890  0.96880  Biso   1.000  H
  H22      1.0000 0.55300  0.81890  0.53120  Biso   1.000  H
  H23      1.0000 0.05300  0.68110  0.03120  Biso   1.000  H
  H24      1.0000 0.44700  0.18110  0.46880  Biso   1.000  H
  H25      1.0000 0.96320  0.45720  0.06480  Biso   1.000  H
  H26      1.0000 0.53680  0.95720  0.43520  Biso   1.000  H
  H27      1.0000 0.03680  0.54280  0.93520  Biso   1.000  H
  H28      1.0000 0.46320  0.04280  0.56480  Biso   1.000  H
  H29      1.0000 0.93530  0.40230  0.18480  Biso   1.000  H
  H30      1.0000 0.56470  0.90230  0.31520  Biso   1.000  H
  H31      1.0000 0.06470  0.59770  0.81520  Biso   1.000  H
  H32      1.0000 0.43530  0.09770  0.68480  Biso   1.000  H
  H33      1.0000 0.63440  0.42230  0.22840  Biso   1.000  H
  H34      1.0000 0.86560  0.92230  0.27160  Biso   1.000  H
  H35      1.0000 0.36560  0.57770  0.77160  Biso   1.000  H
  H36      1.0000 0.13440  0.07770  0.72840  Biso   1.000  H
  H37      1.0000 0.56480  0.23630  0.18970  Biso   1.000  H
  H38      1.0000 0.93520  0.73630  0.31030  Biso   1.000  H
  H39      1.0000 0.43520  0.76370  0.81030  Biso   1.000  H
  H40      1.0000 0.06480  0.26370  0.68970  Biso   1.000  H
  H41      1.0000 0.54930  0.18210  0.06420  Biso   1.000  H
  H42      1.0000 0.95070  0.68210  0.43580  Biso   1.000  H
  H43      1.0000 0.45070  0.81790  0.93580  Biso   1.000  H
  H44      1.0000 0.04930  0.31790  0.56420  Biso   1.000  H
  H45      1.0000 0.69760  0.58880  0.83060  Biso   1.000  H
  H46      1.0000 0.80240  0.08880  0.66940  Biso   1.000  H
  H47      1.0000 0.30240  0.41120  0.16940  Biso   1.000  H
  H48      1.0000 0.19760  0.91120  0.33060  Biso   1.000  H
  H49      1.0000 0.75770  0.76860  0.88390  Biso   1.000  H
  H50      1.0000 0.74230  0.26860  0.61610  Biso   1.000  H
  H51      1.0000 0.24230  0.23140  0.11610  Biso   1.000  H
  H52      1.0000 0.25770  0.73140  0.38390  Biso   1.000  H
  H53      1.0000 0.76990  0.79750  0.01310  Biso   1.000  H
  H54      1.0000 0.73010  0.29750  0.48690  Biso   1.000  H
  H55      1.0000 0.23010  0.20250  0.98690  Biso   1.000  H
  H56      1.0000 0.26990  0.70250  0.51310  Biso   1.000  H
  H57      1.0000 0.57270  0.24070  0.93010  Biso   1.000  H
  H58      1.0000 0.92730  0.74070  0.56990  Biso   1.000  H
  H59      1.0000 0.42730  0.75930  0.06990  Biso   1.000  H
  H60      1.0000 0.07270  0.25930  0.43010  Biso   1.000  H
  H61      1.0000 0.62130  0.38080  0.84990  Biso   1.000  H
  H62      1.0000 0.87870  0.88080  0.65010  Biso   1.000  H
  H63      1.0000 0.37870  0.61920  0.15010  Biso   1.000  H
  H64      1.0000 0.12130  0.11920  0.34990  Biso   1.000  H
  C1       1.0000 0.94606  0.73602  0.16221  Biso   1.000  C
  C2       1.0000 0.55394  0.23602  0.33779  Biso   1.000  C
  C3       1.0000 0.05394  0.26398  0.83779  Biso   1.000  C
  C4       1.0000 0.44606  0.76398  0.66221  Biso   1.000  C
  C5       1.0000 0.04865  0.82473  0.16850  Biso   1.000  C
  C6       1.0000 0.45135  0.32473  0.33150  Biso   1.000  C
  C7       1.0000 0.95135  0.17527  0.83150  Biso   1.000  C
  C8       1.0000 0.54865  0.67527  0.66850  Biso   1.000  C
  C9       1.0000 0.17088  0.78460  0.18890  Biso   1.000  C
  C10      1.0000 0.32912  0.28460  0.31110  Biso   1.000  C
  C11      1.0000 0.82912  0.21540  0.81110  Biso   1.000  C
  C12      1.0000 0.67088  0.71540  0.68890  Biso   1.000  C
  C13      1.0000 0.27210  0.85925  0.19723  Biso   1.000  C
  C14      1.0000 0.22790  0.35925  0.30277  Biso   1.000  C
  C15      1.0000 0.72790  0.14075  0.80277  Biso   1.000  C
  C16      1.0000 0.77210  0.64075  0.69723  Biso   1.000  C
  C17      1.0000 0.25080  0.97726  0.18570  Biso   1.000  C
  C18      1.0000 0.24920  0.47726  0.31430  Biso   1.000  C
  C19      1.0000 0.74920  0.02274  0.81430  Biso   1.000  C
  C20      1.0000 0.75080  0.52274  0.68570  Biso   1.000  C
  C21      1.0000 0.13053  0.01933  0.16464  Biso   1.000  C
  C22      1.0000 0.36947  0.51933  0.33536  Biso   1.000  C
  C23      1.0000 0.86947  0.98067  0.83536  Biso   1.000  C
  C24      1.0000 0.63053  0.48067  0.66464  Biso   1.000  C
  C25      1.0000 0.02760  0.94453  0.15435  Biso   1.000  C
  C26      1.0000 0.47240  0.44453  0.34565  Biso   1.000  C
  C27      1.0000 0.97240  0.05547  0.84565  Biso   1.000  C
  C28      1.0000 0.52760  0.55547  0.65435  Biso   1.000  C
  C29      1.0000 0.89986  0.14641  0.10502  Biso   1.000  C
  C30      1.0000 0.60014  0.64641  0.39498  Biso   1.000  C
  C31      1.0000 0.10014  0.85359  0.89498  Biso   1.000  C
  C32      1.0000 0.39986  0.35359  0.60502  Biso   1.000  C
  C33      1.0000 0.91745  0.18037  0.03361  Biso   1.000  C
  C34      1.0000 0.58255  0.68037  0.46639  Biso   1.000  C
  C35      1.0000 0.08255  0.81963  0.96639  Biso   1.000  C
  C36      1.0000 0.41745  0.31963  0.53361  Biso   1.000  C
  C37      1.0000 0.93821  0.29622  0.01806  Biso   1.000  C
  C38      1.0000 0.56179  0.79622  0.48194  Biso   1.000  C
  C39      1.0000 0.06179  0.70378  0.98194  Biso   1.000  C
  C40      1.0000 0.43821  0.20378  0.51806  Biso   1.000  C
  C41      1.0000 0.94602  0.37856  0.07474  Biso   1.000  C
  C42      1.0000 0.55398  0.87856  0.42526  Biso   1.000  C
  C43      1.0000 0.05398  0.62144  0.92526  Biso   1.000  C
  C44      1.0000 0.44602  0.12144  0.57474  Biso   1.000  C
  C45      1.0000 0.92866  0.34575  0.14607  Biso   1.000  C
  C46      1.0000 0.57134  0.84575  0.35393  Biso   1.000  C
  C47      1.0000 0.07134  0.65425  0.85393  Biso   1.000  C
  C48      1.0000 0.42866  0.15425  0.64607  Biso   1.000  C
  C49      1.0000 0.90152  0.23075  0.16164  Biso   1.000  C
  C50      1.0000 0.59848  0.73075  0.33836  Biso   1.000  C
  C51      1.0000 0.09848  0.76925  0.83836  Biso   1.000  C
  C52      1.0000 0.40152  0.26925  0.66164  Biso   1.000  C
  C53      1.0000 0.87354  0.20601  0.23885  Biso   1.000  C
  C54      1.0000 0.62646  0.70601  0.26115  Biso   1.000  C
  C55      1.0000 0.12646  0.79399  0.76115  Biso   1.000  C
  C56      1.0000 0.37354  0.29399  0.73885  Biso   1.000  C
  C57      1.0000 0.62724  0.40167  0.17697  Biso   1.000  C
  C58      1.0000 0.87276  0.90167  0.32303  Biso   1.000  C
  C59      1.0000 0.37276  0.59833  0.82303  Biso   1.000  C
  C60      1.0000 0.12724  0.09833  0.67697  Biso   1.000  C
  C61      1.0000 0.58600  0.28988  0.15411  Biso   1.000  C
  C62      1.0000 0.91400  0.78988  0.34589  Biso   1.000  C
  C63      1.0000 0.41400  0.71012  0.84589  Biso   1.000  C
  C64      1.0000 0.08600  0.21012  0.65411  Biso   1.000  C
  C65      1.0000 0.57635  0.25794  0.07996  Biso   1.000  C
  C66      1.0000 0.92365  0.75794  0.42004  Biso   1.000  C
  C67      1.0000 0.42365  0.74206  0.92004  Biso   1.000  C
  C68      1.0000 0.07635  0.24206  0.57996  Biso   1.000  C
  C69      1.0000 0.60702  0.33880  0.02766  Biso   1.000  C
  C70      1.0000 0.89298  0.83880  0.47234  Biso   1.000  C
  C71      1.0000 0.39298  0.66120  0.97234  Biso   1.000  C
  C72      1.0000 0.10702  0.16120  0.52766  Biso   1.000  C
  C73      1.0000 0.64611  0.44900  0.05541  Biso   1.000  C
  C74      1.0000 0.85389  0.94900  0.44459  Biso   1.000  C
  C75      1.0000 0.35389  0.55100  0.94459  Biso   1.000  C
  C76      1.0000 0.14611  0.05100  0.55541  Biso   1.000  C
  C77      1.0000 0.67844  0.53566  0.00523  Biso   1.000  C
  C78      1.0000 0.82156  0.03566  0.49477  Biso   1.000  C
  C79      1.0000 0.32156  0.46434  0.99477  Biso   1.000  C
  C80      1.0000 0.17844  0.96434  0.50523  Biso   1.000  C
  C81      1.0000 0.67003  0.51098  0.92878  Biso   1.000  C
  C82      1.0000 0.82997  0.01098  0.57122  Biso   1.000  C
  C83      1.0000 0.32997  0.48902  0.07122  Biso   1.000  C
  C84      1.0000 0.17003  0.98902  0.42878  Biso   1.000  C
  C85      1.0000 0.70137  0.60110  0.88288  Biso   1.000  C
  C86      1.0000 0.79863  0.10110  0.61712  Biso   1.000  C
  C87      1.0000 0.29863  0.39890  0.11712  Biso   1.000  C
  C88      1.0000 0.20137  0.89890  0.38288  Biso   1.000  C
  C89      1.0000 0.73742  0.70700  0.91451  Biso   1.000  C
  C90      1.0000 0.76258  0.20700  0.58549  Biso   1.000  C
  C91      1.0000 0.26258  0.29300  0.08549  Biso   1.000  C
  C92      1.0000 0.23742  0.79300  0.41451  Biso   1.000  C
  C93      1.0000 0.74429  0.72412  0.99192  Biso   1.000  C
  C94      1.0000 0.75571  0.22412  0.50808  Biso   1.000  C
  C95      1.0000 0.25571  0.27588  0.00808  Biso   1.000  C
  C96      1.0000 0.24429  0.77588  0.49192  Biso   1.000  C
  C97      1.0000 0.59891  0.31511  0.94923  Biso   1.000  C
  C98      1.0000 0.90109  0.81511  0.55077  Biso   1.000  C
  C99      1.0000 0.40109  0.68489  0.05077  Biso   1.000  C
  C100     1.0000 0.09891  0.18489  0.44923  Biso   1.000  C
  C101     1.0000 0.62838  0.39795  0.90182  Biso   1.000  C
  C102     1.0000 0.87162  0.89795  0.59818  Biso   1.000  C
  C103     1.0000 0.37162  0.60205  0.09818  Biso   1.000  C
  C104     1.0000 0.12838  0.10205  0.40182  Biso   1.000  C
  N1       1.0000 0.65667  0.47979  0.12866  Biso   1.000  N
  N2       1.0000 0.84333  0.97979  0.37134  Biso   1.000  N
  N3       1.0000 0.34333  0.52021  0.87134  Biso   1.000  N
  N4       1.0000 0.15667  0.02021  0.62866  Biso   1.000  N
  N5       1.0000 0.71575  0.64001  0.03640  Biso   1.000  N
  N6       1.0000 0.78425  0.14001  0.46360  Biso   1.000  N
  N7       1.0000 0.28425  0.35999  0.96360  Biso   1.000  N
  N8       1.0000 0.21575  0.85999  0.53640  Biso   1.000  N
  O1       1.0000 0.83542  0.77570  0.15979  Biso   1.000  O
  O2       1.0000 0.66458  0.27570  0.34021  Biso   1.000  O
  O3       1.0000 0.16458  0.22430  0.84021  Biso   1.000  O
  O4       1.0000 0.33542  0.72430  0.65979  Biso   1.000  O
  O5       1.0000 0.97005  0.63098  0.16044  Biso   1.000  O
  O6       1.0000 0.52995  0.13098  0.33956  Biso   1.000  O
  O7       1.0000 0.02995  0.36902  0.83956  Biso   1.000  O
  O8       1.0000 0.47005  0.86902  0.66044  Biso   1.000  O
  O9       1.0000 0.78715  0.13305  0.24490  Biso   1.000  O
  O10      1.0000 0.71285  0.63305  0.25510  Biso   1.000  O
  O11      1.0000 0.21285  0.86695  0.75510  Biso   1.000  O
  O12      1.0000 0.28715  0.36695  0.74490  Biso   1.000  O
  O13      1.0000 0.93078  0.26044  0.29379  Biso   1.000  O
  O14      1.0000 0.56922  0.76044  0.20621  Biso   1.000  O
  O15      1.0000 0.06922  0.73956  0.70621  Biso   1.000  O
  O16      1.0000 0.43078  0.23956  0.79379  Biso   1.000  O
  S1       1.0000 0.87376  0.99592  0.12059  Biso   1.000  S
  S2       1.0000 0.62624  0.49592  0.37941  Biso   1.000  S
  S3       1.0000 0.12624  0.00408  0.87941  Biso   1.000  S
  S4       1.0000 0.37376  0.50408  0.62059  Biso   1.000  S
  Cu1      1.0000 0.72903  0.63841  0.14866  Biso   1.000  Cu
  Cu2      1.0000 0.77097  0.13841  0.35134  Biso   1.000  Cu
  Cu3      1.0000 0.27097  0.36159  0.85134  Biso   1.000  Cu
  Cu4      1.0000 0.22903  0.86159  0.64866  Biso   1.000  Cu
  H65      1.0000 0.57800  0.93000  0.17100  Biso   1.000  H
  H66      1.0000 0.92200  0.43000  0.32900  Biso   1.000  H
  H67      1.0000 0.42200  0.07000  0.82900  Biso   1.000  H
  H68      1.0000 0.07800  0.57000  0.67100  Biso   1.000  H
  H69      1.0000 0.64800  0.02600  0.18200  Biso   1.000  H
  H70      1.0000 0.85200  0.52600  0.31800  Biso   1.000  H
  H71      1.0000 0.35200  0.97400  0.81800  Biso   1.000  H
  H72      1.0000 0.14800  0.47400  0.68200  Biso   1.000  H
  O17      1.0000 0.57296  0.99521  0.15393  Biso   1.000  O
  O18      1.0000 0.92704  0.49521  0.34607  Biso   1.000  O
  O19      1.0000 0.42704  0.00479  0.84607  Biso   1.000  O
  O20      1.0000 0.07296  0.50479  0.65393  Biso   1.000  O
  O21      1.0000 0.40160  0.01550  0.01270  Biso   1.000  O
  O22      1.0000 0.09840  0.51550  0.48730  Biso   1.000  O
  O23      1.0000 0.59840  0.98450  0.98730  Biso   1.000  O
  O24      1.0000 0.90160  0.48450  0.51270  Biso   1.000  O
