data_image0
_cell_length_a       30.4891
_cell_length_b       12.5783
_cell_length_c       13.5372
_cell_angle_alpha    90
_cell_angle_beta     107.752
_cell_angle_gamma    90

_symmetry_space_group_name_H-M    "P 1"
_symmetry_int_tables_number       1

loop_
  _symmetry_equiv_pos_as_xyz
  'x, y, z'

loop_
  _atom_site_label
  _atom_site_occupancy
  _atom_site_fract_x
  _atom_site_fract_y
  _atom_site_fract_z
  _atom_site_thermal_displace_type
  _atom_site_B_iso_or_equiv
  _atom_site_type_symbol
  O1       1.0000 0.34018  0.38800  0.62609  Biso   1.000  O
  O2       1.0000 0.65982  0.38800  0.87391  Biso   1.000  O
  O3       1.0000 0.84018  0.88800  0.62609  Biso   1.000  O
  O4       1.0000 0.15982  0.88800  0.87391  Biso   1.000  O
  O5       1.0000 0.65982  0.61200  0.37391  Biso   1.000  O
  O6       1.0000 0.34018  0.61200  0.12609  Biso   1.000  O
  O7       1.0000 0.15982  0.11200  0.37391  Biso   1.000  O
  O8       1.0000 0.84018  0.11200  0.12609  Biso   1.000  O
  H1       1.0000 0.35700  0.43910  0.66070  Biso   1.000  H
  H2       1.0000 0.64300  0.43910  0.83930  Biso   1.000  H
  H3       1.0000 0.85700  0.93910  0.66070  Biso   1.000  H
  H4       1.0000 0.14300  0.93910  0.83930  Biso   1.000  H
  H5       1.0000 0.64300  0.56090  0.33930  Biso   1.000  H
  H6       1.0000 0.35700  0.56090  0.16070  Biso   1.000  H
  H7       1.0000 0.14300  0.06090  0.33930  Biso   1.000  H
  H8       1.0000 0.85700  0.06090  0.16070  Biso   1.000  H
  H9       1.0000 0.33240  0.40650  0.56270  Biso   1.000  H
  H10      1.0000 0.66760  0.40650  0.93730  Biso   1.000  H
  H11      1.0000 0.83240  0.90650  0.56270  Biso   1.000  H
  H12      1.0000 0.16760  0.90650  0.93730  Biso   1.000  H
  H13      1.0000 0.66760  0.59350  0.43730  Biso   1.000  H
  H14      1.0000 0.33240  0.59350  0.06270  Biso   1.000  H
  H15      1.0000 0.16760  0.09350  0.43730  Biso   1.000  H
  H16      1.0000 0.83240  0.09350  0.06270  Biso   1.000  H
  O9       1.0000 0.39718  0.22242  0.52257  Biso   1.000  O
  O10      1.0000 0.60282  0.22242  0.97743  Biso   1.000  O
  O11      1.0000 0.89718  0.72242  0.52257  Biso   1.000  O
  O12      1.0000 0.10282  0.72242  0.97743  Biso   1.000  O
  O13      1.0000 0.60282  0.77758  0.47743  Biso   1.000  O
  O14      1.0000 0.39718  0.77758  0.02257  Biso   1.000  O
  O15      1.0000 0.10282  0.27758  0.47743  Biso   1.000  O
  O16      1.0000 0.89718  0.27758  0.02257  Biso   1.000  O
  H17      1.0000 0.38570  0.21740  0.45710  Biso   1.000  H
  H18      1.0000 0.61430  0.21740  0.04290  Biso   1.000  H
  H19      1.0000 0.88570  0.71740  0.45710  Biso   1.000  H
  H20      1.0000 0.11430  0.71740  0.04290  Biso   1.000  H
  H21      1.0000 0.61430  0.78260  0.54290  Biso   1.000  H
  H22      1.0000 0.38570  0.78260  0.95710  Biso   1.000  H
  H23      1.0000 0.11430  0.28260  0.54290  Biso   1.000  H
  H24      1.0000 0.88570  0.28260  0.95710  Biso   1.000  H
  H25      1.0000 0.40230  0.15980  0.54690  Biso   1.000  H
  H26      1.0000 0.59770  0.15980  0.95310  Biso   1.000  H
  H27      1.0000 0.90230  0.65980  0.54690  Biso   1.000  H
  H28      1.0000 0.09770  0.65980  0.95310  Biso   1.000  H
  H29      1.0000 0.59770  0.84020  0.45310  Biso   1.000  H
  H30      1.0000 0.40230  0.84020  0.04690  Biso   1.000  H
  H31      1.0000 0.09770  0.34020  0.45310  Biso   1.000  H
  H32      1.0000 0.90230  0.34020  0.04690  Biso   1.000  H
  Cu1      1.0000 0.37990  0.33520  0.03805  Biso   1.000  Cu
  Cu2      1.0000 0.62010  0.33520  0.46195  Biso   1.000  Cu
  Cu3      1.0000 0.87990  0.83520  0.03805  Biso   1.000  Cu
  Cu4      1.0000 0.12010  0.83520  0.46195  Biso   1.000  Cu
  Cu5      1.0000 0.62010  0.66480  0.96195  Biso   1.000  Cu
  Cu6      1.0000 0.37990  0.66480  0.53805  Biso   1.000  Cu
  Cu7      1.0000 0.12010  0.16480  0.96195  Biso   1.000  Cu
  Cu8      1.0000 0.87990  0.16480  0.53805  Biso   1.000  Cu
  N1       1.0000 0.42780  0.22749  0.07335  Biso   1.000  N
  N2       1.0000 0.57220  0.22749  0.42665  Biso   1.000  N
  N3       1.0000 0.92780  0.72749  0.07335  Biso   1.000  N
  N4       1.0000 0.07220  0.72749  0.42665  Biso   1.000  N
  N5       1.0000 0.57220  0.77251  0.92665  Biso   1.000  N
  N6       1.0000 0.42780  0.77251  0.57335  Biso   1.000  N
  N7       1.0000 0.07220  0.27251  0.92665  Biso   1.000  N
  N8       1.0000 0.92780  0.27251  0.57335  Biso   1.000  N
  N9       1.0000 0.34177  0.19956  0.99621  Biso   1.000  N
  N10      1.0000 0.65823  0.19956  0.50379  Biso   1.000  N
  N11      1.0000 0.84177  0.69956  0.99621  Biso   1.000  N
  N12      1.0000 0.15823  0.69956  0.50379  Biso   1.000  N
  N13      1.0000 0.65823  0.80044  0.00379  Biso   1.000  N
  N14      1.0000 0.34177  0.80044  0.49621  Biso   1.000  N
  N15      1.0000 0.15823  0.30044  0.00379  Biso   1.000  N
  N16      1.0000 0.84177  0.30044  0.49621  Biso   1.000  N
  O17      1.0000 0.33514  0.55993  0.46550  Biso   1.000  O
  O18      1.0000 0.66486  0.55993  0.03450  Biso   1.000  O
  O19      1.0000 0.83514  0.05993  0.46550  Biso   1.000  O
  O20      1.0000 0.16486  0.05993  0.03450  Biso   1.000  O
  O21      1.0000 0.66486  0.44007  0.53450  Biso   1.000  O
  O22      1.0000 0.33514  0.44007  0.96550  Biso   1.000  O
  O23      1.0000 0.16486  0.94007  0.53450  Biso   1.000  O
  O24      1.0000 0.83514  0.94007  0.96550  Biso   1.000  O
  O25      1.0000 0.35140  0.35953  0.16478  Biso   1.000  O
  O26      1.0000 0.64860  0.35953  0.33522  Biso   1.000  O
  O27      1.0000 0.85140  0.85953  0.16478  Biso   1.000  O
  O28      1.0000 0.14860  0.85953  0.33522  Biso   1.000  O
  O29      1.0000 0.64860  0.64047  0.83522  Biso   1.000  O
  O30      1.0000 0.35140  0.64047  0.66478  Biso   1.000  O
  O31      1.0000 0.14860  0.14047  0.83522  Biso   1.000  O
  O32      1.0000 0.85140  0.14047  0.66478  Biso   1.000  O
  C1       1.0000 0.31554  0.33512  0.29331  Biso   1.000  C
  C2       1.0000 0.68446  0.33512  0.20669  Biso   1.000  C
  C3       1.0000 0.81554  0.83512  0.29331  Biso   1.000  C
  C4       1.0000 0.18446  0.83512  0.20669  Biso   1.000  C
  C5       1.0000 0.68446  0.66488  0.70669  Biso   1.000  C
  C6       1.0000 0.31554  0.66488  0.79331  Biso   1.000  C
  C7       1.0000 0.18446  0.16488  0.70669  Biso   1.000  C
  C8       1.0000 0.81554  0.16488  0.79331  Biso   1.000  C
  C9       1.0000 0.41658  0.12443  0.06110  Biso   1.000  C
  C10      1.0000 0.58342  0.12443  0.43890  Biso   1.000  C
  C11      1.0000 0.91658  0.62443  0.06110  Biso   1.000  C
  C12      1.0000 0.08342  0.62443  0.43890  Biso   1.000  C
  C13      1.0000 0.58342  0.87557  0.93890  Biso   1.000  C
  C14      1.0000 0.41658  0.87557  0.56110  Biso   1.000  C
  C15      1.0000 0.08342  0.37557  0.93890  Biso   1.000  C
  C16      1.0000 0.91658  0.37557  0.56110  Biso   1.000  C
  N17      1.0000 0.43709  0.42873  0.07845  Biso   1.000  N
  N18      1.0000 0.56291  0.42873  0.42155  Biso   1.000  N
  N19      1.0000 0.93709  0.92873  0.07845  Biso   1.000  N
  N20      1.0000 0.06291  0.92873  0.42155  Biso   1.000  N
  N21      1.0000 0.56291  0.57127  0.92155  Biso   1.000  N
  N22      1.0000 0.43709  0.57127  0.57845  Biso   1.000  N
  N23      1.0000 0.06291  0.07127  0.92155  Biso   1.000  N
  N24      1.0000 0.93709  0.07127  0.57845  Biso   1.000  N
  C17      1.0000 0.53419  0.99505  0.15333  Biso   1.000  C
  C18      1.0000 0.46581  0.99505  0.34667  Biso   1.000  C
  C19      1.0000 0.03419  0.49505  0.15333  Biso   1.000  C
  C20      1.0000 0.96581  0.49505  0.34667  Biso   1.000  C
  C21      1.0000 0.46581  0.00495  0.84667  Biso   1.000  C
  C22      1.0000 0.53419  0.00495  0.65333  Biso   1.000  C
  C23      1.0000 0.96581  0.50495  0.84667  Biso   1.000  C
  C24      1.0000 0.03419  0.50495  0.65333  Biso   1.000  C
  O33      1.0000 0.36487  0.54079  0.33555  Biso   1.000  O
  O34      1.0000 0.63513  0.54079  0.16445  Biso   1.000  O
  O35      1.0000 0.86487  0.04079  0.33555  Biso   1.000  O
  O36      1.0000 0.13513  0.04079  0.16445  Biso   1.000  O
  O37      1.0000 0.63513  0.45921  0.66445  Biso   1.000  O
  O38      1.0000 0.36487  0.45921  0.83555  Biso   1.000  O
  O39      1.0000 0.13513  0.95921  0.66445  Biso   1.000  O
  O40      1.0000 0.86487  0.95921  0.83555  Biso   1.000  O
  C25      1.0000 0.47187  0.25773  0.10638  Biso   1.000  C
  C26      1.0000 0.52813  0.25773  0.39362  Biso   1.000  C
  C27      1.0000 0.97187  0.75773  0.10638  Biso   1.000  C
  C28      1.0000 0.02813  0.75773  0.39362  Biso   1.000  C
  C29      1.0000 0.52813  0.74227  0.89362  Biso   1.000  C
  C30      1.0000 0.47187  0.74227  0.60638  Biso   1.000  C
  C31      1.0000 0.02813  0.24227  0.89362  Biso   1.000  C
  C32      1.0000 0.97187  0.24227  0.60638  Biso   1.000  C
  C33      1.0000 0.33793  0.51429  0.38254  Biso   1.000  C
  C34      1.0000 0.66207  0.51429  0.11746  Biso   1.000  C
  C35      1.0000 0.83793  0.01429  0.38254  Biso   1.000  C
  C36      1.0000 0.16207  0.01429  0.11746  Biso   1.000  C
  C37      1.0000 0.66207  0.48571  0.61746  Biso   1.000  C
  C38      1.0000 0.33793  0.48571  0.88254  Biso   1.000  C
  C39      1.0000 0.16207  0.98571  0.61746  Biso   1.000  C
  C40      1.0000 0.83793  0.98571  0.88254  Biso   1.000  C
  C41      1.0000 0.50705  0.18402  0.13136  Biso   1.000  C
  C42      1.0000 0.49295  0.18402  0.36864  Biso   1.000  C
  C43      1.0000 0.00705  0.68402  0.13136  Biso   1.000  C
  C44      1.0000 0.99295  0.68402  0.36864  Biso   1.000  C
  C45      1.0000 0.49295  0.81598  0.86864  Biso   1.000  C
  C46      1.0000 0.50705  0.81598  0.63136  Biso   1.000  C
  C47      1.0000 0.99295  0.31598  0.86864  Biso   1.000  C
  C48      1.0000 0.00705  0.31598  0.63136  Biso   1.000  C
  H33      1.0000 0.53760  0.20650  0.15390  Biso   1.000  H
  H34      1.0000 0.46240  0.20650  0.34610  Biso   1.000  H
  H35      1.0000 0.03760  0.70650  0.15390  Biso   1.000  H
  H36      1.0000 0.96240  0.70650  0.34610  Biso   1.000  H
  H37      1.0000 0.46240  0.79350  0.84610  Biso   1.000  H
  H38      1.0000 0.53760  0.79350  0.65390  Biso   1.000  H
  H39      1.0000 0.96240  0.29350  0.84610  Biso   1.000  H
  H40      1.0000 0.03760  0.29350  0.65390  Biso   1.000  H
  O41      1.0000 0.39181  0.28396  0.31398  Biso   1.000  O
  O42      1.0000 0.60819  0.28396  0.18602  Biso   1.000  O
  O43      1.0000 0.89181  0.78396  0.31398  Biso   1.000  O
  O44      1.0000 0.10819  0.78396  0.18602  Biso   1.000  O
  O45      1.0000 0.60819  0.71604  0.68602  Biso   1.000  O
  O46      1.0000 0.39181  0.71604  0.81398  Biso   1.000  O
  O47      1.0000 0.10819  0.21604  0.68602  Biso   1.000  O
  O48      1.0000 0.89181  0.21604  0.81398  Biso   1.000  O
  C49      1.0000 0.49674  0.07533  0.12271  Biso   1.000  C
  C50      1.0000 0.50326  0.07533  0.37729  Biso   1.000  C
  C51      1.0000 0.99674  0.57533  0.12271  Biso   1.000  C
  C52      1.0000 0.00326  0.57533  0.37729  Biso   1.000  C
  C53      1.0000 0.50326  0.92467  0.87729  Biso   1.000  C
  C54      1.0000 0.49674  0.92467  0.62271  Biso   1.000  C
  C55      1.0000 0.00326  0.42467  0.87729  Biso   1.000  C
  C56      1.0000 0.99674  0.42467  0.62271  Biso   1.000  C
  C57      1.0000 0.35729  0.32757  0.25541  Biso   1.000  C
  C58      1.0000 0.64271  0.32757  0.24459  Biso   1.000  C
  C59      1.0000 0.85729  0.82757  0.25541  Biso   1.000  C
  C60      1.0000 0.14271  0.82757  0.24459  Biso   1.000  C
  C61      1.0000 0.64271  0.67243  0.74459  Biso   1.000  C
  C62      1.0000 0.35729  0.67243  0.75541  Biso   1.000  C
  C63      1.0000 0.14271  0.17243  0.74459  Biso   1.000  C
  C64      1.0000 0.85729  0.17243  0.75541  Biso   1.000  C
  C65      1.0000 0.45005  0.04619  0.08567  Biso   1.000  C
  C66      1.0000 0.54995  0.04619  0.41433  Biso   1.000  C
  C67      1.0000 0.95005  0.54619  0.08567  Biso   1.000  C
  C68      1.0000 0.04995  0.54619  0.41433  Biso   1.000  C
  C69      1.0000 0.54995  0.95381  0.91433  Biso   1.000  C
  C70      1.0000 0.45005  0.95381  0.58567  Biso   1.000  C
  C71      1.0000 0.04995  0.45381  0.91433  Biso   1.000  C
  C72      1.0000 0.95005  0.45381  0.58567  Biso   1.000  C
  H41      1.0000 0.44170  0.97480  0.07770  Biso   1.000  H
  H42      1.0000 0.55830  0.97480  0.42230  Biso   1.000  H
  H43      1.0000 0.94170  0.47480  0.07770  Biso   1.000  H
  H44      1.0000 0.05830  0.47480  0.42230  Biso   1.000  H
  H45      1.0000 0.55830  0.02520  0.92230  Biso   1.000  H
  H46      1.0000 0.44170  0.02520  0.57770  Biso   1.000  H
  H47      1.0000 0.05830  0.52520  0.92230  Biso   1.000  H
  H48      1.0000 0.94170  0.52520  0.57770  Biso   1.000  H
  C73      1.0000 0.58026  0.02562  0.18559  Biso   1.000  C
  C74      1.0000 0.41974  0.02562  0.31441  Biso   1.000  C
  C75      1.0000 0.08026  0.52562  0.18559  Biso   1.000  C
  C76      1.0000 0.91974  0.52562  0.31441  Biso   1.000  C
  C77      1.0000 0.41974  0.97438  0.81441  Biso   1.000  C
  C78      1.0000 0.58026  0.97438  0.68559  Biso   1.000  C
  C79      1.0000 0.91974  0.47438  0.81441  Biso   1.000  C
  C80      1.0000 0.08026  0.47438  0.68559  Biso   1.000  C
  H49      1.0000 0.58770  0.09740  0.18640  Biso   1.000  H
  H50      1.0000 0.41230  0.09740  0.31360  Biso   1.000  H
  H51      1.0000 0.08770  0.59740  0.18640  Biso   1.000  H
  H52      1.0000 0.91230  0.59740  0.31360  Biso   1.000  H
  H53      1.0000 0.41230  0.90260  0.81360  Biso   1.000  H
  H54      1.0000 0.58770  0.90260  0.68640  Biso   1.000  H
  H55      1.0000 0.91230  0.40260  0.81360  Biso   1.000  H
  H56      1.0000 0.08770  0.40260  0.68640  Biso   1.000  H
  C81      1.0000 0.30573  0.42145  0.34811  Biso   1.000  C
  C82      1.0000 0.69427  0.42145  0.15189  Biso   1.000  C
  C83      1.0000 0.80573  0.92145  0.34811  Biso   1.000  C
  C84      1.0000 0.19427  0.92145  0.15189  Biso   1.000  C
  C85      1.0000 0.69427  0.57855  0.65189  Biso   1.000  C
  C86      1.0000 0.30573  0.57855  0.84811  Biso   1.000  C
  C87      1.0000 0.19427  0.07855  0.65189  Biso   1.000  C
  C88      1.0000 0.80573  0.07855  0.84811  Biso   1.000  C
  C89      1.0000 0.27257  0.09880  0.93674  Biso   1.000  C
  C90      1.0000 0.72743  0.09880  0.56326  Biso   1.000  C
  C91      1.0000 0.77257  0.59880  0.93674  Biso   1.000  C
  C92      1.0000 0.22743  0.59880  0.56326  Biso   1.000  C
  C93      1.0000 0.72743  0.90120  0.06326  Biso   1.000  C
  C94      1.0000 0.27257  0.90120  0.43674  Biso   1.000  C
  C95      1.0000 0.22743  0.40120  0.06326  Biso   1.000  C
  C96      1.0000 0.77257  0.40120  0.43674  Biso   1.000  C
  H57      1.0000 0.24060  0.09730  0.90960  Biso   1.000  H
  H58      1.0000 0.75940  0.09730  0.59040  Biso   1.000  H
  H59      1.0000 0.74060  0.59730  0.90960  Biso   1.000  H
  H60      1.0000 0.25940  0.59730  0.59040  Biso   1.000  H
  H61      1.0000 0.75940  0.90270  0.09040  Biso   1.000  H
  H62      1.0000 0.24060  0.90270  0.40960  Biso   1.000  H
  H63      1.0000 0.25940  0.40270  0.09040  Biso   1.000  H
  H64      1.0000 0.74060  0.40270  0.40960  Biso   1.000  H
  C97      1.0000 0.47735  0.37424  0.11041  Biso   1.000  C
  C98      1.0000 0.52265  0.37424  0.38959  Biso   1.000  C
  C99      1.0000 0.97735  0.87424  0.11041  Biso   1.000  C
  C100     1.0000 0.02265  0.87424  0.38959  Biso   1.000  C
  C101     1.0000 0.52265  0.62576  0.88959  Biso   1.000  C
  C102     1.0000 0.47735  0.62576  0.61041  Biso   1.000  C
  C103     1.0000 0.02265  0.12576  0.88959  Biso   1.000  C
  C104     1.0000 0.97735  0.12576  0.61041  Biso   1.000  C
  C105     1.0000 0.51952  0.42506  0.14100  Biso   1.000  C
  C106     1.0000 0.48048  0.42506  0.35900  Biso   1.000  C
  C107     1.0000 0.01952  0.92506  0.14100  Biso   1.000  C
  C108     1.0000 0.98048  0.92506  0.35900  Biso   1.000  C
  C109     1.0000 0.48048  0.57494  0.85900  Biso   1.000  C
  C110     1.0000 0.51952  0.57494  0.64100  Biso   1.000  C
  C111     1.0000 0.98048  0.07494  0.85900  Biso   1.000  C
  C112     1.0000 0.01952  0.07494  0.64100  Biso   1.000  C
  H65      1.0000 0.54670  0.38610  0.16280  Biso   1.000  H
  H66      1.0000 0.45330  0.38610  0.33720  Biso   1.000  H
  H67      1.0000 0.04670  0.88610  0.16280  Biso   1.000  H
  H68      1.0000 0.95330  0.88610  0.33720  Biso   1.000  H
  H69      1.0000 0.45330  0.61390  0.83720  Biso   1.000  H
  H70      1.0000 0.54670  0.61390  0.66280  Biso   1.000  H
  H71      1.0000 0.95330  0.11390  0.83720  Biso   1.000  H
  H72      1.0000 0.04670  0.11390  0.66280  Biso   1.000  H
  C113     1.0000 0.29753  0.00576  0.95792  Biso   1.000  C
  C114     1.0000 0.70247  0.00576  0.54208  Biso   1.000  C
  C115     1.0000 0.79753  0.50576  0.95792  Biso   1.000  C
  C116     1.0000 0.20247  0.50576  0.54208  Biso   1.000  C
  C117     1.0000 0.70247  0.99424  0.04208  Biso   1.000  C
  C118     1.0000 0.29753  0.99424  0.45792  Biso   1.000  C
  C119     1.0000 0.20247  0.49424  0.04208  Biso   1.000  C
  C120     1.0000 0.79753  0.49424  0.45792  Biso   1.000  C
  H73      1.0000 0.28260  0.94050  0.94400  Biso   1.000  H
  H74      1.0000 0.71740  0.94050  0.55600  Biso   1.000  H
  H75      1.0000 0.78260  0.44050  0.94400  Biso   1.000  H
  H76      1.0000 0.21740  0.44050  0.55600  Biso   1.000  H
  H77      1.0000 0.71740  0.05950  0.05600  Biso   1.000  H
  H78      1.0000 0.28260  0.05950  0.44400  Biso   1.000  H
  H79      1.0000 0.21740  0.55950  0.05600  Biso   1.000  H
  H80      1.0000 0.78260  0.55950  0.44400  Biso   1.000  H
  C121     1.0000 0.28607  0.24764  0.27262  Biso   1.000  C
  C122     1.0000 0.71393  0.24764  0.22738  Biso   1.000  C
  C123     1.0000 0.78607  0.74764  0.27262  Biso   1.000  C
  C124     1.0000 0.21393  0.74764  0.22738  Biso   1.000  C
  C125     1.0000 0.71393  0.75236  0.72738  Biso   1.000  C
  C126     1.0000 0.28607  0.75236  0.77262  Biso   1.000  C
  C127     1.0000 0.21393  0.25236  0.72738  Biso   1.000  C
  C128     1.0000 0.78607  0.25236  0.77262  Biso   1.000  C
  H81      1.0000 0.29290  0.18960  0.23740  Biso   1.000  H
  H82      1.0000 0.70710  0.18960  0.26260  Biso   1.000  H
  H83      1.0000 0.79290  0.68960  0.23740  Biso   1.000  H
  H84      1.0000 0.20710  0.68960  0.26260  Biso   1.000  H
  H85      1.0000 0.70710  0.81040  0.76260  Biso   1.000  H
  H86      1.0000 0.29290  0.81040  0.73740  Biso   1.000  H
  H87      1.0000 0.20710  0.31040  0.76260  Biso   1.000  H
  H88      1.0000 0.79290  0.31040  0.73740  Biso   1.000  H
  C129     1.0000 0.29600  0.19455  0.95677  Biso   1.000  C
  C130     1.0000 0.70400  0.19455  0.54323  Biso   1.000  C
  C131     1.0000 0.79600  0.69455  0.95677  Biso   1.000  C
  C132     1.0000 0.20400  0.69455  0.54323  Biso   1.000  C
  C133     1.0000 0.70400  0.80545  0.04323  Biso   1.000  C
  C134     1.0000 0.29600  0.80545  0.45677  Biso   1.000  C
  C135     1.0000 0.20400  0.30545  0.04323  Biso   1.000  C
  C136     1.0000 0.79600  0.30545  0.45677  Biso   1.000  C
  H89      1.0000 0.27930  0.25750  0.94220  Biso   1.000  H
  H90      1.0000 0.72070  0.25750  0.55780  Biso   1.000  H
  H91      1.0000 0.77930  0.75750  0.94220  Biso   1.000  H
  H92      1.0000 0.22070  0.75750  0.55780  Biso   1.000  H
  H93      1.0000 0.72070  0.74250  0.05780  Biso   1.000  H
  H94      1.0000 0.27930  0.74250  0.44220  Biso   1.000  H
  H95      1.0000 0.22070  0.24250  0.05780  Biso   1.000  H
  H96      1.0000 0.77930  0.24250  0.44220  Biso   1.000  H
  C137     1.0000 0.36599  0.10811  0.01822  Biso   1.000  C
  C138     1.0000 0.63401  0.10811  0.48178  Biso   1.000  C
  C139     1.0000 0.86599  0.60811  0.01822  Biso   1.000  C
  C140     1.0000 0.13401  0.60811  0.48178  Biso   1.000  C
  C141     1.0000 0.63401  0.89189  0.98178  Biso   1.000  C
  C142     1.0000 0.36599  0.89189  0.51822  Biso   1.000  C
  C143     1.0000 0.13401  0.39189  0.98178  Biso   1.000  C
  C144     1.0000 0.86599  0.39189  0.51822  Biso   1.000  C
  C145     1.0000 0.26552  0.41830  0.37729  Biso   1.000  C
  C146     1.0000 0.73448  0.41830  0.12271  Biso   1.000  C
  C147     1.0000 0.76552  0.91830  0.37729  Biso   1.000  C
  C148     1.0000 0.23448  0.91830  0.12271  Biso   1.000  C
  C149     1.0000 0.73448  0.58170  0.62271  Biso   1.000  C
  C150     1.0000 0.26552  0.58170  0.87729  Biso   1.000  C
  C151     1.0000 0.23448  0.08170  0.62271  Biso   1.000  C
  C152     1.0000 0.76552  0.08170  0.87729  Biso   1.000  C
  H97      1.0000 0.25820  0.47590  0.41250  Biso   1.000  H
  H98      1.0000 0.74180  0.47590  0.08750  Biso   1.000  H
  H99      1.0000 0.75820  0.97590  0.41250  Biso   1.000  H
  H100     1.0000 0.24180  0.97590  0.08750  Biso   1.000  H
  H101     1.0000 0.74180  0.52410  0.58750  Biso   1.000  H
  H102     1.0000 0.25820  0.52410  0.91250  Biso   1.000  H
  H103     1.0000 0.24180  0.02410  0.58750  Biso   1.000  H
  H104     1.0000 0.75820  0.02410  0.91250  Biso   1.000  H
  C153     1.0000 0.60553  0.84546  0.21590  Biso   1.000  C
  C154     1.0000 0.39447  0.84546  0.28410  Biso   1.000  C
  C155     1.0000 0.10553  0.34546  0.21590  Biso   1.000  C
  C156     1.0000 0.89447  0.34546  0.28410  Biso   1.000  C
  C157     1.0000 0.39447  0.15454  0.78410  Biso   1.000  C
  C158     1.0000 0.60553  0.15454  0.71590  Biso   1.000  C
  C159     1.0000 0.89447  0.65454  0.78410  Biso   1.000  C
  C160     1.0000 0.10553  0.65454  0.71590  Biso   1.000  C
  H105     1.0000 0.62900  0.79550  0.23710  Biso   1.000  H
  H106     1.0000 0.37100  0.79550  0.26290  Biso   1.000  H
  H107     1.0000 0.12900  0.29550  0.23710  Biso   1.000  H
  H108     1.0000 0.87100  0.29550  0.26290  Biso   1.000  H
  H109     1.0000 0.37100  0.20450  0.76290  Biso   1.000  H
  H110     1.0000 0.62900  0.20450  0.73710  Biso   1.000  H
  H111     1.0000 0.87100  0.70450  0.76290  Biso   1.000  H
  H112     1.0000 0.12900  0.70450  0.73710  Biso   1.000  H
  C161     1.0000 0.34496  0.00983  0.00009  Biso   1.000  C
  C162     1.0000 0.65504  0.00983  0.49991  Biso   1.000  C
  C163     1.0000 0.84496  0.50983  0.00009  Biso   1.000  C
  C164     1.0000 0.15504  0.50983  0.49991  Biso   1.000  C
  C165     1.0000 0.65504  0.99017  0.99991  Biso   1.000  C
  C166     1.0000 0.34496  0.99017  0.50009  Biso   1.000  C
  C167     1.0000 0.15504  0.49017  0.99991  Biso   1.000  C
  C168     1.0000 0.84496  0.49017  0.50009  Biso   1.000  C
  H113     1.0000 0.36230  0.94770  0.01580  Biso   1.000  H
  H114     1.0000 0.63770  0.94770  0.48420  Biso   1.000  H
  H115     1.0000 0.86230  0.44770  0.01580  Biso   1.000  H
  H116     1.0000 0.13770  0.44770  0.48420  Biso   1.000  H
  H117     1.0000 0.63770  0.05230  0.98420  Biso   1.000  H
  H118     1.0000 0.36230  0.05230  0.51580  Biso   1.000  H
  H119     1.0000 0.13770  0.55230  0.98420  Biso   1.000  H
  H120     1.0000 0.86230  0.55230  0.51580  Biso   1.000  H
  C169     1.0000 0.24685  0.24550  0.30339  Biso   1.000  C
  C170     1.0000 0.75315  0.24550  0.19661  Biso   1.000  C
  C171     1.0000 0.74685  0.74550  0.30339  Biso   1.000  C
  C172     1.0000 0.25315  0.74550  0.19661  Biso   1.000  C
  C173     1.0000 0.75315  0.75450  0.69661  Biso   1.000  C
  C174     1.0000 0.24685  0.75450  0.80339  Biso   1.000  C
  C175     1.0000 0.25315  0.25450  0.69661  Biso   1.000  C
  C176     1.0000 0.74685  0.25450  0.80339  Biso   1.000  C
  H121     1.0000 0.22760  0.18640  0.28930  Biso   1.000  H
  H122     1.0000 0.77240  0.18640  0.21070  Biso   1.000  H
  H123     1.0000 0.72760  0.68640  0.28930  Biso   1.000  H
  H124     1.0000 0.27240  0.68640  0.21070  Biso   1.000  H
  H125     1.0000 0.77240  0.81360  0.71070  Biso   1.000  H
  H126     1.0000 0.22760  0.81360  0.78930  Biso   1.000  H
  H127     1.0000 0.27240  0.31360  0.71070  Biso   1.000  H
  H128     1.0000 0.72760  0.31360  0.78930  Biso   1.000  H
  C177     1.0000 0.23636  0.33150  0.35500  Biso   1.000  C
  C178     1.0000 0.76364  0.33150  0.14500  Biso   1.000  C
  C179     1.0000 0.73636  0.83150  0.35500  Biso   1.000  C
  C180     1.0000 0.26364  0.83150  0.14500  Biso   1.000  C
  C181     1.0000 0.76364  0.66850  0.64500  Biso   1.000  C
  C182     1.0000 0.23636  0.66850  0.85500  Biso   1.000  C
  C183     1.0000 0.26364  0.16850  0.64500  Biso   1.000  C
  C184     1.0000 0.73636  0.16850  0.85500  Biso   1.000  C
  H129     1.0000 0.20970  0.33120  0.37480  Biso   1.000  H
  H130     1.0000 0.79030  0.33120  0.12520  Biso   1.000  H
  H131     1.0000 0.70970  0.83120  0.37480  Biso   1.000  H
  H132     1.0000 0.29030  0.83120  0.12520  Biso   1.000  H
  H133     1.0000 0.79030  0.66880  0.62520  Biso   1.000  H
  H134     1.0000 0.20970  0.66880  0.87480  Biso   1.000  H
  H135     1.0000 0.29030  0.16880  0.62520  Biso   1.000  H
  H136     1.0000 0.70970  0.16880  0.87480  Biso   1.000  H
  C185     1.0000 0.61534  0.95120  0.21660  Biso   1.000  C
  C186     1.0000 0.38466  0.95120  0.28340  Biso   1.000  C
  C187     1.0000 0.11534  0.45120  0.21660  Biso   1.000  C
  C188     1.0000 0.88466  0.45120  0.28340  Biso   1.000  C
  C189     1.0000 0.38466  0.04880  0.78340  Biso   1.000  C
  C190     1.0000 0.61534  0.04880  0.71660  Biso   1.000  C
  C191     1.0000 0.88466  0.54880  0.78340  Biso   1.000  C
  C192     1.0000 0.11534  0.54880  0.71660  Biso   1.000  C
  H137     1.0000 0.64590  0.97370  0.23810  Biso   1.000  H
  H138     1.0000 0.35410  0.97370  0.26190  Biso   1.000  H
  H139     1.0000 0.14590  0.47370  0.23810  Biso   1.000  H
  H140     1.0000 0.85410  0.47370  0.26190  Biso   1.000  H
  H141     1.0000 0.35410  0.02630  0.76190  Biso   1.000  H
  H142     1.0000 0.64590  0.02630  0.73810  Biso   1.000  H
  H143     1.0000 0.85410  0.52630  0.76190  Biso   1.000  H
  H144     1.0000 0.14590  0.52630  0.73810  Biso   1.000  H
  C193     1.0000 0.43879  0.53468  0.07720  Biso   1.000  C
  C194     1.0000 0.56121  0.53468  0.42280  Biso   1.000  C
  C195     1.0000 0.93879  0.03468  0.07720  Biso   1.000  C
  C196     1.0000 0.06121  0.03468  0.42280  Biso   1.000  C
  C197     1.0000 0.56121  0.46532  0.92280  Biso   1.000  C
  C198     1.0000 0.43879  0.46532  0.57720  Biso   1.000  C
  C199     1.0000 0.06121  0.96532  0.92280  Biso   1.000  C
  C200     1.0000 0.93879  0.96532  0.57720  Biso   1.000  C
  H145     1.0000 0.41130  0.57240  0.05570  Biso   1.000  H
  H146     1.0000 0.58870  0.57240  0.44430  Biso   1.000  H
  H147     1.0000 0.91130  0.07240  0.05570  Biso   1.000  H
  H148     1.0000 0.08870  0.07240  0.44430  Biso   1.000  H
  H149     1.0000 0.58870  0.42760  0.94430  Biso   1.000  H
  H150     1.0000 0.41130  0.42760  0.55570  Biso   1.000  H
  H151     1.0000 0.08870  0.92760  0.94430  Biso   1.000  H
  H152     1.0000 0.91130  0.92760  0.55570  Biso   1.000  H
  C201     1.0000 0.52482  0.88774  0.15250  Biso   1.000  C
  C202     1.0000 0.47518  0.88774  0.34750  Biso   1.000  C
  C203     1.0000 0.02482  0.38774  0.15250  Biso   1.000  C
  C204     1.0000 0.97518  0.38774  0.34750  Biso   1.000  C
  C205     1.0000 0.47518  0.11226  0.84750  Biso   1.000  C
  C206     1.0000 0.52482  0.11226  0.65250  Biso   1.000  C
  C207     1.0000 0.97518  0.61226  0.84750  Biso   1.000  C
  C208     1.0000 0.02482  0.61226  0.65250  Biso   1.000  C
  H153     1.0000 0.49440  0.86450  0.13100  Biso   1.000  H
  H154     1.0000 0.50560  0.86450  0.36900  Biso   1.000  H
  H155     1.0000 0.99440  0.36450  0.13100  Biso   1.000  H
  H156     1.0000 0.00560  0.36450  0.36900  Biso   1.000  H
  H157     1.0000 0.50560  0.13550  0.86900  Biso   1.000  H
  H158     1.0000 0.49440  0.13550  0.63100  Biso   1.000  H
  H159     1.0000 0.00560  0.63550  0.86900  Biso   1.000  H
  H160     1.0000 0.99440  0.63550  0.63100  Biso   1.000  H
  C209     1.0000 0.47947  0.59049  0.10640  Biso   1.000  C
  C210     1.0000 0.52053  0.59049  0.39360  Biso   1.000  C
  C211     1.0000 0.97947  0.09049  0.10640  Biso   1.000  C
  C212     1.0000 0.02053  0.09049  0.39360  Biso   1.000  C
  C213     1.0000 0.52053  0.40951  0.89360  Biso   1.000  C
  C214     1.0000 0.47947  0.40951  0.60640  Biso   1.000  C
  C215     1.0000 0.02053  0.90951  0.89360  Biso   1.000  C
  C216     1.0000 0.97947  0.90951  0.60640  Biso   1.000  C
  H161     1.0000 0.47940  0.66440  0.10450  Biso   1.000  H
  H162     1.0000 0.52060  0.66440  0.39550  Biso   1.000  H
  H163     1.0000 0.97940  0.16440  0.10450  Biso   1.000  H
  H164     1.0000 0.02060  0.16440  0.39550  Biso   1.000  H
  H165     1.0000 0.52060  0.33560  0.89550  Biso   1.000  H
  H166     1.0000 0.47940  0.33560  0.60450  Biso   1.000  H
  H167     1.0000 0.02060  0.83560  0.89550  Biso   1.000  H
  H168     1.0000 0.97940  0.83560  0.60450  Biso   1.000  H
  C217     1.0000 0.56023  0.81410  0.18330  Biso   1.000  C
  C218     1.0000 0.43977  0.81410  0.31670  Biso   1.000  C
  C219     1.0000 0.06023  0.31410  0.18330  Biso   1.000  C
  C220     1.0000 0.93977  0.31410  0.31670  Biso   1.000  C
  C221     1.0000 0.43977  0.18590  0.81670  Biso   1.000  C
  C222     1.0000 0.56023  0.18590  0.68330  Biso   1.000  C
  C223     1.0000 0.93977  0.68590  0.81670  Biso   1.000  C
  C224     1.0000 0.06023  0.68590  0.68330  Biso   1.000  C
  H169     1.0000 0.55320  0.74210  0.18190  Biso   1.000  H
  H170     1.0000 0.44680  0.74210  0.31810  Biso   1.000  H
  H171     1.0000 0.05320  0.24210  0.18190  Biso   1.000  H
  H172     1.0000 0.94680  0.24210  0.31810  Biso   1.000  H
  H173     1.0000 0.44680  0.25790  0.81810  Biso   1.000  H
  H174     1.0000 0.55320  0.25790  0.68190  Biso   1.000  H
  H175     1.0000 0.94680  0.75790  0.81810  Biso   1.000  H
  H176     1.0000 0.05320  0.75790  0.68190  Biso   1.000  H
  C225     1.0000 0.52059  0.53497  0.13870  Biso   1.000  C
  C226     1.0000 0.47941  0.53497  0.36130  Biso   1.000  C
  C227     1.0000 0.02059  0.03497  0.13870  Biso   1.000  C
  C228     1.0000 0.97941  0.03497  0.36130  Biso   1.000  C
  C229     1.0000 0.47941  0.46503  0.86130  Biso   1.000  C
  C230     1.0000 0.52059  0.46503  0.63870  Biso   1.000  C
  C231     1.0000 0.97941  0.96503  0.86130  Biso   1.000  C
  C232     1.0000 0.02059  0.96503  0.63870  Biso   1.000  C
  H177     1.0000 0.54850  0.57110  0.15860  Biso   1.000  H
  H178     1.0000 0.45150  0.57110  0.34140  Biso   1.000  H
  H179     1.0000 0.04850  0.07110  0.15860  Biso   1.000  H
  H180     1.0000 0.95150  0.07110  0.34140  Biso   1.000  H
  H181     1.0000 0.45150  0.42890  0.84140  Biso   1.000  H
  H182     1.0000 0.54850  0.42890  0.65860  Biso   1.000  H
  H183     1.0000 0.95150  0.92890  0.84140  Biso   1.000  H
  H184     1.0000 0.04850  0.92890  0.65860  Biso   1.000  H
