data_image0
_cell_length_a       7.0888
_cell_length_b       8.059
_cell_length_c       12.0399
_cell_angle_alpha    106.303
_cell_angle_beta     97.692
_cell_angle_gamma    97.118

_symmetry_space_group_name_H-M    "P 1"
_symmetry_int_tables_number       1

loop_
  _symmetry_equiv_pos_as_xyz
  'x, y, z'

loop_
  _atom_site_label
  _atom_site_occupancy
  _atom_site_fract_x
  _atom_site_fract_y
  _atom_site_fract_z
  _atom_site_thermal_displace_type
  _atom_site_B_iso_or_equiv
  _atom_site_type_symbol
  Cu1      1.0000 0.00000  0.00000  0.00000  Biso   1.000  Cu
  O1       1.0000 0.09850  0.21120  0.13480  Biso   1.000  O
  O2       1.0000 0.90150  0.78880  0.86520  Biso   1.000  O
  O3       1.0000 0.98440  0.01260  0.21410  Biso   1.000  O
  O4       1.0000 0.01560  0.98740  0.78590  Biso   1.000  O
  C1       1.0000 0.07180  0.16240  0.22350  Biso   1.000  C
  C2       1.0000 0.92820  0.83760  0.77650  Biso   1.000  C
  C3       1.0000 0.14530  0.29420  0.34250  Biso   1.000  C
  C4       1.0000 0.85470  0.70580  0.65750  Biso   1.000  C
  C5       1.0000 0.11780  0.24960  0.44320  Biso   1.000  C
  C6       1.0000 0.88220  0.75040  0.55680  Biso   1.000  C
  H1       1.0000 0.05520  0.13640  0.43620  Biso   1.000  H
  H2       1.0000 0.94480  0.86360  0.56380  Biso   1.000  H
  C7       1.0000 0.18090  0.36940  0.55350  Biso   1.000  C
  C8       1.0000 0.81910  0.63060  0.44650  Biso   1.000  C
  C9       1.0000 0.15320  0.31780  0.66090  Biso   1.000  C
  C10      1.0000 0.84680  0.68220  0.33910  Biso   1.000  C
  O5       1.0000 0.04990  0.16150  0.63550  Biso   1.000  O
  O6       1.0000 0.95010  0.83850  0.36450  Biso   1.000  O
  H3       1.0000 0.03700  0.11800  0.70100  Biso   1.000  H
  H4       1.0000 0.96300  0.88200  0.29900  Biso   1.000  H
  O7       1.0000 0.21720  0.40950  0.76060  Biso   1.000  O
  O8       1.0000 0.78280  0.59050  0.23940  Biso   1.000  O
  C11      1.0000 0.26710  0.53840  0.56520  Biso   1.000  C
  C12      1.0000 0.73290  0.46160  0.43480  Biso   1.000  C
  H5       1.0000 0.30880  0.62040  0.64010  Biso   1.000  H
  H6       1.0000 0.69120  0.37960  0.35990  Biso   1.000  H
  C13      1.0000 0.29130  0.58580  0.46460  Biso   1.000  C
  C14      1.0000 0.70870  0.41420  0.53540  Biso   1.000  C
  C15      1.0000 0.38040  0.76920  0.47910  Biso   1.000  C
  C16      1.0000 0.61960  0.23080  0.52090  Biso   1.000  C
  C17      1.0000 0.23220  0.46410  0.35460  Biso   1.000  C
  C18      1.0000 0.76780  0.53590  0.64540  Biso   1.000  C
  H7       1.0000 0.25110  0.49670  0.28730  Biso   1.000  H
  H8       1.0000 0.74890  0.50330  0.71270  Biso   1.000  H
  O9       1.0000 0.42310  0.80130  0.38600  Biso   1.000  O
  O10      1.0000 0.57690  0.19870  0.61400  Biso   1.000  O
  H9       1.0000 0.49000  0.91800  0.39900  Biso   1.000  H
  H10      1.0000 0.51000  0.08200  0.60100  Biso   1.000  H
  O11      1.0000 0.41060  0.88030  0.57770  Biso   1.000  O
  O12      1.0000 0.58940  0.11970  0.42230  Biso   1.000  O
  N1       1.0000 0.76130  0.09800  0.97060  Biso   1.000  N
  N2       1.0000 0.23870  0.90200  0.02940  Biso   1.000  N
  N3       1.0000 0.61100  0.01600  0.87730  Biso   1.000  N
  N4       1.0000 0.38900  0.98400  0.12270  Biso   1.000  N
  C19      1.0000 0.48810  0.12320  0.88410  Biso   1.000  C
  C20      1.0000 0.51190  0.87680  0.11590  Biso   1.000  C
  H11      1.0000 0.37080  0.10140  0.83160  Biso   1.000  H
  H12      1.0000 0.62920  0.89860  0.16840  Biso   1.000  H
  N5       1.0000 0.54990  0.27140  0.97670  Biso   1.000  N
  N6       1.0000 0.45010  0.72860  0.02330  Biso   1.000  N
  C21      1.0000 0.72120  0.24950  0.02820  Biso   1.000  C
  C22      1.0000 0.27880  0.75050  0.97180  Biso   1.000  C
  H13      1.0000 0.80020  0.33050  0.09520  Biso   1.000  H
  H14      1.0000 0.19980  0.66950  0.90480  Biso   1.000  H
  C23      1.0000 0.45070  0.42150  0.01490  Biso   1.000  C
  C24      1.0000 0.54930  0.57850  0.98510  Biso   1.000  C
  H15      1.0000 0.45380  0.45180  0.10000  Biso   1.000  H
  H16      1.0000 0.54620  0.54820  0.90000  Biso   1.000  H
  H17      1.0000 0.31530  0.39060  0.97560  Biso   1.000  H
  H18      1.0000 0.68470  0.60940  0.02440  Biso   1.000  H
