data_image0
_cell_length_a       9.7355
_cell_length_b       9.2386
_cell_length_c       15.7272
_cell_angle_alpha    90
_cell_angle_beta     97.802
_cell_angle_gamma    90

_symmetry_space_group_name_H-M    "P 1"
_symmetry_int_tables_number       1

loop_
  _symmetry_equiv_pos_as_xyz
  'x, y, z'

loop_
  _atom_site_label
  _atom_site_occupancy
  _atom_site_fract_x
  _atom_site_fract_y
  _atom_site_fract_z
  _atom_site_thermal_displace_type
  _atom_site_B_iso_or_equiv
  _atom_site_type_symbol
  Cu1      1.0000 0.22511  0.45785  0.40848  Biso   1.000  Cu
  Cu2      1.0000 0.77489  0.95785  0.09152  Biso   1.000  Cu
  Cu3      1.0000 0.77489  0.54215  0.59152  Biso   1.000  Cu
  Cu4      1.0000 0.22511  0.04215  0.90848  Biso   1.000  Cu
  Cu5      1.0000 0.54997  0.41123  0.42467  Biso   1.000  Cu
  Cu6      1.0000 0.45003  0.91123  0.07533  Biso   1.000  Cu
  Cu7      1.0000 0.45003  0.58877  0.57533  Biso   1.000  Cu
  Cu8      1.0000 0.54997  0.08877  0.92467  Biso   1.000  Cu
  O1       1.0000 0.37160  0.43240  0.50299  Biso   1.000  O
  O2       1.0000 0.62840  0.93240  0.99701  Biso   1.000  O
  O3       1.0000 0.62840  0.56760  0.49701  Biso   1.000  O
  O4       1.0000 0.37160  0.06760  0.00299  Biso   1.000  O
  H1       1.0000 0.35600  0.37000  0.52900  Biso   1.000  H
  H2       1.0000 0.64400  0.87000  0.97100  Biso   1.000  H
  H3       1.0000 0.64400  0.63000  0.47100  Biso   1.000  H
  H4       1.0000 0.35600  0.13000  0.02900  Biso   1.000  H
  N1       1.0000 0.19680  0.65170  0.45443  Biso   1.000  N
  N2       1.0000 0.80320  0.15170  0.04557  Biso   1.000  N
  N3       1.0000 0.80320  0.34830  0.54557  Biso   1.000  N
  N4       1.0000 0.19680  0.84830  0.95443  Biso   1.000  N
  N5       1.0000 0.29200  0.70900  0.51770  Biso   1.000  N
  N6       1.0000 0.70800  0.20900  0.98230  Biso   1.000  N
  N7       1.0000 0.70800  0.29100  0.48230  Biso   1.000  N
  N8       1.0000 0.29200  0.79100  0.01770  Biso   1.000  N
  N9       1.0000 0.13840  0.87330  0.47682  Biso   1.000  N
  N10      1.0000 0.86160  0.37330  0.02318  Biso   1.000  N
  N11      1.0000 0.86160  0.12670  0.52318  Biso   1.000  N
  N12      1.0000 0.13840  0.62670  0.97682  Biso   1.000  N
  C1       1.0000 0.10560  0.75220  0.43100  Biso   1.000  C
  C2       1.0000 0.89440  0.25220  0.06900  Biso   1.000  C
  C3       1.0000 0.89440  0.24780  0.56900  Biso   1.000  C
  C4       1.0000 0.10560  0.74780  0.93100  Biso   1.000  C
  H5       1.0000 0.02840  0.74160  0.38850  Biso   1.000  H
  H6       1.0000 0.97160  0.24160  0.11150  Biso   1.000  H
  H7       1.0000 0.97160  0.25840  0.61150  Biso   1.000  H
  H8       1.0000 0.02840  0.75840  0.88850  Biso   1.000  H
  C5       1.0000 0.25370  0.84140  0.53070  Biso   1.000  C
  C6       1.0000 0.74630  0.34140  0.96930  Biso   1.000  C
  C7       1.0000 0.74630  0.15860  0.46930  Biso   1.000  C
  C8       1.0000 0.25370  0.65860  0.03070  Biso   1.000  C
  H9       1.0000 0.29970  0.90500  0.57160  Biso   1.000  H
  H10      1.0000 0.70030  0.40500  0.92840  Biso   1.000  H
  H11      1.0000 0.70030  0.09500  0.42840  Biso   1.000  H
  H12      1.0000 0.29970  0.59500  0.07160  Biso   1.000  H
  C9       1.0000 0.05950  0.00830  0.47370  Biso   1.000  C
  C10      1.0000 0.94050  0.50830  0.02630  Biso   1.000  C
  C11      1.0000 0.94050  0.99170  0.52630  Biso   1.000  C
  C12      1.0000 0.05950  0.49170  0.97370  Biso   1.000  C
  H13      1.0000 0.02310  0.03140  0.41410  Biso   1.000  H
  H14      1.0000 0.97690  0.53140  0.08590  Biso   1.000  H
  H15      1.0000 0.97690  0.96860  0.58590  Biso   1.000  H
  H16      1.0000 0.02310  0.46860  0.91410  Biso   1.000  H
  H17      1.0000 0.12010  0.08770  0.49680  Biso   1.000  H
  H18      1.0000 0.87990  0.58770  0.00320  Biso   1.000  H
  H19      1.0000 0.87990  0.91230  0.50320  Biso   1.000  H
  H20      1.0000 0.12010  0.41230  0.99680  Biso   1.000  H
  O5       1.0000 0.25560  0.27220  0.35961  Biso   1.000  O
  O6       1.0000 0.74440  0.77220  0.14039  Biso   1.000  O
  O7       1.0000 0.74440  0.72780  0.64039  Biso   1.000  O
  O8       1.0000 0.25560  0.22780  0.85961  Biso   1.000  O
  O9       1.0000 0.48370  0.23100  0.36973  Biso   1.000  O
  O10      1.0000 0.51630  0.73100  0.13027  Biso   1.000  O
  O11      1.0000 0.51630  0.76900  0.63027  Biso   1.000  O
  O12      1.0000 0.48370  0.26900  0.86973  Biso   1.000  O
  O13      1.0000 0.93800  0.97690  0.17667  Biso   1.000  O
  O14      1.0000 0.06200  0.47690  0.32333  Biso   1.000  O
  O15      1.0000 0.06200  0.02310  0.82333  Biso   1.000  O
  O16      1.0000 0.93800  0.52310  0.67667  Biso   1.000  O
  O17      1.0000 0.02550  0.79590  0.10684  Biso   1.000  O
  O18      1.0000 0.97450  0.29590  0.39316  Biso   1.000  O
  O19      1.0000 0.97450  0.20410  0.89316  Biso   1.000  O
  O20      1.0000 0.02550  0.70410  0.60684  Biso   1.000  O
  O21      1.0000 0.42850  0.54740  0.34517  Biso   1.000  O
  O22      1.0000 0.57150  0.04740  0.15483  Biso   1.000  O
  O23      1.0000 0.57150  0.45260  0.65483  Biso   1.000  O
  O24      1.0000 0.42850  0.95260  0.84517  Biso   1.000  O
  O25      1.0000 0.60180  0.70550  0.34695  Biso   1.000  O
  O26      1.0000 0.39820  0.20550  0.15305  Biso   1.000  O
  O27      1.0000 0.39820  0.29450  0.65305  Biso   1.000  O
  O28      1.0000 0.60180  0.79450  0.84695  Biso   1.000  O
  C13      1.0000 0.35850  0.19530  0.35210  Biso   1.000  C
  C14      1.0000 0.64150  0.69530  0.14790  Biso   1.000  C
  C15      1.0000 0.64150  0.80470  0.64790  Biso   1.000  C
  C16      1.0000 0.35850  0.30470  0.85210  Biso   1.000  C
  C17      1.0000 0.32410  0.04710  0.31740  Biso   1.000  C
  C18      1.0000 0.67590  0.54710  0.18260  Biso   1.000  C
  C19      1.0000 0.67590  0.95290  0.68260  Biso   1.000  C
  C20      1.0000 0.32410  0.45290  0.81740  Biso   1.000  C
  C21      1.0000 0.19760  0.02680  0.26680  Biso   1.000  C
  C22      1.0000 0.80240  0.52680  0.23320  Biso   1.000  C
  C23      1.0000 0.80240  0.97320  0.73320  Biso   1.000  C
  C24      1.0000 0.19760  0.47320  0.76680  Biso   1.000  C
  H21      1.0000 0.13470  0.10420  0.25760  Biso   1.000  H
  H22      1.0000 0.86530  0.60420  0.24240  Biso   1.000  H
  H23      1.0000 0.86530  0.89580  0.74240  Biso   1.000  H
  H24      1.0000 0.13470  0.39580  0.75760  Biso   1.000  H
  C25      1.0000 0.16300  0.89310  0.22970  Biso   1.000  C
  C26      1.0000 0.83700  0.39310  0.27030  Biso   1.000  C
  C27      1.0000 0.83700  0.10690  0.77030  Biso   1.000  C
  C28      1.0000 0.16300  0.60690  0.72970  Biso   1.000  C
  C29      1.0000 0.03340  0.88330  0.16580  Biso   1.000  C
  C30      1.0000 0.96660  0.38330  0.33420  Biso   1.000  C
  C31      1.0000 0.96660  0.11670  0.83420  Biso   1.000  C
  C32      1.0000 0.03340  0.61670  0.66580  Biso   1.000  C
  C33      1.0000 0.25170  0.77490  0.24980  Biso   1.000  C
  C34      1.0000 0.74830  0.27490  0.25020  Biso   1.000  C
  C35      1.0000 0.74830  0.22510  0.75020  Biso   1.000  C
  C36      1.0000 0.25170  0.72510  0.74980  Biso   1.000  C
  H25      1.0000 0.22720  0.68310  0.22680  Biso   1.000  H
  H26      1.0000 0.77280  0.18310  0.27320  Biso   1.000  H
  H27      1.0000 0.77280  0.31690  0.77320  Biso   1.000  H
  H28      1.0000 0.22720  0.81690  0.72680  Biso   1.000  H
  C37      1.0000 0.37650  0.79340  0.30390  Biso   1.000  C
  C38      1.0000 0.62350  0.29340  0.19610  Biso   1.000  C
  C39      1.0000 0.62350  0.20660  0.69610  Biso   1.000  C
  C40      1.0000 0.37650  0.70660  0.80390  Biso   1.000  C
  C41      1.0000 0.47690  0.67370  0.33240  Biso   1.000  C
  C42      1.0000 0.52310  0.17370  0.16760  Biso   1.000  C
  C43      1.0000 0.52310  0.32630  0.66760  Biso   1.000  C
  C44      1.0000 0.47690  0.82630  0.83240  Biso   1.000  C
  C45      1.0000 0.41380  0.93190  0.33420  Biso   1.000  C
  C46      1.0000 0.58620  0.43190  0.16580  Biso   1.000  C
  C47      1.0000 0.58620  0.06810  0.66580  Biso   1.000  C
  C48      1.0000 0.41380  0.56810  0.83420  Biso   1.000  C
  H29      1.0000 0.50130  0.94680  0.36640  Biso   1.000  H
  H30      1.0000 0.49870  0.44680  0.13360  Biso   1.000  H
  H31      1.0000 0.49870  0.05320  0.63360  Biso   1.000  H
  H32      1.0000 0.50130  0.55320  0.86640  Biso   1.000  H
  O29      1.0000 0.81780  0.89810  0.33490  Biso   1.000  O
  O30      1.0000 0.18220  0.39810  0.16510  Biso   1.000  O
  O31      1.0000 0.18220  0.10190  0.66510  Biso   1.000  O
  O32      1.0000 0.81780  0.60190  0.83490  Biso   1.000  O
  H33      1.0000 0.75400  0.84500  0.33300  Biso   1.000  H
  H34      1.0000 0.24600  0.34500  0.16700  Biso   1.000  H
  H35      1.0000 0.24600  0.15500  0.66700  Biso   1.000  H
  H36      1.0000 0.75400  0.65500  0.83300  Biso   1.000  H
  H37      1.0000 0.83700  0.92100  0.29200  Biso   1.000  H
  H38      1.0000 0.16300  0.42100  0.20800  Biso   1.000  H
  H39      1.0000 0.16300  0.07900  0.70800  Biso   1.000  H
  H40      1.0000 0.83700  0.57900  0.79200  Biso   1.000  H
