data_image0
_cell_length_a       10.0069
_cell_length_b       11.7324
_cell_length_c       17.9975
_cell_angle_alpha    90
_cell_angle_beta     95.366
_cell_angle_gamma    90

_symmetry_space_group_name_H-M    "P 1"
_symmetry_int_tables_number       1

loop_
  _symmetry_equiv_pos_as_xyz
  'x, y, z'

loop_
  _atom_site_label
  _atom_site_occupancy
  _atom_site_fract_x
  _atom_site_fract_y
  _atom_site_fract_z
  _atom_site_thermal_displace_type
  _atom_site_B_iso_or_equiv
  _atom_site_type_symbol
  Cu1      1.0000 0.64299  0.86511  0.02905  Biso   1.000  Cu
  Cu2      1.0000 0.35701  0.36511  0.47095  Biso   1.000  Cu
  Cu3      1.0000 0.35701  0.13489  0.97095  Biso   1.000  Cu
  Cu4      1.0000 0.64299  0.63489  0.52905  Biso   1.000  Cu
  Cu5      1.0000 0.89377  0.02348  0.11036  Biso   1.000  Cu
  Cu6      1.0000 0.10623  0.52348  0.38964  Biso   1.000  Cu
  Cu7      1.0000 0.10623  0.97652  0.88964  Biso   1.000  Cu
  Cu8      1.0000 0.89377  0.47652  0.61036  Biso   1.000  Cu
  Cu9      1.0000 0.79302  0.06418  0.92754  Biso   1.000  Cu
  Cu10     1.0000 0.20698  0.56418  0.57246  Biso   1.000  Cu
  Cu11     1.0000 0.20698  0.93582  0.07246  Biso   1.000  Cu
  Cu12     1.0000 0.79302  0.43582  0.42754  Biso   1.000  Cu
  N1       1.0000 0.69230  0.85765  0.13604  Biso   1.000  N
  N2       1.0000 0.30770  0.35765  0.36396  Biso   1.000  N
  N3       1.0000 0.30770  0.14235  0.86396  Biso   1.000  N
  N4       1.0000 0.69230  0.64235  0.63604  Biso   1.000  N
  N5       1.0000 0.95152  0.14096  0.97611  Biso   1.000  N
  N6       1.0000 0.04848  0.64096  0.52389  Biso   1.000  N
  N7       1.0000 0.04848  0.85904  0.02389  Biso   1.000  N
  N8       1.0000 0.95152  0.35904  0.47611  Biso   1.000  N
  N9       1.0000 0.98431  0.13066  0.05092  Biso   1.000  N
  N10      1.0000 0.01569  0.63066  0.44908  Biso   1.000  N
  N11      1.0000 0.01569  0.86934  0.94908  Biso   1.000  N
  N12      1.0000 0.98431  0.36934  0.55092  Biso   1.000  N
  N13      1.0000 0.79058  0.92546  0.16945  Biso   1.000  N
  N14      1.0000 0.20942  0.42546  0.33055  Biso   1.000  N
  N15      1.0000 0.20942  0.07454  0.83055  Biso   1.000  N
  N16      1.0000 0.79058  0.57454  0.66945  Biso   1.000  N
  N17      1.0000 0.64308  0.97253  0.88394  Biso   1.000  N
  N18      1.0000 0.35692  0.47253  0.61606  Biso   1.000  N
  N19      1.0000 0.35692  0.02747  0.11606  Biso   1.000  N
  N20      1.0000 0.64308  0.52747  0.38394  Biso   1.000  N
  N21      1.0000 0.58636  0.89078  0.92444  Biso   1.000  N
  N22      1.0000 0.41364  0.39078  0.57556  Biso   1.000  N
  N23      1.0000 0.41364  0.10922  0.07556  Biso   1.000  N
  N24      1.0000 0.58636  0.60922  0.42444  Biso   1.000  N
  C1       1.0000 0.57800  0.97430  0.81580  Biso   1.000  C
  C2       1.0000 0.42200  0.47430  0.68420  Biso   1.000  C
  C3       1.0000 0.42200  0.02570  0.18420  Biso   1.000  C
  C4       1.0000 0.57800  0.52570  0.31580  Biso   1.000  C
  H1       1.0000 0.59710  0.02300  0.77740  Biso   1.000  H
  H2       1.0000 0.40290  0.52300  0.72260  Biso   1.000  H
  H3       1.0000 0.40290  0.97700  0.22260  Biso   1.000  H
  H4       1.0000 0.59710  0.47700  0.27740  Biso   1.000  H
  C5       1.0000 0.64080  0.79840  0.18991  Biso   1.000  C
  C6       1.0000 0.35920  0.29840  0.31009  Biso   1.000  C
  C7       1.0000 0.35920  0.20160  0.81009  Biso   1.000  C
  C8       1.0000 0.64080  0.70160  0.68991  Biso   1.000  C
  H5       1.0000 0.57150  0.74570  0.18220  Biso   1.000  H
  H6       1.0000 0.42850  0.24570  0.31780  Biso   1.000  H
  H7       1.0000 0.42850  0.25430  0.81780  Biso   1.000  H
  H8       1.0000 0.57150  0.75430  0.68220  Biso   1.000  H
  C9       1.0000 0.48750  0.84220  0.87967  Biso   1.000  C
  C10      1.0000 0.51250  0.34220  0.62033  Biso   1.000  C
  C11      1.0000 0.51250  0.15780  0.12033  Biso   1.000  C
  C12      1.0000 0.48750  0.65780  0.37967  Biso   1.000  C
  H9       1.0000 0.43340  0.78280  0.89350  Biso   1.000  H
  H10      1.0000 0.56660  0.28280  0.60650  Biso   1.000  H
  H11      1.0000 0.56660  0.21720  0.10650  Biso   1.000  H
  H12      1.0000 0.43340  0.71720  0.39350  Biso   1.000  H
  C13      1.0000 0.03110  0.21989  0.95020  Biso   1.000  C
  C14      1.0000 0.96890  0.71989  0.54980  Biso   1.000  C
  C15      1.0000 0.96890  0.78011  0.04980  Biso   1.000  C
  C16      1.0000 0.03110  0.28011  0.45020  Biso   1.000  C
  H13      1.0000 0.02900  0.24290  0.90070  Biso   1.000  H
  H14      1.0000 0.97100  0.74290  0.59930  Biso   1.000  H
  H15      1.0000 0.97100  0.75710  0.09930  Biso   1.000  H
  H16      1.0000 0.02900  0.25710  0.40070  Biso   1.000  H
  C17      1.0000 0.08430  0.20430  0.07042  Biso   1.000  C
  C18      1.0000 0.91570  0.70430  0.42958  Biso   1.000  C
  C19      1.0000 0.91570  0.79570  0.92958  Biso   1.000  C
  C20      1.0000 0.08430  0.29570  0.57042  Biso   1.000  C
  H17      1.0000 0.12490  0.21430  0.11860  Biso   1.000  H
  H18      1.0000 0.87510  0.71430  0.38140  Biso   1.000  H
  H19      1.0000 0.87510  0.78570  0.88140  Biso   1.000  H
  H20      1.0000 0.12490  0.28570  0.61860  Biso   1.000  H
  C21      1.0000 0.47780  0.89270  0.81080  Biso   1.000  C
  C22      1.0000 0.52220  0.39270  0.68920  Biso   1.000  C
  C23      1.0000 0.52220  0.10730  0.18920  Biso   1.000  C
  C24      1.0000 0.47780  0.60730  0.31080  Biso   1.000  C
  H21      1.0000 0.41740  0.87590  0.76980  Biso   1.000  H
  H22      1.0000 0.58260  0.37590  0.73020  Biso   1.000  H
  H23      1.0000 0.58260  0.12410  0.23020  Biso   1.000  H
  H24      1.0000 0.41740  0.62410  0.26980  Biso   1.000  H
  C25      1.0000 0.11760  0.26250  0.00850  Biso   1.000  C
  C26      1.0000 0.88240  0.76250  0.49150  Biso   1.000  C
  C27      1.0000 0.88240  0.73750  0.99150  Biso   1.000  C
  C28      1.0000 0.11760  0.23750  0.50850  Biso   1.000  C
  H25      1.0000 0.18330  0.31810  0.00620  Biso   1.000  H
  H26      1.0000 0.81670  0.81810  0.49380  Biso   1.000  H
  H27      1.0000 0.81670  0.68190  0.99380  Biso   1.000  H
  H28      1.0000 0.18330  0.18190  0.50620  Biso   1.000  H
  C29      1.0000 0.70460  0.82630  0.25789  Biso   1.000  C
  C30      1.0000 0.29540  0.32630  0.24211  Biso   1.000  C
  C31      1.0000 0.29540  0.17370  0.74211  Biso   1.000  C
  C32      1.0000 0.70460  0.67370  0.75789  Biso   1.000  C
  H29      1.0000 0.68800  0.79740  0.30430  Biso   1.000  H
  H30      1.0000 0.31200  0.29740  0.19570  Biso   1.000  H
  H31      1.0000 0.31200  0.20260  0.69570  Biso   1.000  H
  H32      1.0000 0.68800  0.70260  0.80430  Biso   1.000  H
  C33      1.0000 0.79730  0.90520  0.24280  Biso   1.000  C
  C34      1.0000 0.20270  0.40520  0.25720  Biso   1.000  C
  C35      1.0000 0.20270  0.09480  0.75720  Biso   1.000  C
  C36      1.0000 0.79730  0.59480  0.74280  Biso   1.000  C
  H33      1.0000 0.85700  0.94030  0.27840  Biso   1.000  H
  H34      1.0000 0.14300  0.44030  0.22160  Biso   1.000  H
  H35      1.0000 0.14300  0.05970  0.72160  Biso   1.000  H
  H36      1.0000 0.85700  0.55970  0.77840  Biso   1.000  H
  C37      1.0000 0.43490  0.71140  0.04508  Biso   1.000  C
  C38      1.0000 0.56510  0.21140  0.45492  Biso   1.000  C
  C39      1.0000 0.56510  0.28860  0.95492  Biso   1.000  C
  C40      1.0000 0.43490  0.78860  0.54508  Biso   1.000  C
  O1       1.0000 0.03321  0.03662  0.19481  Biso   1.000  O
  O2       1.0000 0.96679  0.53662  0.30519  Biso   1.000  O
  O3       1.0000 0.96679  0.96338  0.80519  Biso   1.000  O
  O4       1.0000 0.03321  0.46338  0.69481  Biso   1.000  O
  C41      1.0000 0.11150  0.95630  0.21567  Biso   1.000  C
  C42      1.0000 0.88850  0.45630  0.28433  Biso   1.000  C
  C43      1.0000 0.88850  0.04370  0.78433  Biso   1.000  C
  C44      1.0000 0.11150  0.54370  0.71567  Biso   1.000  C
  C45      1.0000 0.14570  0.94040  0.29785  Biso   1.000  C
  C46      1.0000 0.85430  0.44040  0.20215  Biso   1.000  C
  C47      1.0000 0.85430  0.05960  0.70215  Biso   1.000  C
  C48      1.0000 0.14570  0.55960  0.79785  Biso   1.000  C
  C49      1.0000 0.19420  0.83430  0.32326  Biso   1.000  C
  C50      1.0000 0.80580  0.33430  0.17674  Biso   1.000  C
  C51      1.0000 0.80580  0.16570  0.67674  Biso   1.000  C
  C52      1.0000 0.19420  0.66570  0.82326  Biso   1.000  C
  H37      1.0000 0.21530  0.82200  0.37400  Biso   1.000  H
  H38      1.0000 0.78470  0.32200  0.12600  Biso   1.000  H
  H39      1.0000 0.78470  0.17800  0.62600  Biso   1.000  H
  H40      1.0000 0.21530  0.67800  0.87400  Biso   1.000  H
  H41      1.0000 0.20540  0.77600  0.28940  Biso   1.000  H
  H42      1.0000 0.79460  0.27600  0.21060  Biso   1.000  H
  H43      1.0000 0.79460  0.22400  0.71060  Biso   1.000  H
  H44      1.0000 0.20540  0.72400  0.78940  Biso   1.000  H
  C53      1.0000 0.12560  0.03340  0.34507  Biso   1.000  C
  C54      1.0000 0.87440  0.53340  0.15493  Biso   1.000  C
  C55      1.0000 0.87440  0.96660  0.65493  Biso   1.000  C
  C56      1.0000 0.12560  0.46660  0.84507  Biso   1.000  C
  H45      1.0000 0.17790  0.09720  0.33110  Biso   1.000  H
  H46      1.0000 0.82210  0.59720  0.16890  Biso   1.000  H
  H47      1.0000 0.82210  0.90280  0.66890  Biso   1.000  H
  H48      1.0000 0.17790  0.40280  0.83110  Biso   1.000  H
  H49      1.0000 0.03230  0.05380  0.34050  Biso   1.000  H
  H50      1.0000 0.96770  0.55380  0.15950  Biso   1.000  H
  H51      1.0000 0.96770  0.94620  0.65950  Biso   1.000  H
  H52      1.0000 0.03230  0.44620  0.84050  Biso   1.000  H
  H53      1.0000 0.15300  0.01270  0.39580  Biso   1.000  H
  H54      1.0000 0.84700  0.51270  0.10420  Biso   1.000  H
  H55      1.0000 0.84700  0.98730  0.60420  Biso   1.000  H
  H56      1.0000 0.15300  0.48730  0.89580  Biso   1.000  H
  O5       1.0000 0.55824  0.71556  0.03317  Biso   1.000  O
  O6       1.0000 0.44176  0.21556  0.46683  Biso   1.000  O
  O7       1.0000 0.44176  0.28444  0.96683  Biso   1.000  O
  O8       1.0000 0.55824  0.78444  0.53317  Biso   1.000  O
  C57      1.0000 0.38550  0.60080  0.07318  Biso   1.000  C
  C58      1.0000 0.61450  0.10080  0.42682  Biso   1.000  C
  C59      1.0000 0.61450  0.39920  0.92682  Biso   1.000  C
  C60      1.0000 0.38550  0.89920  0.57318  Biso   1.000  C
  C61      1.0000 0.47760  0.51680  0.09738  Biso   1.000  C
  C62      1.0000 0.52240  0.01680  0.40262  Biso   1.000  C
  C63      1.0000 0.52240  0.48320  0.90262  Biso   1.000  C
  C64      1.0000 0.47760  0.98320  0.59738  Biso   1.000  C
  H57      1.0000 0.44790  0.44870  0.11650  Biso   1.000  H
  H58      1.0000 0.55210  0.94870  0.38350  Biso   1.000  H
  H59      1.0000 0.55210  0.55130  0.88350  Biso   1.000  H
  H60      1.0000 0.44790  0.05130  0.61650  Biso   1.000  H
  H61      1.0000 0.56880  0.52880  0.09440  Biso   1.000  H
  H62      1.0000 0.43120  0.02880  0.40560  Biso   1.000  H
  H63      1.0000 0.43120  0.47120  0.90560  Biso   1.000  H
  H64      1.0000 0.56880  0.97120  0.59440  Biso   1.000  H
  C65      1.0000 0.24560  0.58730  0.07630  Biso   1.000  C
  C66      1.0000 0.75440  0.08730  0.42370  Biso   1.000  C
  C67      1.0000 0.75440  0.41270  0.92370  Biso   1.000  C
  C68      1.0000 0.24560  0.91270  0.57630  Biso   1.000  C
  H65      1.0000 0.22620  0.50890  0.08630  Biso   1.000  H
  H66      1.0000 0.77380  0.00890  0.41370  Biso   1.000  H
  H67      1.0000 0.77380  0.49110  0.91370  Biso   1.000  H
  H68      1.0000 0.22620  0.99110  0.58630  Biso   1.000  H
  H69      1.0000 0.19920  0.60930  0.02940  Biso   1.000  H
  H70      1.0000 0.80080  0.10930  0.47060  Biso   1.000  H
  H71      1.0000 0.80080  0.39070  0.97060  Biso   1.000  H
  H72      1.0000 0.19920  0.89070  0.52940  Biso   1.000  H
  H73      1.0000 0.21650  0.63440  0.11530  Biso   1.000  H
  H74      1.0000 0.78350  0.13440  0.38470  Biso   1.000  H
  H75      1.0000 0.78350  0.36560  0.88470  Biso   1.000  H
  H76      1.0000 0.21650  0.86560  0.61530  Biso   1.000  H
  O9       1.0000 0.74916  0.00959  0.02808  Biso   1.000  O
  O10      1.0000 0.25084  0.50959  0.47192  Biso   1.000  O
  O11      1.0000 0.25084  0.99041  0.97192  Biso   1.000  O
  O12      1.0000 0.74916  0.49041  0.52808  Biso   1.000  O
  H77      1.0000 0.70300  0.06390  0.03420  Biso   1.000  H
  H78      1.0000 0.29700  0.56390  0.46580  Biso   1.000  H
  H79      1.0000 0.29700  0.93610  0.96580  Biso   1.000  H
  H80      1.0000 0.70300  0.43610  0.53420  Biso   1.000  H
  O13      1.0000 0.16303  0.88840  0.17260  Biso   1.000  O
  O14      1.0000 0.83697  0.38840  0.32740  Biso   1.000  O
  O15      1.0000 0.83697  0.11160  0.82740  Biso   1.000  O
  O16      1.0000 0.16303  0.61160  0.67260  Biso   1.000  O
  O17      1.0000 0.35679  0.79280  0.03455  Biso   1.000  O
  O18      1.0000 0.64321  0.29280  0.46545  Biso   1.000  O
  O19      1.0000 0.64321  0.20720  0.96545  Biso   1.000  O
  O20      1.0000 0.35679  0.70720  0.53455  Biso   1.000  O
