data_image0
_cell_length_a       10.982
_cell_length_b       20.322
_cell_length_c       10.4061
_cell_angle_alpha    90
_cell_angle_beta     113.891
_cell_angle_gamma    90

_symmetry_space_group_name_H-M    "P 1"
_symmetry_int_tables_number       1

loop_
  _symmetry_equiv_pos_as_xyz
  'x, y, z'

loop_
  _atom_site_label
  _atom_site_occupancy
  _atom_site_fract_x
  _atom_site_fract_y
  _atom_site_fract_z
  _atom_site_thermal_displace_type
  _atom_site_B_iso_or_equiv
  _atom_site_type_symbol
  Cu1      1.0000 0.37578  0.07825  0.35097  Biso   1.000  Cu
  Cu2      1.0000 0.62422  0.57825  0.14903  Biso   1.000  Cu
  Cu3      1.0000 0.62422  0.92175  0.64903  Biso   1.000  Cu
  Cu4      1.0000 0.37578  0.42175  0.85097  Biso   1.000  Cu
  Cu5      1.0000 0.44448  0.92650  0.27145  Biso   1.000  Cu
  Cu6      1.0000 0.55552  0.42650  0.22855  Biso   1.000  Cu
  Cu7      1.0000 0.55552  0.07350  0.72855  Biso   1.000  Cu
  Cu8      1.0000 0.44448  0.57350  0.77145  Biso   1.000  Cu
  Cu9      1.0000 0.12450  0.97708  0.15923  Biso   1.000  Cu
  Cu10     1.0000 0.87550  0.47708  0.34077  Biso   1.000  Cu
  Cu11     1.0000 0.87550  0.02292  0.84077  Biso   1.000  Cu
  Cu12     1.0000 0.12450  0.52292  0.65923  Biso   1.000  Cu
  N1       1.0000 0.55770  0.05130  0.39840  Biso   1.000  N
  N2       1.0000 0.44230  0.55130  0.10160  Biso   1.000  N
  N3       1.0000 0.44230  0.94870  0.60160  Biso   1.000  N
  N4       1.0000 0.55770  0.44870  0.89840  Biso   1.000  N
  N5       1.0000 0.58640  0.98818  0.37400  Biso   1.000  N
  N6       1.0000 0.41360  0.48818  0.12600  Biso   1.000  N
  N7       1.0000 0.41360  0.01182  0.62600  Biso   1.000  N
  N8       1.0000 0.58640  0.51182  0.87400  Biso   1.000  N
  N9       1.0000 0.29600  0.86690  0.17920  Biso   1.000  N
  N10      1.0000 0.70400  0.36690  0.32080  Biso   1.000  N
  N11      1.0000 0.70400  0.13310  0.82080  Biso   1.000  N
  N12      1.0000 0.29600  0.63310  0.67920  Biso   1.000  N
  N13      1.0000 0.19090  0.10210  0.30260  Biso   1.000  N
  N14      1.0000 0.80910  0.60210  0.19740  Biso   1.000  N
  N15      1.0000 0.80910  0.89790  0.69740  Biso   1.000  N
  N16      1.0000 0.19090  0.39790  0.80260  Biso   1.000  N
  N17      1.0000 0.16720  0.88870  0.11910  Biso   1.000  N
  N18      1.0000 0.83280  0.38870  0.38090  Biso   1.000  N
  N19      1.0000 0.83280  0.11130  0.88090  Biso   1.000  N
  N20      1.0000 0.16720  0.61130  0.61910  Biso   1.000  N
  N21      1.0000 0.09500  0.05530  0.24950  Biso   1.000  N
  N22      1.0000 0.90500  0.55530  0.25050  Biso   1.000  N
  N23      1.0000 0.90500  0.94470  0.75050  Biso   1.000  N
  N24      1.0000 0.09500  0.44470  0.74950  Biso   1.000  N
  O1       1.0000 0.31550  0.00188  0.22300  Biso   1.000  O
  O2       1.0000 0.68450  0.50188  0.27700  Biso   1.000  O
  O3       1.0000 0.68450  0.99812  0.77700  Biso   1.000  O
  O4       1.0000 0.31550  0.49812  0.72300  Biso   1.000  O
  H1       1.0000 0.33400  0.01400  0.15200  Biso   1.000  H
  H2       1.0000 0.66600  0.51400  0.34800  Biso   1.000  H
  H3       1.0000 0.66600  0.98600  0.84800  Biso   1.000  H
  H4       1.0000 0.33400  0.48600  0.65200  Biso   1.000  H
  C1       1.0000 0.71730  0.98490  0.41190  Biso   1.000  C
  C2       1.0000 0.28270  0.48490  0.08810  Biso   1.000  C
  C3       1.0000 0.28270  0.01510  0.58810  Biso   1.000  C
  C4       1.0000 0.71730  0.51510  0.91190  Biso   1.000  C
  H5       1.0000 0.76310  0.94740  0.40560  Biso   1.000  H
  H6       1.0000 0.23690  0.44740  0.09440  Biso   1.000  H
  H7       1.0000 0.23690  0.05260  0.59440  Biso   1.000  H
  H8       1.0000 0.76310  0.55260  0.90560  Biso   1.000  H
  C5       1.0000 0.77510  0.04470  0.46170  Biso   1.000  C
  C6       1.0000 0.22490  0.54470  0.03830  Biso   1.000  C
  C7       1.0000 0.22490  0.95530  0.53830  Biso   1.000  C
  C8       1.0000 0.77510  0.45530  0.96170  Biso   1.000  C
  H9       1.0000 0.86490  0.05550  0.49480  Biso   1.000  H
  H10      1.0000 0.13510  0.55550  0.00520  Biso   1.000  H
  H11      1.0000 0.13510  0.94450  0.50520  Biso   1.000  H
  H12      1.0000 0.86490  0.44450  0.99480  Biso   1.000  H
  C9       1.0000 0.67210  0.08490  0.45200  Biso   1.000  C
  C10      1.0000 0.32790  0.58490  0.04800  Biso   1.000  C
  C11      1.0000 0.32790  0.91510  0.54800  Biso   1.000  C
  C12      1.0000 0.67210  0.41510  0.95200  Biso   1.000  C
  H13      1.0000 0.68020  0.12890  0.47870  Biso   1.000  H
  H14      1.0000 0.31980  0.62890  0.02130  Biso   1.000  H
  H15      1.0000 0.31980  0.87110  0.52130  Biso   1.000  H
  H16      1.0000 0.68020  0.37110  0.97870  Biso   1.000  H
  C13      1.0000 0.29620  0.80490  0.13660  Biso   1.000  C
  C14      1.0000 0.70380  0.30490  0.36340  Biso   1.000  C
  C15      1.0000 0.70380  0.19510  0.86340  Biso   1.000  C
  C16      1.0000 0.29620  0.69510  0.63660  Biso   1.000  C
  H17      1.0000 0.37130  0.77840  0.16140  Biso   1.000  H
  H18      1.0000 0.62870  0.27840  0.33860  Biso   1.000  H
  H19      1.0000 0.62870  0.22160  0.83860  Biso   1.000  H
  H20      1.0000 0.37130  0.72160  0.66140  Biso   1.000  H
  C17      1.0000 0.16750  0.78600  0.04990  Biso   1.000  C
  C18      1.0000 0.83250  0.28600  0.45010  Biso   1.000  C
  C19      1.0000 0.83250  0.21400  0.95010  Biso   1.000  C
  C20      1.0000 0.16750  0.71400  0.54990  Biso   1.000  C
  H21      1.0000 0.13920  0.74540  0.00690  Biso   1.000  H
  H22      1.0000 0.86080  0.24540  0.49310  Biso   1.000  H
  H23      1.0000 0.86080  0.25460  0.99310  Biso   1.000  H
  H24      1.0000 0.13920  0.75460  0.50690  Biso   1.000  H
  C21      1.0000 0.09130  0.84090  0.04190  Biso   1.000  C
  C22      1.0000 0.90870  0.34090  0.45810  Biso   1.000  C
  C23      1.0000 0.90870  0.15910  0.95810  Biso   1.000  C
  C24      1.0000 0.09130  0.65910  0.54190  Biso   1.000  C
  H25      1.0000 0.99990  0.84380  0.98970  Biso   1.000  H
  H26      1.0000 0.00010  0.34380  0.51030  Biso   1.000  H
  H27      1.0000 0.00010  0.15620  0.01030  Biso   1.000  H
  H28      1.0000 0.99990  0.65620  0.48970  Biso   1.000  H
  C25      1.0000 0.13680  0.15320  0.34210  Biso   1.000  C
  C26      1.0000 0.86320  0.65320  0.15790  Biso   1.000  C
  C27      1.0000 0.86320  0.84680  0.65790  Biso   1.000  C
  C28      1.0000 0.13680  0.34680  0.84210  Biso   1.000  C
  H29      1.0000 0.18140  0.19190  0.38180  Biso   1.000  H
  H30      1.0000 0.81860  0.69190  0.11820  Biso   1.000  H
  H31      1.0000 0.81860  0.80810  0.61820  Biso   1.000  H
  H32      1.0000 0.18140  0.30810  0.88180  Biso   1.000  H
  C29      1.0000 0.00630  0.14000  0.31540  Biso   1.000  C
  C30      1.0000 0.99370  0.64000  0.18460  Biso   1.000  C
  C31      1.0000 0.99370  0.86000  0.68460  Biso   1.000  C
  C32      1.0000 0.00630  0.36000  0.81540  Biso   1.000  C
  H33      1.0000 0.94600  0.16710  0.33210  Biso   1.000  H
  H34      1.0000 0.05400  0.66710  0.16790  Biso   1.000  H
  H35      1.0000 0.05400  0.83290  0.66790  Biso   1.000  H
  H36      1.0000 0.94600  0.33290  0.83210  Biso   1.000  H
  C33      1.0000 0.98470  0.07850  0.25890  Biso   1.000  C
  C34      1.0000 0.01530  0.57850  0.24110  Biso   1.000  C
  C35      1.0000 0.01530  0.92150  0.74110  Biso   1.000  C
  C36      1.0000 0.98470  0.42150  0.75890  Biso   1.000  C
  H37      1.0000 0.90460  0.05570  0.23080  Biso   1.000  H
  H38      1.0000 0.09540  0.55570  0.26920  Biso   1.000  H
  H39      1.0000 0.09540  0.94430  0.76920  Biso   1.000  H
  H40      1.0000 0.90460  0.44430  0.73080  Biso   1.000  H
  O5       1.0000 0.43600  0.15176  0.65600  Biso   1.000  O
  O6       1.0000 0.56400  0.65176  0.84400  Biso   1.000  O
  O7       1.0000 0.56400  0.84824  0.34400  Biso   1.000  O
  O8       1.0000 0.43600  0.34824  0.15600  Biso   1.000  O
  O9       1.0000 0.92930  0.96321  0.06210  Biso   1.000  O
  O10      1.0000 0.07070  0.46321  0.43790  Biso   1.000  O
  O11      1.0000 0.07070  0.03679  0.93790  Biso   1.000  O
  O12      1.0000 0.92930  0.53679  0.56210  Biso   1.000  O
  O13      1.0000 0.43810  0.16289  0.44330  Biso   1.000  O
  O14      1.0000 0.56190  0.66289  0.05670  Biso   1.000  O
  O15      1.0000 0.56190  0.83711  0.55670  Biso   1.000  O
  O16      1.0000 0.43810  0.33711  0.94330  Biso   1.000  O
  O17      1.0000 0.49000  0.92530  0.07000  Biso   1.000  O
  O18      1.0000 0.51000  0.42530  0.43000  Biso   1.000  O
  O19      1.0000 0.51000  0.07470  0.93000  Biso   1.000  O
  O20      1.0000 0.49000  0.57470  0.57000  Biso   1.000  O
  H41      1.0000 0.57000  0.93100  0.06900  Biso   1.000  H
  H42      1.0000 0.43000  0.43100  0.43100  Biso   1.000  H
  H43      1.0000 0.43000  0.06900  0.93100  Biso   1.000  H
  H44      1.0000 0.57000  0.56900  0.56900  Biso   1.000  H
  C37      1.0000 0.43060  0.18500  0.55280  Biso   1.000  C
  C38      1.0000 0.56940  0.68500  0.94720  Biso   1.000  C
  C39      1.0000 0.56940  0.81500  0.44720  Biso   1.000  C
  C40      1.0000 0.43060  0.31500  0.05280  Biso   1.000  C
  C41      1.0000 0.40870  0.25720  0.55340  Biso   1.000  C
  C42      1.0000 0.59130  0.75720  0.94660  Biso   1.000  C
  C43      1.0000 0.59130  0.74280  0.44660  Biso   1.000  C
  C44      1.0000 0.40870  0.24280  0.05340  Biso   1.000  C
  H45      1.0000 0.43200  0.28000  0.48300  Biso   1.000  H
  H46      1.0000 0.56800  0.78000  0.01700  Biso   1.000  H
  H47      1.0000 0.56800  0.72000  0.51700  Biso   1.000  H
  H48      1.0000 0.43200  0.22000  0.98300  Biso   1.000  H
  C45      1.0000 0.39440  0.91290  0.93140  Biso   1.000  C
  C46      1.0000 0.60560  0.41290  0.56860  Biso   1.000  C
  C47      1.0000 0.60560  0.08710  0.06860  Biso   1.000  C
  C48      1.0000 0.39440  0.58710  0.43140  Biso   1.000  C
  H49      1.0000 0.30650  0.91520  0.92990  Biso   1.000  H
  H50      1.0000 0.69350  0.41520  0.57010  Biso   1.000  H
  H51      1.0000 0.69350  0.08480  0.07010  Biso   1.000  H
  H52      1.0000 0.30650  0.58480  0.42990  Biso   1.000  H
  H53      1.0000 0.40890  0.86990  0.90230  Biso   1.000  H
  H54      1.0000 0.59110  0.36990  0.59770  Biso   1.000  H
  H55      1.0000 0.59110  0.13010  0.09770  Biso   1.000  H
  H56      1.0000 0.40890  0.63010  0.40230  Biso   1.000  H
  H57      1.0000 0.40310  0.94530  0.86850  Biso   1.000  H
  H58      1.0000 0.59690  0.44530  0.63150  Biso   1.000  H
  H59      1.0000 0.59690  0.05470  0.13150  Biso   1.000  H
  H60      1.0000 0.40310  0.55470  0.36850  Biso   1.000  H
  C49      1.0000 0.84610  0.93110  0.09440  Biso   1.000  C
  C50      1.0000 0.15390  0.43110  0.40560  Biso   1.000  C
  C51      1.0000 0.15390  0.06890  0.90560  Biso   1.000  C
  C52      1.0000 0.84610  0.56890  0.59440  Biso   1.000  C
  C53      1.0000 0.90150  0.88740  0.21810  Biso   1.000  C
  C54      1.0000 0.09850  0.38740  0.28190  Biso   1.000  C
  C55      1.0000 0.09850  0.11260  0.78190  Biso   1.000  C
  C56      1.0000 0.90150  0.61260  0.71810  Biso   1.000  C
  H61      1.0000 0.99760  0.88500  0.27400  Biso   1.000  H
  H62      1.0000 0.00240  0.38500  0.22600  Biso   1.000  H
  H63      1.0000 0.00240  0.11500  0.72600  Biso   1.000  H
  H64      1.0000 0.99760  0.61500  0.77400  Biso   1.000  H
  O21      1.0000 0.72520  0.93541  0.02490  Biso   1.000  O
  O22      1.0000 0.27480  0.43541  0.47510  Biso   1.000  O
  O23      1.0000 0.27480  0.06459  0.97510  Biso   1.000  O
  O24      1.0000 0.72520  0.56459  0.52490  Biso   1.000  O
  C57      1.0000 0.83370  0.84990  0.26070  Biso   1.000  C
  C58      1.0000 0.16630  0.34990  0.23930  Biso   1.000  C
  C59      1.0000 0.16630  0.15010  0.73930  Biso   1.000  C
  C60      1.0000 0.83370  0.65010  0.76070  Biso   1.000  C
  H65      1.0000 0.73640  0.85100  0.21200  Biso   1.000  H
  H66      1.0000 0.26360  0.35100  0.28800  Biso   1.000  H
  H67      1.0000 0.26360  0.14900  0.78800  Biso   1.000  H
  H68      1.0000 0.73640  0.64900  0.71200  Biso   1.000  H
  H69      1.0000 0.89000  0.82700  0.34800  Biso   1.000  H
  H70      1.0000 0.11000  0.32700  0.15200  Biso   1.000  H
  H71      1.0000 0.11000  0.17300  0.65200  Biso   1.000  H
  H72      1.0000 0.89000  0.67300  0.84800  Biso   1.000  H
  C61      1.0000 0.36850  0.28580  0.63720  Biso   1.000  C
  C62      1.0000 0.63150  0.78580  0.86280  Biso   1.000  C
  C63      1.0000 0.63150  0.71420  0.36280  Biso   1.000  C
  C64      1.0000 0.36850  0.21420  0.13720  Biso   1.000  C
  H73      1.0000 0.36100  0.33360  0.62500  Biso   1.000  H
  H74      1.0000 0.63900  0.83360  0.87500  Biso   1.000  H
  H75      1.0000 0.63900  0.66640  0.37500  Biso   1.000  H
  H76      1.0000 0.36100  0.16640  0.12500  Biso   1.000  H
  H77      1.0000 0.34700  0.26100  0.70600  Biso   1.000  H
  H78      1.0000 0.65300  0.76100  0.79400  Biso   1.000  H
  H79      1.0000 0.65300  0.73900  0.29400  Biso   1.000  H
  H80      1.0000 0.34700  0.23900  0.20600  Biso   1.000  H
