data_image0
_cell_length_a       9.4492
_cell_length_b       9.5169
_cell_length_c       11.1262
_cell_angle_alpha    65.207
_cell_angle_beta     77.539
_cell_angle_gamma    81.742

_symmetry_space_group_name_H-M    "P 1"
_symmetry_int_tables_number       1

loop_
  _symmetry_equiv_pos_as_xyz
  'x, y, z'

loop_
  _atom_site_label
  _atom_site_occupancy
  _atom_site_fract_x
  _atom_site_fract_y
  _atom_site_fract_z
  _atom_site_thermal_displace_type
  _atom_site_B_iso_or_equiv
  _atom_site_type_symbol
  Cu1      1.0000 0.43649  0.99088  0.84391  Biso   1.000  Cu
  Cu2      1.0000 0.56351  0.00912  0.15609  Biso   1.000  Cu
  Co1      1.0000 0.01353  0.85426  0.75569  Biso   1.000  Co
  Co2      1.0000 0.98647  0.14574  0.24431  Biso   1.000  Co
  N1       1.0000 0.57210  0.82110  0.93620  Biso   1.000  N
  N2       1.0000 0.42790  0.17890  0.06380  Biso   1.000  N
  N3       1.0000 0.60520  0.07430  0.71840  Biso   1.000  N
  N4       1.0000 0.39480  0.92570  0.28160  Biso   1.000  N
  N5       1.0000 0.33490  0.18700  0.72140  Biso   1.000  N
  N6       1.0000 0.66510  0.81300  0.27860  Biso   1.000  N
  H1       1.0000 0.28540  0.16310  0.67250  Biso   1.000  H
  H2       1.0000 0.71460  0.83690  0.32750  Biso   1.000  H
  H3       1.0000 0.27150  0.22990  0.77130  Biso   1.000  H
  H4       1.0000 0.72850  0.77010  0.22870  Biso   1.000  H
  O1       1.0000 0.82490  0.76970  0.90540  Biso   1.000  O
  O2       1.0000 0.17510  0.23030  0.09460  Biso   1.000  O
  O3       1.0000 0.84820  0.00820  0.66530  Biso   1.000  O
  O4       1.0000 0.15180  0.99180  0.33470  Biso   1.000  O
  O5       1.0000 0.27570  0.92010  0.98470  Biso   1.000  O
  O6       1.0000 0.72430  0.07990  0.01530  Biso   1.000  O
  O7       1.0000 0.14700  0.76670  0.17270  Biso   1.000  O
  O8       1.0000 0.85300  0.23330  0.82730  Biso   1.000  O
  O9       1.0000 0.81730  0.28960  0.16040  Biso   1.000  O
  O10      1.0000 0.18270  0.71040  0.83960  Biso   1.000  O
  O11      1.0000 0.63540  0.13730  0.28960  Biso   1.000  O
  O12      1.0000 0.36460  0.86270  0.71040  Biso   1.000  O
  O13      1.0000 0.14960  0.99580  0.57790  Biso   1.000  O
  O14      1.0000 0.85040  0.00420  0.42210  Biso   1.000  O
  H5       1.0000 0.17520  0.01490  0.49480  Biso   1.000  H
  H6       1.0000 0.82480  0.98510  0.50520  Biso   1.000  H
  H7       1.0000 0.22620  0.98510  0.61030  Biso   1.000  H
  H8       1.0000 0.77380  0.01490  0.38970  Biso   1.000  H
  O15      1.0000 0.04600  0.99780  0.84430  Biso   1.000  O
  O16      1.0000 0.95400  0.00220  0.15570  Biso   1.000  O
  H9       1.0000 0.06220  0.07480  0.76920  Biso   1.000  H
  H10      1.0000 0.93780  0.92520  0.23080  Biso   1.000  H
  H11      1.0000 0.12300  0.97460  0.87820  Biso   1.000  H
  H12      1.0000 0.87700  0.02540  0.12180  Biso   1.000  H
  O17      1.0000 0.99860  0.68360  0.68870  Biso   1.000  O
  O18      1.0000 0.00140  0.31640  0.31130  Biso   1.000  O
  H13      1.0000 0.00960  0.68870  0.60910  Biso   1.000  H
  H14      1.0000 0.99040  0.31130  0.39090  Biso   1.000  H
  H15      1.0000 0.04170  0.59960  0.73490  Biso   1.000  H
  H16      1.0000 0.95830  0.40040  0.26510  Biso   1.000  H
  C1       1.0000 0.38390  0.66690  0.11470  Biso   1.000  C
  C2       1.0000 0.61610  0.33310  0.88530  Biso   1.000  C
  C3       1.0000 0.34190  0.52290  0.21650  Biso   1.000  C
  C4       1.0000 0.65810  0.47710  0.78350  Biso   1.000  C
  H17      1.0000 0.24710  0.51430  0.26330  Biso   1.000  H
  H18      1.0000 0.75290  0.48570  0.73670  Biso   1.000  H
  C5       1.0000 0.43730  0.39430  0.24850  Biso   1.000  C
  C6       1.0000 0.56270  0.60570  0.75150  Biso   1.000  C
  H19      1.0000 0.40710  0.30020  0.31600  Biso   1.000  H
  H20      1.0000 0.59290  0.69980  0.68400  Biso   1.000  H
  C7       1.0000 0.57900  0.40620  0.17920  Biso   1.000  C
  C8       1.0000 0.42100  0.59380  0.82080  Biso   1.000  C
  C9       1.0000 0.62390  0.54760  0.07920  Biso   1.000  C
  C10      1.0000 0.37610  0.45240  0.92080  Biso   1.000  C
  H21      1.0000 0.71950  0.55430  0.03440  Biso   1.000  H
  H22      1.0000 0.28050  0.44570  0.96560  Biso   1.000  H
  C11      1.0000 0.52880  0.68050  0.04410  Biso   1.000  C
  C12      1.0000 0.47120  0.31950  0.95590  Biso   1.000  C
  C13      1.0000 0.70890  0.84600  0.87430  Biso   1.000  C
  C14      1.0000 0.29110  0.15400  0.12570  Biso   1.000  C
  C15      1.0000 0.72390  0.98910  0.74080  Biso   1.000  C
  C16      1.0000 0.27610  0.01090  0.25920  Biso   1.000  C
  C17      1.0000 0.58500  0.21000  0.59540  Biso   1.000  C
  C18      1.0000 0.41500  0.79000  0.40460  Biso   1.000  C
  H23      1.0000 0.57650  0.17830  0.52510  Biso   1.000  H
  H24      1.0000 0.42350  0.82170  0.47490  Biso   1.000  H
  H25      1.0000 0.66680  0.27490  0.56420  Biso   1.000  H
  H26      1.0000 0.33320  0.72510  0.43580  Biso   1.000  H
  C19      1.0000 0.44550  0.29780  0.63120  Biso   1.000  C
  C20      1.0000 0.55450  0.70220  0.36880  Biso   1.000  C
  H27      1.0000 0.46550  0.35990  0.67530  Biso   1.000  H
  H28      1.0000 0.53450  0.64010  0.32470  Biso   1.000  H
  H29      1.0000 0.40910  0.36700  0.54990  Biso   1.000  H
  H30      1.0000 0.59090  0.63300  0.45010  Biso   1.000  H
  C21      1.0000 0.26420  0.79200  0.08940  Biso   1.000  C
  C22      1.0000 0.73580  0.20800  0.91060  Biso   1.000  C
  C23      1.0000 0.68540  0.26660  0.21170  Biso   1.000  C
  C24      1.0000 0.31460  0.73340  0.78830  Biso   1.000  C
  O19      1.0000 0.90850  0.62580  0.16780  Biso   1.000  O
  O20      1.0000 0.09150  0.37420  0.83220  Biso   1.000  O
  H31      1.0000 0.89520  0.65310  0.08770  Biso   1.000  H
  H32      1.0000 0.10480  0.34690  0.91230  Biso   1.000  H
  H33      1.0000 0.99490  0.58650  0.17230  Biso   1.000  H
  H34      1.0000 0.00510  0.41350  0.82770  Biso   1.000  H
  O21      1.0000 0.97420  0.69060  0.44950  Biso   1.000  O
  O22      1.0000 0.02580  0.30940  0.55050  Biso   1.000  O
  H35      1.0000 0.02690  0.73110  0.37260  Biso   1.000  H
  H36      1.0000 0.97310  0.26890  0.62740  Biso   1.000  H
  H37      1.0000 0.90880  0.64390  0.44160  Biso   1.000  H
  H38      1.0000 0.09120  0.35610  0.55840  Biso   1.000  H
