data_image0
_cell_length_a       9.4053
_cell_length_b       9.5155
_cell_length_c       11.195
_cell_angle_alpha    64.919
_cell_angle_beta     77.58
_cell_angle_gamma    81.597

_symmetry_space_group_name_H-M    "P 1"
_symmetry_int_tables_number       1

loop_
  _symmetry_equiv_pos_as_xyz
  'x, y, z'

loop_
  _atom_site_label
  _atom_site_occupancy
  _atom_site_fract_x
  _atom_site_fract_y
  _atom_site_fract_z
  _atom_site_thermal_displace_type
  _atom_site_B_iso_or_equiv
  _atom_site_type_symbol
  Cu1      1.0000 0.93662  0.49153  0.34289  Biso   1.000  Cu
  Cu2      1.0000 0.06338  0.50847  0.65711  Biso   1.000  Cu
  Ni1      1.0000 0.51070  0.36352  0.24998  Biso   1.000  Ni
  Ni2      1.0000 0.48930  0.63648  0.75002  Biso   1.000  Ni
  N1       1.0000 0.10370  0.57690  0.21650  Biso   1.000  N
  N2       1.0000 0.89630  0.42310  0.78350  Biso   1.000  N
  N3       1.0000 0.07550  0.32220  0.43430  Biso   1.000  N
  N4       1.0000 0.92450  0.67780  0.56570  Biso   1.000  N
  N5       1.0000 0.83320  0.68960  0.22410  Biso   1.000  N
  N6       1.0000 0.16680  0.31040  0.77590  Biso   1.000  N
  H1       1.0000 0.77900  0.66660  0.17830  Biso   1.000  H
  H2       1.0000 0.22100  0.33340  0.82170  Biso   1.000  H
  H3       1.0000 0.77340  0.73340  0.27500  Biso   1.000  H
  H4       1.0000 0.22660  0.26660  0.72500  Biso   1.000  H
  O1       1.0000 0.32960  0.27390  0.40070  Biso   1.000  O
  O2       1.0000 0.67040  0.72610  0.59930  Biso   1.000  O
  O3       1.0000 0.34860  0.51640  0.16330  Biso   1.000  O
  O4       1.0000 0.65140  0.48360  0.83670  Biso   1.000  O
  O5       1.0000 0.77510  0.41960  0.48240  Biso   1.000  O
  O6       1.0000 0.22490  0.58040  0.51760  Biso   1.000  O
  O7       1.0000 0.65120  0.26660  0.67150  Biso   1.000  O
  O8       1.0000 0.34880  0.73340  0.32850  Biso   1.000  O
  O9       1.0000 0.14020  0.63800  0.78720  Biso   1.000  O
  O10      1.0000 0.85980  0.36200  0.21280  Biso   1.000  O
  O11      1.0000 0.32510  0.78880  0.66560  Biso   1.000  O
  O12      1.0000 0.67490  0.21120  0.33440  Biso   1.000  O
  O13      1.0000 0.54810  0.50390  0.33400  Biso   1.000  O
  O14      1.0000 0.45190  0.49610  0.66600  Biso   1.000  O
  H5       1.0000 0.60310  0.47500  0.39250  Biso   1.000  H
  H6       1.0000 0.39690  0.52500  0.60750  Biso   1.000  H
  H7       1.0000 0.48470  0.57130  0.34760  Biso   1.000  H
  H8       1.0000 0.51530  0.42870  0.65240  Biso   1.000  H
  O15      1.0000 0.48500  0.20040  0.18250  Biso   1.000  O
  O16      1.0000 0.51500  0.79960  0.81750  Biso   1.000  O
  H9       1.0000 0.53180  0.11250  0.21130  Biso   1.000  H
  H10      1.0000 0.46820  0.88750  0.78870  Biso   1.000  H
  H11      1.0000 0.48790  0.22870  0.09910  Biso   1.000  H
  H12      1.0000 0.51210  0.77130  0.90090  Biso   1.000  H
  O17      1.0000 0.64940  0.49700  0.07880  Biso   1.000  O
  O18      1.0000 0.35060  0.50300  0.92120  Biso   1.000  O
  H13      1.0000 0.64670  0.47600  0.01280  Biso   1.000  H
  H14      1.0000 0.35330  0.52400  0.98720  Biso   1.000  H
  H15      1.0000 0.73100  0.46040  0.10430  Biso   1.000  H
  H16      1.0000 0.26900  0.53960  0.89570  Biso   1.000  H
  C1       1.0000 0.21220  0.34930  0.37110  Biso   1.000  C
  C2       1.0000 0.78780  0.65070  0.62890  Biso   1.000  C
  C3       1.0000 0.22400  0.49430  0.23840  Biso   1.000  C
  C4       1.0000 0.77600  0.50570  0.76160  Biso   1.000  C
  C5       1.0000 0.08250  0.71500  0.09640  Biso   1.000  C
  C6       1.0000 0.91750  0.28500  0.90360  Biso   1.000  C
  H17      1.0000 0.07700  0.68600  0.02430  Biso   1.000  H
  H18      1.0000 0.92300  0.31400  0.97570  Biso   1.000  H
  H19      1.0000 0.16330  0.78110  0.06800  Biso   1.000  H
  H20      1.0000 0.83670  0.21890  0.93200  Biso   1.000  H
  C7       1.0000 0.94290  0.79890  0.13010  Biso   1.000  C
  C8       1.0000 0.05710  0.20110  0.86990  Biso   1.000  C
  H21      1.0000 0.96200  0.86580  0.16970  Biso   1.000  H
  H22      1.0000 0.03800  0.13420  0.83030  Biso   1.000  H
  H23      1.0000 0.90470  0.86400  0.04870  Biso   1.000  H
  H24      1.0000 0.09530  0.13600  0.95130  Biso   1.000  H
  C9       1.0000 0.76610  0.29220  0.58820  Biso   1.000  C
  C10      1.0000 0.23390  0.70780  0.41180  Biso   1.000  C
  C11      1.0000 0.88760  0.16760  0.61260  Biso   1.000  C
  C12      1.0000 0.11240  0.83240  0.38740  Biso   1.000  C
  C13      1.0000 0.84700  0.02290  0.71410  Biso   1.000  C
  C14      1.0000 0.15300  0.97710  0.28590  Biso   1.000  C
  H25      1.0000 0.75200  0.01420  0.76130  Biso   1.000  H
  H26      1.0000 0.24800  0.98580  0.23870  Biso   1.000  H
  C15      1.0000 0.94220  0.89430  0.74610  Biso   1.000  C
  C16      1.0000 0.05780  0.10570  0.25390  Biso   1.000  C
  H27      1.0000 0.91180  0.79970  0.81300  Biso   1.000  H
  H28      1.0000 0.08820  0.20030  0.18700  Biso   1.000  H
  C17      1.0000 0.08600  0.90720  0.67680  Biso   1.000  C
  C18      1.0000 0.91400  0.09280  0.32320  Biso   1.000  C
  C19      1.0000 0.12950  0.04880  0.57720  Biso   1.000  C
  C20      1.0000 0.87050  0.95120  0.42280  Biso   1.000  C
  H29      1.0000 0.22530  0.05610  0.53220  Biso   1.000  H
  H30      1.0000 0.77470  0.94390  0.46780  Biso   1.000  H
  C21      1.0000 0.03320  0.18150  0.54220  Biso   1.000  C
  C22      1.0000 0.96680  0.81850  0.45780  Biso   1.000  C
  C23      1.0000 0.19160  0.76680  0.71190  Biso   1.000  C
  C24      1.0000 0.80840  0.23320  0.28810  Biso   1.000  C
  O19      1.0000 0.42010  0.11230  0.67000  Biso   1.000  O
  O20      1.0000 0.57990  0.88770  0.33000  Biso   1.000  O
  H31      1.0000 0.43700  0.16140  0.58540  Biso   1.000  H
  H32      1.0000 0.56300  0.83860  0.41460  Biso   1.000  H
  H33      1.0000 0.34890  0.05630  0.68960  Biso   1.000  H
  H34      1.0000 0.65110  0.94370  0.31040  Biso   1.000  H
  O21      1.0000 0.47630  0.18480  0.94470  Biso   1.000  O
  O22      1.0000 0.52370  0.81520  0.05530  Biso   1.000  O
  H35      1.0000 0.56350  0.12840  0.97740  Biso   1.000  H
  H36      1.0000 0.43650  0.87160  0.02260  Biso   1.000  H
  H37      1.0000 0.40490  0.14460  0.96520  Biso   1.000  H
  H38      1.0000 0.59510  0.85540  0.03480  Biso   1.000  H
