data_image0
_cell_length_a       9.4621
_cell_length_b       9.5085
_cell_length_c       11.1077
_cell_angle_alpha    65.262
_cell_angle_beta     77.636
_cell_angle_gamma    81.867

_symmetry_space_group_name_H-M    "P 1"
_symmetry_int_tables_number       1

loop_
  _symmetry_equiv_pos_as_xyz
  'x, y, z'

loop_
  _atom_site_label
  _atom_site_occupancy
  _atom_site_fract_x
  _atom_site_fract_y
  _atom_site_fract_z
  _atom_site_thermal_displace_type
  _atom_site_B_iso_or_equiv
  _atom_site_type_symbol
  Cu1      1.0000 0.43609  0.99119  0.84368  Biso   1.000  Cu
  Cu2      1.0000 0.56391  0.00881  0.15632  Biso   1.000  Cu
  Mn1      1.0000 0.01305  0.85559  0.75424  Biso   1.000  Mn
  Mn2      1.0000 0.98695  0.14441  0.24576  Biso   1.000  Mn
  N1       1.0000 0.57240  0.82130  0.93710  Biso   1.000  N
  N2       1.0000 0.42760  0.17870  0.06290  Biso   1.000  N
  N3       1.0000 0.60410  0.07480  0.71740  Biso   1.000  N
  N4       1.0000 0.39590  0.92520  0.28260  Biso   1.000  N
  N5       1.0000 0.33480  0.18690  0.72130  Biso   1.000  N
  N6       1.0000 0.66520  0.81310  0.27870  Biso   1.000  N
  H1       1.0000 0.28490  0.16270  0.67270  Biso   1.000  H
  H2       1.0000 0.71510  0.83730  0.32730  Biso   1.000  H
  H3       1.0000 0.27200  0.23000  0.77120  Biso   1.000  H
  H4       1.0000 0.72800  0.77000  0.22880  Biso   1.000  H
  O1       1.0000 0.82450  0.77130  0.90510  Biso   1.000  O
  O2       1.0000 0.17550  0.22870  0.09490  Biso   1.000  O
  O3       1.0000 0.84680  0.00780  0.66440  Biso   1.000  O
  O4       1.0000 0.15320  0.99220  0.33560  Biso   1.000  O
  O5       1.0000 0.27480  0.92050  0.98470  Biso   1.000  O
  O6       1.0000 0.72520  0.07950  0.01530  Biso   1.000  O
  O7       1.0000 0.14790  0.76630  0.17300  Biso   1.000  O
  O8       1.0000 0.85210  0.23370  0.82700  Biso   1.000  O
  O9       1.0000 0.63460  0.13780  0.28930  Biso   1.000  O
  O10      1.0000 0.36540  0.86220  0.71070  Biso   1.000  O
  O11      1.0000 0.81690  0.29000  0.16190  Biso   1.000  O
  O12      1.0000 0.18310  0.71000  0.83810  Biso   1.000  O
  O13      1.0000 0.99840  0.68320  0.68820  Biso   1.000  O
  O14      1.0000 0.00160  0.31680  0.31180  Biso   1.000  O
  H5       1.0000 0.91390  0.64940  0.71750  Biso   1.000  H
  H6       1.0000 0.08610  0.35060  0.28250  Biso   1.000  H
  H7       1.0000 0.04700  0.63120  0.64520  Biso   1.000  H
  H8       1.0000 0.95300  0.36880  0.35480  Biso   1.000  H
  O15      1.0000 0.15190  0.99370  0.58030  Biso   1.000  O
  O16      1.0000 0.84810  0.00630  0.41970  Biso   1.000  O
  H9       1.0000 0.18780  0.01320  0.49830  Biso   1.000  H
  H10      1.0000 0.81220  0.98680  0.50170  Biso   1.000  H
  H11      1.0000 0.20660  0.02970  0.61080  Biso   1.000  H
  H12      1.0000 0.79340  0.97030  0.38920  Biso   1.000  H
  O17      1.0000 0.04640  0.99750  0.84300  Biso   1.000  O
  O18      1.0000 0.95360  0.00250  0.15700  Biso   1.000  O
  H13      1.0000 0.11630  0.99820  0.87970  Biso   1.000  H
  H14      1.0000 0.88370  0.00180  0.12030  Biso   1.000  H
  H15      1.0000 0.97400  0.04730  0.87000  Biso   1.000  H
  H16      1.0000 0.02600  0.95270  0.13000  Biso   1.000  H
  C1       1.0000 0.70850  0.84660  0.87430  Biso   1.000  C
  C2       1.0000 0.29150  0.15340  0.12570  Biso   1.000  C
  C3       1.0000 0.72270  0.98970  0.74060  Biso   1.000  C
  C4       1.0000 0.27730  0.01030  0.25940  Biso   1.000  C
  C5       1.0000 0.58320  0.20920  0.59540  Biso   1.000  C
  C6       1.0000 0.41680  0.79080  0.40460  Biso   1.000  C
  H17      1.0000 0.57400  0.17700  0.52550  Biso   1.000  H
  H18      1.0000 0.42600  0.82300  0.47450  Biso   1.000  H
  H19      1.0000 0.66520  0.27390  0.56350  Biso   1.000  H
  H20      1.0000 0.33480  0.72610  0.43650  Biso   1.000  H
  C7       1.0000 0.44550  0.29820  0.62990  Biso   1.000  C
  C8       1.0000 0.55450  0.70180  0.37010  Biso   1.000  C
  H21      1.0000 0.46590  0.36100  0.67340  Biso   1.000  H
  H22      1.0000 0.53410  0.63900  0.32660  Biso   1.000  H
  H23      1.0000 0.40910  0.36670  0.54820  Biso   1.000  H
  H24      1.0000 0.59090  0.63330  0.45180  Biso   1.000  H
  C9       1.0000 0.26340  0.79200  0.09030  Biso   1.000  C
  C10      1.0000 0.73660  0.20800  0.90970  Biso   1.000  C
  C11      1.0000 0.38300  0.66650  0.11590  Biso   1.000  C
  C12      1.0000 0.61700  0.33350  0.88410  Biso   1.000  C
  C13      1.0000 0.52900  0.68150  0.04430  Biso   1.000  C
  C14      1.0000 0.47100  0.31850  0.95570  Biso   1.000  C
  C15      1.0000 0.62320  0.54780  0.07970  Biso   1.000  C
  C16      1.0000 0.37680  0.45220  0.92030  Biso   1.000  C
  H25      1.0000 0.71870  0.55440  0.03490  Biso   1.000  H
  H26      1.0000 0.28130  0.44560  0.96510  Biso   1.000  H
  C17      1.0000 0.57900  0.40730  0.17840  Biso   1.000  C
  C18      1.0000 0.42100  0.59270  0.82160  Biso   1.000  C
  C19      1.0000 0.68440  0.26700  0.21180  Biso   1.000  C
  C20      1.0000 0.31560  0.73300  0.78820  Biso   1.000  C
  C21      1.0000 0.43670  0.39410  0.24900  Biso   1.000  C
  C22      1.0000 0.56330  0.60590  0.75100  Biso   1.000  C
  H27      1.0000 0.40670  0.29980  0.31660  Biso   1.000  H
  H28      1.0000 0.59330  0.70020  0.68340  Biso   1.000  H
  C23      1.0000 0.34200  0.52300  0.21680  Biso   1.000  C
  C24      1.0000 0.65800  0.47700  0.78320  Biso   1.000  C
  H29      1.0000 0.24740  0.51430  0.26370  Biso   1.000  H
  H30      1.0000 0.75260  0.48570  0.73630  Biso   1.000  H
  O19      1.0000 0.97250  0.69330  0.44580  Biso   1.000  O
  O20      1.0000 0.02750  0.30670  0.55420  Biso   1.000  O
  H31      1.0000 0.04140  0.73000  0.38050  Biso   1.000  H
  H32      1.0000 0.95860  0.27000  0.61950  Biso   1.000  H
  H33      1.0000 0.91470  0.65580  0.41950  Biso   1.000  H
  H34      1.0000 0.08530  0.34420  0.58050  Biso   1.000  H
  O21      1.0000 0.09080  0.37620  0.83220  Biso   1.000  O
  O22      1.0000 0.90920  0.62380  0.16780  Biso   1.000  O
  H35      1.0000 0.10080  0.34660  0.91360  Biso   1.000  H
  H36      1.0000 0.89920  0.65340  0.08640  Biso   1.000  H
  H37      1.0000 0.00900  0.34910  0.83230  Biso   1.000  H
  H38      1.0000 0.99100  0.65090  0.16770  Biso   1.000  H
