data_image0
_cell_length_a       6.081
_cell_length_b       13.402
_cell_length_c       16.185
_cell_angle_alpha    65.85
_cell_angle_beta     91.23
_cell_angle_gamma    82.25

_symmetry_space_group_name_H-M    "P 1"
_symmetry_int_tables_number       1

loop_
  _symmetry_equiv_pos_as_xyz
  'x, y, z'

loop_
  _atom_site_label
  _atom_site_occupancy
  _atom_site_fract_x
  _atom_site_fract_y
  _atom_site_fract_z
  _atom_site_thermal_displace_type
  _atom_site_B_iso_or_equiv
  _atom_site_type_symbol
  Cu1      1.0000 0.14818  0.27985  0.24859  Biso   1.000  Cu
  Cu2      1.0000 0.85182  0.72015  0.75141  Biso   1.000  Cu
  Cu3      1.0000 0.83638  0.52884  0.22336  Biso   1.000  Cu
  Cu4      1.0000 0.16362  0.47116  0.77664  Biso   1.000  Cu
  O1       1.0000 0.53860  0.26160  0.26310  Biso   1.000  O
  O2       1.0000 0.46140  0.73840  0.73690  Biso   1.000  O
  O3       1.0000 0.20440  0.42800  0.24130  Biso   1.000  O
  O4       1.0000 0.79560  0.57200  0.75870  Biso   1.000  O
  O5       1.0000 0.45480  0.54010  0.22490  Biso   1.000  O
  O6       1.0000 0.54520  0.45990  0.77510  Biso   1.000  O
  O7       1.0000 0.78680  0.37520  0.24540  Biso   1.000  O
  O8       1.0000 0.21320  0.62480  0.75460  Biso   1.000  O
  O9       1.0000 0.82680  0.57210  0.09190  Biso   1.000  O
  O10      1.0000 0.17320  0.42790  0.90810  Biso   1.000  O
  O11      1.0000 0.14860  0.33540  0.11620  Biso   1.000  O
  O12      1.0000 0.85140  0.66460  0.88380  Biso   1.000  O
  N1       1.0000 0.15670  0.21080  0.38450  Biso   1.000  N
  N2       1.0000 0.84330  0.78920  0.61550  Biso   1.000  N
  H1       1.0000 0.26500  0.23300  0.40850  Biso   1.000  H
  H2       1.0000 0.73500  0.76700  0.59150  Biso   1.000  H
  H3       1.0000 0.02570  0.23100  0.40250  Biso   1.000  H
  H4       1.0000 0.97430  0.76900  0.59750  Biso   1.000  H
  N3       1.0000 0.10030  0.12770  0.25660  Biso   1.000  N
  N4       1.0000 0.89970  0.87230  0.74340  Biso   1.000  N
  N5       1.0000 0.87140  0.68730  0.20730  Biso   1.000  N
  N6       1.0000 0.12860  0.31270  0.79270  Biso   1.000  N
  N7       1.0000 0.88170  0.48970  0.35710  Biso   1.000  N
  N8       1.0000 0.11830  0.51030  0.64290  Biso   1.000  N
  H5       1.0000 0.76880  0.45630  0.38550  Biso   1.000  H
  H6       1.0000 0.23120  0.54370  0.61450  Biso   1.000  H
  H7       1.0000 0.00930  0.44190  0.38050  Biso   1.000  H
  H8       1.0000 0.99070  0.55810  0.61950  Biso   1.000  H
  C1       1.0000 0.20070  0.08950  0.41470  Biso   1.000  C
  C2       1.0000 0.79930  0.91050  0.58530  Biso   1.000  C
  H9       1.0000 0.16430  0.05260  0.47700  Biso   1.000  H
  H10      1.0000 0.83570  0.94740  0.52300  Biso   1.000  H
  H11      1.0000 0.35670  0.06520  0.41150  Biso   1.000  H
  H12      1.0000 0.64330  0.93480  0.58850  Biso   1.000  H
  C3       1.0000 0.05660  0.06300  0.35220  Biso   1.000  C
  C4       1.0000 0.94340  0.93700  0.64780  Biso   1.000  C
  H13      1.0000 0.08830  0.98450  0.36680  Biso   1.000  H
  H14      1.0000 0.91170  0.01550  0.63320  Biso   1.000  H
  H15      1.0000 0.90090  0.08100  0.36030  Biso   1.000  H
  H16      1.0000 0.09910  0.91900  0.63970  Biso   1.000  H
  C5       1.0000 0.40120  0.45000  0.23740  Biso   1.000  C
  C6       1.0000 0.59880  0.55000  0.76260  Biso   1.000  C
  C7       1.0000 0.59230  0.35210  0.24960  Biso   1.000  C
  C8       1.0000 0.40770  0.64790  0.75040  Biso   1.000  C
  C9       1.0000 0.99790  0.66770  0.29430  Biso   1.000  C
  C10      1.0000 0.00210  0.33230  0.70570  Biso   1.000  C
  H17      1.0000 0.99640  0.73730  0.29960  Biso   1.000  H
  H18      1.0000 0.00360  0.26270  0.70040  Biso   1.000  H
  H19      1.0000 0.15150  0.63630  0.29480  Biso   1.000  H
  H20      1.0000 0.84850  0.36370  0.70520  Biso   1.000  H
  C11      1.0000 0.89160  0.58930  0.37280  Biso   1.000  C
  C12      1.0000 0.10840  0.41070  0.62720  Biso   1.000  C
  H21      1.0000 0.97920  0.57050  0.42940  Biso   1.000  H
  H22      1.0000 0.02080  0.42950  0.57060  Biso   1.000  H
  H23      1.0000 0.74290  0.62330  0.37630  Biso   1.000  H
  H24      1.0000 0.25710  0.37670  0.62370  Biso   1.000  H
  C13      1.0000 0.92620  0.52950  0.04420  Biso   1.000  C
  C14      1.0000 0.07380  0.47050  0.95580  Biso   1.000  C
  C15      1.0000 0.06400  0.42640  0.05480  Biso   1.000  C
  C16      1.0000 0.93600  0.57360  0.94520  Biso   1.000  C
  C17      1.0000 0.91950  0.12990  0.19190  Biso   1.000  C
  C18      1.0000 0.08050  0.87010  0.80810  Biso   1.000  C
  H25      1.0000 0.92460  0.18870  0.13230  Biso   1.000  H
  H26      1.0000 0.07540  0.81130  0.86770  Biso   1.000  H
  H27      1.0000 0.77460  0.14110  0.21340  Biso   1.000  H
  H28      1.0000 0.22540  0.85890  0.78660  Biso   1.000  H
  C19      1.0000 0.96390  0.01770  0.18850  Biso   1.000  C
  C20      1.0000 0.03610  0.98230  0.81150  Biso   1.000  C
  H29      1.0000 0.89060  0.96440  0.23540  Biso   1.000  H
  H30      1.0000 0.10940  0.03560  0.76460  Biso   1.000  H
  H31      1.0000 0.91090  0.02270  0.12980  Biso   1.000  H
  H32      1.0000 0.08910  0.97730  0.87020  Biso   1.000  H
  C21      1.0000 0.21410  0.98450  0.20450  Biso   1.000  C
  C22      1.0000 0.78590  0.01550  0.79550  Biso   1.000  C
  H33      1.0000 0.27730  0.98510  0.14980  Biso   1.000  H
  H34      1.0000 0.72270  0.01490  0.85020  Biso   1.000  H
  H35      1.0000 0.25400  0.91090  0.25300  Biso   1.000  H
  H36      1.0000 0.74600  0.08910  0.74700  Biso   1.000  H
  C23      1.0000 0.29730  0.07150  0.23090  Biso   1.000  C
  C24      1.0000 0.70270  0.92850  0.76910  Biso   1.000  C
  H37      1.0000 0.41040  0.03640  0.28160  Biso   1.000  H
  H38      1.0000 0.58960  0.96360  0.71840  Biso   1.000  H
  H39      1.0000 0.36080  0.12460  0.18010  Biso   1.000  H
  H40      1.0000 0.63920  0.87540  0.81990  Biso   1.000  H
  C25      1.0000 0.00020  0.74960  0.13090  Biso   1.000  C
  C26      1.0000 0.99980  0.25040  0.86910  Biso   1.000  C
  H41      1.0000 0.10540  0.69910  0.11650  Biso   1.000  H
  H42      1.0000 0.89460  0.30090  0.88350  Biso   1.000  H
  H43      1.0000 0.08140  0.79790  0.14640  Biso   1.000  H
  H44      1.0000 0.91860  0.20210  0.85360  Biso   1.000  H
  C27      1.0000 0.82730  0.81710  0.05060  Biso   1.000  C
  C28      1.0000 0.17270  0.18290  0.94940  Biso   1.000  C
  H45      1.0000 0.84140  0.78980  0.00360  Biso   1.000  H
  H46      1.0000 0.15860  0.21020  0.99640  Biso   1.000  H
  H47      1.0000 0.84420  0.89470  0.02480  Biso   1.000  H
  H48      1.0000 0.15580  0.10530  0.97520  Biso   1.000  H
  C29      1.0000 0.60110  0.80120  0.09140  Biso   1.000  C
  C30      1.0000 0.39890  0.19880  0.90860  Biso   1.000  C
  H49      1.0000 0.50030  0.87100  0.06900  Biso   1.000  H
  H50      1.0000 0.49970  0.12900  0.93100  Biso   1.000  H
  H51      1.0000 0.53290  0.74880  0.07620  Biso   1.000  H
  H52      1.0000 0.46710  0.25120  0.92380  Biso   1.000  H
  C31      1.0000 0.65410  0.75840  0.18980  Biso   1.000  C
  C32      1.0000 0.34590  0.24160  0.81020  Biso   1.000  C
  H53      1.0000 0.54210  0.71600  0.22260  Biso   1.000  H
  H54      1.0000 0.45790  0.28400  0.77740  Biso   1.000  H
  H55      1.0000 0.66280  0.81840  0.20790  Biso   1.000  H
  H56      1.0000 0.33720  0.18160  0.79210  Biso   1.000  H
  O13      1.0000 0.60000  0.34100  0.02700  Biso   1.000  O
  O14      1.0000 0.40000  0.65900  0.97300  Biso   1.000  O
  Cl1      1.0000 0.59720  0.25957  0.52386  Biso   1.000  Cl
  Cl2      1.0000 0.40280  0.74043  0.47614  Biso   1.000  Cl
  O15      1.0000 0.46010  0.34910  0.45360  Biso   1.000  O
  O16      1.0000 0.53990  0.65090  0.54640  Biso   1.000  O
  O17      1.0000 0.79700  0.23360  0.49870  Biso   1.000  O
  O18      1.0000 0.20300  0.76640  0.50130  Biso   1.000  O
  O19      1.0000 0.47900  0.17040  0.55570  Biso   1.000  O
  O20      1.0000 0.52100  0.82960  0.44430  Biso   1.000  O
  O21      1.0000 0.62400  0.29060  0.59610  Biso   1.000  O
  O22      1.0000 0.37600  0.70940  0.40390  Biso   1.000  O
  O23      1.0000 0.65100  0.18090  0.48470  Biso   1.000  O
  O24      1.0000 0.34900  0.81910  0.51530  Biso   1.000  O
  O25      1.0000 0.49400  0.21150  0.59970  Biso   1.000  O
  O26      1.0000 0.50600  0.78850  0.40030  Biso   1.000  O
  O27      1.0000 0.79900  0.28760  0.53990  Biso   1.000  O
  O28      1.0000 0.20100  0.71240  0.46010  Biso   1.000  O
