data_image0
_cell_length_a       10.644
_cell_length_b       10.254
_cell_length_c       8.363
_cell_angle_alpha    90
_cell_angle_beta     90.96
_cell_angle_gamma    90

_symmetry_space_group_name_H-M    "P 1"
_symmetry_int_tables_number       1

loop_
  _symmetry_equiv_pos_as_xyz
  'x, y, z'

loop_
  _atom_site_label
  _atom_site_occupancy
  _atom_site_fract_x
  _atom_site_fract_y
  _atom_site_fract_z
  _atom_site_thermal_displace_type
  _atom_site_B_iso_or_equiv
  _atom_site_type_symbol
  Cu1      1.0000 0.28656  0.00000  0.15070  Biso   1.000  Cu
  Cu2      1.0000 0.78656  0.50000  0.15070  Biso   1.000  Cu
  Cu3      1.0000 0.71344  0.00000  0.84930  Biso   1.000  Cu
  Cu4      1.0000 0.21344  0.50000  0.84930  Biso   1.000  Cu
  O1       1.0000 0.40660  0.13040  0.05950  Biso   1.000  O
  O2       1.0000 0.90660  0.63040  0.05950  Biso   1.000  O
  O3       1.0000 0.40660  0.86960  0.05950  Biso   1.000  O
  O4       1.0000 0.90660  0.36960  0.05950  Biso   1.000  O
  O5       1.0000 0.59340  0.86960  0.94050  Biso   1.000  O
  O6       1.0000 0.09340  0.36960  0.94050  Biso   1.000  O
  O7       1.0000 0.59340  0.13040  0.94050  Biso   1.000  O
  O8       1.0000 0.09340  0.63040  0.94050  Biso   1.000  O
  O9       1.0000 0.16580  0.85730  0.19930  Biso   1.000  O
  O10      1.0000 0.66580  0.35730  0.19930  Biso   1.000  O
  O11      1.0000 0.16580  0.14270  0.19930  Biso   1.000  O
  O12      1.0000 0.66580  0.64270  0.19930  Biso   1.000  O
  O13      1.0000 0.83420  0.14270  0.80070  Biso   1.000  O
  O14      1.0000 0.33420  0.64270  0.80070  Biso   1.000  O
  O15      1.0000 0.83420  0.85730  0.80070  Biso   1.000  O
  O16      1.0000 0.33420  0.35730  0.80070  Biso   1.000  O
  H1       1.0000 0.07800  0.87000  0.22300  Biso   1.000  H
  H2       1.0000 0.57800  0.37000  0.22300  Biso   1.000  H
  H3       1.0000 0.07800  0.13000  0.22300  Biso   1.000  H
  H4       1.0000 0.57800  0.63000  0.22300  Biso   1.000  H
  H5       1.0000 0.92200  0.13000  0.77700  Biso   1.000  H
  H6       1.0000 0.42200  0.63000  0.77700  Biso   1.000  H
  H7       1.0000 0.92200  0.87000  0.77700  Biso   1.000  H
  H8       1.0000 0.42200  0.37000  0.77700  Biso   1.000  H
  H9       1.0000 0.16700  0.76800  0.15900  Biso   1.000  H
  H10      1.0000 0.66700  0.26800  0.15900  Biso   1.000  H
  H11      1.0000 0.16700  0.23200  0.15900  Biso   1.000  H
  H12      1.0000 0.66700  0.73200  0.15900  Biso   1.000  H
  H13      1.0000 0.83300  0.23200  0.84100  Biso   1.000  H
  H14      1.0000 0.33300  0.73200  0.84100  Biso   1.000  H
  H15      1.0000 0.83300  0.76800  0.84100  Biso   1.000  H
  H16      1.0000 0.33300  0.26800  0.84100  Biso   1.000  H
  N1       1.0000 0.41050  0.00000  0.37670  Biso   1.000  N
  N2       1.0000 0.91050  0.50000  0.37670  Biso   1.000  N
  N3       1.0000 0.58950  0.00000  0.62330  Biso   1.000  N
  N4       1.0000 0.08950  0.50000  0.62330  Biso   1.000  N
  C1       1.0000 0.45570  0.11000  0.43880  Biso   1.000  C
  C2       1.0000 0.95570  0.61000  0.43880  Biso   1.000  C
  C3       1.0000 0.45570  0.89000  0.43880  Biso   1.000  C
  C4       1.0000 0.95570  0.39000  0.43880  Biso   1.000  C
  C5       1.0000 0.54430  0.89000  0.56120  Biso   1.000  C
  C6       1.0000 0.04430  0.39000  0.56120  Biso   1.000  C
  C7       1.0000 0.54430  0.11000  0.56120  Biso   1.000  C
  C8       1.0000 0.04430  0.61000  0.56120  Biso   1.000  C
  H17      1.0000 0.42680  0.18930  0.39870  Biso   1.000  H
  H18      1.0000 0.92680  0.68930  0.39870  Biso   1.000  H
  H19      1.0000 0.42680  0.81070  0.39870  Biso   1.000  H
  H20      1.0000 0.92680  0.31070  0.39870  Biso   1.000  H
  H21      1.0000 0.57320  0.81070  0.60130  Biso   1.000  H
  H22      1.0000 0.07320  0.31070  0.60130  Biso   1.000  H
  H23      1.0000 0.57320  0.18930  0.60130  Biso   1.000  H
  H24      1.0000 0.07320  0.68930  0.60130  Biso   1.000  H
  C9       1.0000 0.50000  0.07540  0.00000  Biso   1.000  C
  C10      1.0000 0.00000  0.57540  0.00000  Biso   1.000  C
  C11      1.0000 0.50000  0.92460  0.00000  Biso   1.000  C
  C12      1.0000 0.00000  0.42460  0.00000  Biso   1.000  C
  Cl1      1.0000 0.17371  0.00000  0.70720  Biso   1.000  Cl
  Cl2      1.0000 0.67371  0.50000  0.70720  Biso   1.000  Cl
  Cl3      1.0000 0.82629  0.00000  0.29280  Biso   1.000  Cl
  Cl4      1.0000 0.32629  0.50000  0.29280  Biso   1.000  Cl
  O17      1.0000 0.09970  0.00000  0.84150  Biso   1.000  O
  O18      1.0000 0.59970  0.50000  0.84150  Biso   1.000  O
  O19      1.0000 0.90030  0.00000  0.15850  Biso   1.000  O
  O20      1.0000 0.40030  0.50000  0.15850  Biso   1.000  O
  O21      1.0000 0.29830  0.00000  0.76100  Biso   1.000  O
  O22      1.0000 0.79830  0.50000  0.76100  Biso   1.000  O
  O23      1.0000 0.70170  0.00000  0.23900  Biso   1.000  O
  O24      1.0000 0.20170  0.50000  0.23900  Biso   1.000  O
  O25      1.0000 0.16020  0.10840  0.61410  Biso   1.000  O
  O26      1.0000 0.66020  0.60840  0.61410  Biso   1.000  O
  O27      1.0000 0.16020  0.89160  0.61410  Biso   1.000  O
  O28      1.0000 0.66020  0.39160  0.61410  Biso   1.000  O
  O29      1.0000 0.83980  0.89160  0.38590  Biso   1.000  O
  O30      1.0000 0.33980  0.39160  0.38590  Biso   1.000  O
  O31      1.0000 0.83980  0.10840  0.38590  Biso   1.000  O
  O32      1.0000 0.33980  0.60840  0.38590  Biso   1.000  O
  O33      1.0000 0.25400  0.10200  0.70600  Biso   1.000  O
  O34      1.0000 0.75400  0.60200  0.70600  Biso   1.000  O
  O35      1.0000 0.25400  0.89800  0.70600  Biso   1.000  O
  O36      1.0000 0.75400  0.39800  0.70600  Biso   1.000  O
  O37      1.0000 0.74600  0.89800  0.29400  Biso   1.000  O
  O38      1.0000 0.24600  0.39800  0.29400  Biso   1.000  O
  O39      1.0000 0.74600  0.10200  0.29400  Biso   1.000  O
  O40      1.0000 0.24600  0.60200  0.29400  Biso   1.000  O
  O41      1.0000 0.09500  0.00000  0.57400  Biso   1.000  O
  O42      1.0000 0.59500  0.50000  0.57400  Biso   1.000  O
  O43      1.0000 0.90500  0.00000  0.42600  Biso   1.000  O
  O44      1.0000 0.40500  0.50000  0.42600  Biso   1.000  O
