data_image0
_cell_length_a       29.3948
_cell_length_b       14.4396
_cell_length_c       10.7455
_cell_angle_alpha    90
_cell_angle_beta     108.826
_cell_angle_gamma    90

_symmetry_space_group_name_H-M    "P 1"
_symmetry_int_tables_number       1

loop_
  _symmetry_equiv_pos_as_xyz
  'x, y, z'

loop_
  _atom_site_label
  _atom_site_occupancy
  _atom_site_fract_x
  _atom_site_fract_y
  _atom_site_fract_z
  _atom_site_thermal_displace_type
  _atom_site_B_iso_or_equiv
  _atom_site_type_symbol
  Cu1      1.0000 0.29926  0.56252  0.12524  Biso   1.000  Cu
  Cu2      1.0000 0.79926  0.06252  0.12524  Biso   1.000  Cu
  Cu3      1.0000 0.29926  0.43748  0.62524  Biso   1.000  Cu
  Cu4      1.0000 0.79926  0.93748  0.62524  Biso   1.000  Cu
  Cu5      1.0000 0.70074  0.43748  0.87476  Biso   1.000  Cu
  Cu6      1.0000 0.20074  0.93748  0.87476  Biso   1.000  Cu
  Cu7      1.0000 0.70074  0.56252  0.37476  Biso   1.000  Cu
  Cu8      1.0000 0.20074  0.06252  0.37476  Biso   1.000  Cu
  Cu9      1.0000 0.25000  0.75000  0.00000  Biso   1.000  Cu
  Cu10     1.0000 0.75000  0.25000  0.00000  Biso   1.000  Cu
  Cu11     1.0000 0.25000  0.25000  0.50000  Biso   1.000  Cu
  Cu12     1.0000 0.75000  0.75000  0.50000  Biso   1.000  Cu
  S1       1.0000 0.26938  0.00136  0.70470  Biso   1.000  S
  S2       1.0000 0.76938  0.50136  0.70470  Biso   1.000  S
  S3       1.0000 0.26938  0.99864  0.20470  Biso   1.000  S
  S4       1.0000 0.76938  0.49864  0.20470  Biso   1.000  S
  S5       1.0000 0.73062  0.99864  0.29530  Biso   1.000  S
  S6       1.0000 0.23062  0.49864  0.29530  Biso   1.000  S
  S7       1.0000 0.73062  0.00136  0.79530  Biso   1.000  S
  S8       1.0000 0.23062  0.50136  0.79530  Biso   1.000  S
  O1       1.0000 0.27560  0.68100  0.15570  Biso   1.000  O
  O2       1.0000 0.77560  0.18100  0.15570  Biso   1.000  O
  O3       1.0000 0.27560  0.31900  0.65570  Biso   1.000  O
  O4       1.0000 0.77560  0.81900  0.65570  Biso   1.000  O
  O5       1.0000 0.72440  0.31900  0.84430  Biso   1.000  O
  O6       1.0000 0.22440  0.81900  0.84430  Biso   1.000  O
  O7       1.0000 0.72440  0.68100  0.34430  Biso   1.000  O
  O8       1.0000 0.22440  0.18100  0.34430  Biso   1.000  O
  H1       1.0000 0.27670  0.70220  0.23840  Biso   1.000  H
  H2       1.0000 0.77670  0.20220  0.23840  Biso   1.000  H
  H3       1.0000 0.27670  0.29780  0.73840  Biso   1.000  H
  H4       1.0000 0.77670  0.79780  0.73840  Biso   1.000  H
  H5       1.0000 0.72330  0.29780  0.76160  Biso   1.000  H
  H6       1.0000 0.22330  0.79780  0.76160  Biso   1.000  H
  H7       1.0000 0.72330  0.70220  0.26160  Biso   1.000  H
  H8       1.0000 0.22330  0.20220  0.26160  Biso   1.000  H
  O9       1.0000 0.26130  0.06490  0.59500  Biso   1.000  O
  O10      1.0000 0.76130  0.56490  0.59500  Biso   1.000  O
  O11      1.0000 0.26130  0.93510  0.09500  Biso   1.000  O
  O12      1.0000 0.76130  0.43510  0.09500  Biso   1.000  O
  O13      1.0000 0.73870  0.93510  0.40500  Biso   1.000  O
  O14      1.0000 0.23870  0.43510  0.40500  Biso   1.000  O
  O15      1.0000 0.73870  0.06490  0.90500  Biso   1.000  O
  O16      1.0000 0.23870  0.56490  0.90500  Biso   1.000  O
  O17      1.0000 0.26680  0.90450  0.67390  Biso   1.000  O
  O18      1.0000 0.76680  0.40450  0.67390  Biso   1.000  O
  O19      1.0000 0.26680  0.09550  0.17390  Biso   1.000  O
  O20      1.0000 0.76680  0.59550  0.17390  Biso   1.000  O
  O21      1.0000 0.73320  0.09550  0.32610  Biso   1.000  O
  O22      1.0000 0.23320  0.59550  0.32610  Biso   1.000  O
  O23      1.0000 0.73320  0.90450  0.82610  Biso   1.000  O
  O24      1.0000 0.23320  0.40450  0.82610  Biso   1.000  O
  O25      1.0000 0.34940  0.62520  0.06930  Biso   1.000  O
  O26      1.0000 0.84940  0.12520  0.06930  Biso   1.000  O
  O27      1.0000 0.34940  0.37480  0.56930  Biso   1.000  O
  O28      1.0000 0.84940  0.87480  0.56930  Biso   1.000  O
  O29      1.0000 0.65060  0.37480  0.93070  Biso   1.000  O
  O30      1.0000 0.15060  0.87480  0.93070  Biso   1.000  O
  O31      1.0000 0.65060  0.62520  0.43070  Biso   1.000  O
  O32      1.0000 0.15060  0.12520  0.43070  Biso   1.000  O
  O33      1.0000 0.31380  0.75350  0.96960  Biso   1.000  O
  O34      1.0000 0.81380  0.25350  0.96960  Biso   1.000  O
  O35      1.0000 0.31380  0.24650  0.46960  Biso   1.000  O
  O36      1.0000 0.81380  0.74650  0.46960  Biso   1.000  O
  O37      1.0000 0.68620  0.24650  0.03040  Biso   1.000  O
  O38      1.0000 0.18620  0.74650  0.03040  Biso   1.000  O
  O39      1.0000 0.68620  0.75350  0.53040  Biso   1.000  O
  O40      1.0000 0.18620  0.25350  0.53040  Biso   1.000  O
  N1       1.0000 0.32580  0.44100  0.08510  Biso   1.000  N
  N2       1.0000 0.82580  0.94100  0.08510  Biso   1.000  N
  N3       1.0000 0.32580  0.55900  0.58510  Biso   1.000  N
  N4       1.0000 0.82580  0.05900  0.58510  Biso   1.000  N
  N5       1.0000 0.67420  0.55900  0.91490  Biso   1.000  N
  N6       1.0000 0.17420  0.05900  0.91490  Biso   1.000  N
  N7       1.0000 0.67420  0.44100  0.41490  Biso   1.000  N
  N8       1.0000 0.17420  0.94100  0.41490  Biso   1.000  N
  N9       1.0000 0.26560  0.47700  0.21180  Biso   1.000  N
  N10      1.0000 0.76560  0.97700  0.21180  Biso   1.000  N
  N11      1.0000 0.26560  0.52300  0.71180  Biso   1.000  N
  N12      1.0000 0.76560  0.02300  0.71180  Biso   1.000  N
  N13      1.0000 0.73440  0.52300  0.78820  Biso   1.000  N
  N14      1.0000 0.23440  0.02300  0.78820  Biso   1.000  N
  N15      1.0000 0.73440  0.47700  0.28820  Biso   1.000  N
  N16      1.0000 0.23440  0.97700  0.28820  Biso   1.000  N
  C1       1.0000 0.35680  0.42870  0.02060  Biso   1.000  C
  C2       1.0000 0.85680  0.92870  0.02060  Biso   1.000  C
  C3       1.0000 0.35680  0.57130  0.52060  Biso   1.000  C
  C4       1.0000 0.85680  0.07130  0.52060  Biso   1.000  C
  C5       1.0000 0.64320  0.57130  0.97940  Biso   1.000  C
  C6       1.0000 0.14320  0.07130  0.97940  Biso   1.000  C
  C7       1.0000 0.64320  0.42870  0.47940  Biso   1.000  C
  C8       1.0000 0.14320  0.92870  0.47940  Biso   1.000  C
  H9       1.0000 0.36990  0.48090  0.99440  Biso   1.000  H
  H10      1.0000 0.86990  0.98090  0.99440  Biso   1.000  H
  H11      1.0000 0.36990  0.51910  0.49440  Biso   1.000  H
  H12      1.0000 0.86990  0.01910  0.49440  Biso   1.000  H
  H13      1.0000 0.63010  0.51910  0.00560  Biso   1.000  H
  H14      1.0000 0.13010  0.01910  0.00560  Biso   1.000  H
  H15      1.0000 0.63010  0.48090  0.50560  Biso   1.000  H
  H16      1.0000 0.13010  0.98090  0.50560  Biso   1.000  H
  C9       1.0000 0.37040  0.34570  0.99100  Biso   1.000  C
  C10      1.0000 0.87040  0.84570  0.99100  Biso   1.000  C
  C11      1.0000 0.37040  0.65430  0.49100  Biso   1.000  C
  C12      1.0000 0.87040  0.15430  0.49100  Biso   1.000  C
  C13      1.0000 0.62960  0.65430  0.00900  Biso   1.000  C
  C14      1.0000 0.12960  0.15430  0.00900  Biso   1.000  C
  C15      1.0000 0.62960  0.34570  0.50900  Biso   1.000  C
  C16      1.0000 0.12960  0.84570  0.50900  Biso   1.000  C
  H17      1.0000 0.39180  0.34100  0.94360  Biso   1.000  H
  H18      1.0000 0.89180  0.84100  0.94360  Biso   1.000  H
  H19      1.0000 0.39180  0.65900  0.44360  Biso   1.000  H
  H20      1.0000 0.89180  0.15900  0.44360  Biso   1.000  H
  H21      1.0000 0.60820  0.65900  0.05640  Biso   1.000  H
  H22      1.0000 0.10820  0.15900  0.05640  Biso   1.000  H
  H23      1.0000 0.60820  0.34100  0.55640  Biso   1.000  H
  H24      1.0000 0.10820  0.84100  0.55640  Biso   1.000  H
  C17      1.0000 0.35320  0.26950  0.02900  Biso   1.000  C
  C18      1.0000 0.85320  0.76950  0.02900  Biso   1.000  C
  C19      1.0000 0.35320  0.73050  0.52900  Biso   1.000  C
  C20      1.0000 0.85320  0.23050  0.52900  Biso   1.000  C
  C21      1.0000 0.64680  0.73050  0.97100  Biso   1.000  C
  C22      1.0000 0.14680  0.23050  0.97100  Biso   1.000  C
  C23      1.0000 0.64680  0.26950  0.47100  Biso   1.000  C
  C24      1.0000 0.14680  0.76950  0.47100  Biso   1.000  C
  H25      1.0000 0.36400  0.21150  0.01400  Biso   1.000  H
  H26      1.0000 0.86400  0.71150  0.01400  Biso   1.000  H
  H27      1.0000 0.36400  0.78850  0.51400  Biso   1.000  H
  H28      1.0000 0.86400  0.28850  0.51400  Biso   1.000  H
  H29      1.0000 0.63600  0.78850  0.98600  Biso   1.000  H
  H30      1.0000 0.13600  0.28850  0.98600  Biso   1.000  H
  H31      1.0000 0.63600  0.21150  0.48600  Biso   1.000  H
  H32      1.0000 0.13600  0.71150  0.48600  Biso   1.000  H
  C25      1.0000 0.31980  0.27720  0.09130  Biso   1.000  C
  C26      1.0000 0.81980  0.77720  0.09130  Biso   1.000  C
  C27      1.0000 0.31980  0.72280  0.59130  Biso   1.000  C
  C28      1.0000 0.81980  0.22280  0.59130  Biso   1.000  C
  C29      1.0000 0.68020  0.72280  0.90870  Biso   1.000  C
  C30      1.0000 0.18020  0.22280  0.90870  Biso   1.000  C
  C31      1.0000 0.68020  0.27720  0.40870  Biso   1.000  C
  C32      1.0000 0.18020  0.77720  0.40870  Biso   1.000  C
  H33      1.0000 0.30680  0.22440  0.11610  Biso   1.000  H
  H34      1.0000 0.80680  0.72440  0.11610  Biso   1.000  H
  H35      1.0000 0.30680  0.77560  0.61610  Biso   1.000  H
  H36      1.0000 0.80680  0.27560  0.61610  Biso   1.000  H
  H37      1.0000 0.69320  0.77560  0.88390  Biso   1.000  H
  H38      1.0000 0.19320  0.27560  0.88390  Biso   1.000  H
  H39      1.0000 0.69320  0.22440  0.38390  Biso   1.000  H
  H40      1.0000 0.19320  0.72440  0.38390  Biso   1.000  H
  C33      1.0000 0.30520  0.36440  0.11710  Biso   1.000  C
  C34      1.0000 0.80520  0.86440  0.11710  Biso   1.000  C
  C35      1.0000 0.30520  0.63560  0.61710  Biso   1.000  C
  C36      1.0000 0.80520  0.13560  0.61710  Biso   1.000  C
  C37      1.0000 0.69480  0.63560  0.88290  Biso   1.000  C
  C38      1.0000 0.19480  0.13560  0.88290  Biso   1.000  C
  C39      1.0000 0.69480  0.36440  0.38290  Biso   1.000  C
  C40      1.0000 0.19480  0.86440  0.38290  Biso   1.000  C
  C41      1.0000 0.26660  0.38080  0.17760  Biso   1.000  C
  C42      1.0000 0.76660  0.88080  0.17760  Biso   1.000  C
  C43      1.0000 0.26660  0.61920  0.67760  Biso   1.000  C
  C44      1.0000 0.76660  0.11920  0.67760  Biso   1.000  C
  C45      1.0000 0.73340  0.61920  0.82240  Biso   1.000  C
  C46      1.0000 0.23340  0.11920  0.82240  Biso   1.000  C
  C47      1.0000 0.73340  0.38080  0.32240  Biso   1.000  C
  C48      1.0000 0.23340  0.88080  0.32240  Biso   1.000  C
  H41      1.0000 0.23570  0.36330  0.11590  Biso   1.000  H
  H42      1.0000 0.73570  0.86330  0.11590  Biso   1.000  H
  H43      1.0000 0.23570  0.63670  0.61590  Biso   1.000  H
  H44      1.0000 0.73570  0.13670  0.61590  Biso   1.000  H
  H45      1.0000 0.76430  0.63670  0.88410  Biso   1.000  H
  H46      1.0000 0.26430  0.13670  0.88410  Biso   1.000  H
  H47      1.0000 0.76430  0.36330  0.38410  Biso   1.000  H
  H48      1.0000 0.26430  0.86330  0.38410  Biso   1.000  H
  H49      1.0000 0.27250  0.34290  0.25570  Biso   1.000  H
  H50      1.0000 0.77250  0.84290  0.25570  Biso   1.000  H
  H51      1.0000 0.27250  0.65710  0.75570  Biso   1.000  H
  H52      1.0000 0.77250  0.15710  0.75570  Biso   1.000  H
  H53      1.0000 0.72750  0.65710  0.74430  Biso   1.000  H
  H54      1.0000 0.22750  0.15710  0.74430  Biso   1.000  H
  H55      1.0000 0.72750  0.34290  0.24430  Biso   1.000  H
  H56      1.0000 0.22750  0.84290  0.24430  Biso   1.000  H
  C49      1.0000 0.32950  0.02720  0.80800  Biso   1.000  C
  C50      1.0000 0.82950  0.52720  0.80800  Biso   1.000  C
  C51      1.0000 0.32950  0.97280  0.30800  Biso   1.000  C
  C52      1.0000 0.82950  0.47280  0.30800  Biso   1.000  C
  C53      1.0000 0.67050  0.97280  0.19200  Biso   1.000  C
  C54      1.0000 0.17050  0.47280  0.19200  Biso   1.000  C
  C55      1.0000 0.67050  0.02720  0.69200  Biso   1.000  C
  C56      1.0000 0.17050  0.52720  0.69200  Biso   1.000  C
  C57      1.0000 0.35540  0.09430  0.77510  Biso   1.000  C
  C58      1.0000 0.85540  0.59430  0.77510  Biso   1.000  C
  C59      1.0000 0.35540  0.90570  0.27510  Biso   1.000  C
  C60      1.0000 0.85540  0.40570  0.27510  Biso   1.000  C
  C61      1.0000 0.64460  0.90570  0.22490  Biso   1.000  C
  C62      1.0000 0.14460  0.40570  0.22490  Biso   1.000  C
  C63      1.0000 0.64460  0.09430  0.72490  Biso   1.000  C
  C64      1.0000 0.14460  0.59430  0.72490  Biso   1.000  C
  H57      1.0000 0.34230  0.12810  0.69810  Biso   1.000  H
  H58      1.0000 0.84230  0.62810  0.69810  Biso   1.000  H
  H59      1.0000 0.34230  0.87190  0.19810  Biso   1.000  H
  H60      1.0000 0.84230  0.37190  0.19810  Biso   1.000  H
  H61      1.0000 0.65770  0.87190  0.30190  Biso   1.000  H
  H62      1.0000 0.15770  0.37190  0.30190  Biso   1.000  H
  H63      1.0000 0.65770  0.12810  0.80190  Biso   1.000  H
  H64      1.0000 0.15770  0.62810  0.80190  Biso   1.000  H
  C65      1.0000 0.40250  0.11270  0.85880  Biso   1.000  C
  C66      1.0000 0.90250  0.61270  0.85880  Biso   1.000  C
  C67      1.0000 0.40250  0.88730  0.35880  Biso   1.000  C
  C68      1.0000 0.90250  0.38730  0.35880  Biso   1.000  C
  C69      1.0000 0.59750  0.88730  0.14120  Biso   1.000  C
  C70      1.0000 0.09750  0.38730  0.14120  Biso   1.000  C
  C71      1.0000 0.59750  0.11270  0.64120  Biso   1.000  C
  C72      1.0000 0.09750  0.61270  0.64120  Biso   1.000  C
  C73      1.0000 0.43060  0.18410  0.83020  Biso   1.000  C
  C74      1.0000 0.93060  0.68410  0.83020  Biso   1.000  C
  C75      1.0000 0.43060  0.81590  0.33020  Biso   1.000  C
  C76      1.0000 0.93060  0.31590  0.33020  Biso   1.000  C
  C77      1.0000 0.56940  0.81590  0.16980  Biso   1.000  C
  C78      1.0000 0.06940  0.31590  0.16980  Biso   1.000  C
  C79      1.0000 0.56940  0.18410  0.66980  Biso   1.000  C
  C80      1.0000 0.06940  0.68410  0.66980  Biso   1.000  C
  H65      1.0000 0.41760  0.22020  0.75540  Biso   1.000  H
  H66      1.0000 0.91760  0.72020  0.75540  Biso   1.000  H
  H67      1.0000 0.41760  0.77980  0.25540  Biso   1.000  H
  H68      1.0000 0.91760  0.27980  0.25540  Biso   1.000  H
  H69      1.0000 0.58240  0.77980  0.24460  Biso   1.000  H
  H70      1.0000 0.08240  0.27980  0.24460  Biso   1.000  H
  H71      1.0000 0.58240  0.22020  0.74460  Biso   1.000  H
  H72      1.0000 0.08240  0.72020  0.74460  Biso   1.000  H
  C81      1.0000 0.47620  0.20090  0.91000  Biso   1.000  C
  C82      1.0000 0.97620  0.70090  0.91000  Biso   1.000  C
  C83      1.0000 0.47620  0.79910  0.41000  Biso   1.000  C
  C84      1.0000 0.97620  0.29910  0.41000  Biso   1.000  C
  C85      1.0000 0.52380  0.79910  0.09000  Biso   1.000  C
  C86      1.0000 0.02380  0.29910  0.09000  Biso   1.000  C
  C87      1.0000 0.52380  0.20090  0.59000  Biso   1.000  C
  C88      1.0000 0.02380  0.70090  0.59000  Biso   1.000  C
  H73      1.0000 0.49510  0.24530  0.88800  Biso   1.000  H
  H74      1.0000 0.99510  0.74530  0.88800  Biso   1.000  H
  H75      1.0000 0.49510  0.75470  0.38800  Biso   1.000  H
  H76      1.0000 0.99510  0.25470  0.38800  Biso   1.000  H
  H77      1.0000 0.50490  0.75470  0.11200  Biso   1.000  H
  H78      1.0000 0.00490  0.25470  0.11200  Biso   1.000  H
  H79      1.0000 0.50490  0.24530  0.61200  Biso   1.000  H
  H80      1.0000 0.00490  0.74530  0.61200  Biso   1.000  H
  C89      1.0000 0.49420  0.15030  0.02700  Biso   1.000  C
  C90      1.0000 0.99420  0.65030  0.02700  Biso   1.000  C
  C91      1.0000 0.49420  0.84970  0.52700  Biso   1.000  C
  C92      1.0000 0.99420  0.34970  0.52700  Biso   1.000  C
  C93      1.0000 0.50580  0.84970  0.97300  Biso   1.000  C
  C94      1.0000 0.00580  0.34970  0.97300  Biso   1.000  C
  C95      1.0000 0.50580  0.15030  0.47300  Biso   1.000  C
  C96      1.0000 0.00580  0.65030  0.47300  Biso   1.000  C
  H81      1.0000 0.52440  0.16470  0.08510  Biso   1.000  H
  H82      1.0000 0.02440  0.66470  0.08510  Biso   1.000  H
  H83      1.0000 0.52440  0.83530  0.58510  Biso   1.000  H
  H84      1.0000 0.02440  0.33530  0.58510  Biso   1.000  H
  H85      1.0000 0.47560  0.83530  0.91490  Biso   1.000  H
  H86      1.0000 0.97560  0.33530  0.91490  Biso   1.000  H
  H87      1.0000 0.47560  0.16470  0.41490  Biso   1.000  H
  H88      1.0000 0.97560  0.66470  0.41490  Biso   1.000  H
  C97      1.0000 0.46850  0.08090  0.05630  Biso   1.000  C
  C98      1.0000 0.96850  0.58090  0.05630  Biso   1.000  C
  C99      1.0000 0.46850  0.91910  0.55630  Biso   1.000  C
  C100     1.0000 0.96850  0.41910  0.55630  Biso   1.000  C
  C101     1.0000 0.53150  0.91910  0.94370  Biso   1.000  C
  C102     1.0000 0.03150  0.41910  0.94370  Biso   1.000  C
  C103     1.0000 0.53150  0.08090  0.44370  Biso   1.000  C
  C104     1.0000 0.03150  0.58090  0.44370  Biso   1.000  C
  H89      1.0000 0.48190  0.04560  0.13170  Biso   1.000  H
  H90      1.0000 0.98190  0.54560  0.13170  Biso   1.000  H
  H91      1.0000 0.48190  0.95440  0.63170  Biso   1.000  H
  H92      1.0000 0.98190  0.45440  0.63170  Biso   1.000  H
  H93      1.0000 0.51810  0.95440  0.86830  Biso   1.000  H
  H94      1.0000 0.01810  0.45440  0.86830  Biso   1.000  H
  H95      1.0000 0.51810  0.04560  0.36830  Biso   1.000  H
  H96      1.0000 0.01810  0.54560  0.36830  Biso   1.000  H
  C105     1.0000 0.42150  0.06190  0.97310  Biso   1.000  C
  C106     1.0000 0.92150  0.56190  0.97310  Biso   1.000  C
  C107     1.0000 0.42150  0.93810  0.47310  Biso   1.000  C
  C108     1.0000 0.92150  0.43810  0.47310  Biso   1.000  C
  C109     1.0000 0.57850  0.93810  0.02690  Biso   1.000  C
  C110     1.0000 0.07850  0.43810  0.02690  Biso   1.000  C
  C111     1.0000 0.57850  0.06190  0.52690  Biso   1.000  C
  C112     1.0000 0.07850  0.56190  0.52690  Biso   1.000  C
  C113     1.0000 0.39360  0.99200  0.00250  Biso   1.000  C
  C114     1.0000 0.89360  0.49200  0.00250  Biso   1.000  C
  C115     1.0000 0.39360  0.00800  0.50250  Biso   1.000  C
  C116     1.0000 0.89360  0.50800  0.50250  Biso   1.000  C
  C117     1.0000 0.60640  0.00800  0.99750  Biso   1.000  C
  C118     1.0000 0.10640  0.50800  0.99750  Biso   1.000  C
  C119     1.0000 0.60640  0.99200  0.49750  Biso   1.000  C
  C120     1.0000 0.10640  0.49200  0.49750  Biso   1.000  C
  H97      1.0000 0.40680  0.95630  0.07760  Biso   1.000  H
  H98      1.0000 0.90680  0.45630  0.07760  Biso   1.000  H
  H99      1.0000 0.40680  0.04370  0.57760  Biso   1.000  H
  H100     1.0000 0.90680  0.54370  0.57760  Biso   1.000  H
  H101     1.0000 0.59320  0.04370  0.92240  Biso   1.000  H
  H102     1.0000 0.09320  0.54370  0.92240  Biso   1.000  H
  H103     1.0000 0.59320  0.95630  0.42240  Biso   1.000  H
  H104     1.0000 0.09320  0.45630  0.42240  Biso   1.000  H
  C121     1.0000 0.34700  0.97450  0.92300  Biso   1.000  C
  C122     1.0000 0.84700  0.47450  0.92300  Biso   1.000  C
  C123     1.0000 0.34700  0.02550  0.42300  Biso   1.000  C
  C124     1.0000 0.84700  0.52550  0.42300  Biso   1.000  C
  C125     1.0000 0.65300  0.02550  0.07700  Biso   1.000  C
  C126     1.0000 0.15300  0.52550  0.07700  Biso   1.000  C
  C127     1.0000 0.65300  0.97450  0.57700  Biso   1.000  C
  C128     1.0000 0.15300  0.47450  0.57700  Biso   1.000  C
  H105     1.0000 0.32820  0.92970  0.94500  Biso   1.000  H
  H106     1.0000 0.82820  0.42970  0.94500  Biso   1.000  H
  H107     1.0000 0.32820  0.07030  0.44500  Biso   1.000  H
  H108     1.0000 0.82820  0.57030  0.44500  Biso   1.000  H
  H109     1.0000 0.67180  0.07030  0.05500  Biso   1.000  H
  H110     1.0000 0.17180  0.57030  0.05500  Biso   1.000  H
  H111     1.0000 0.67180  0.92970  0.55500  Biso   1.000  H
  H112     1.0000 0.17180  0.42970  0.55500  Biso   1.000  H
  C129     1.0000 0.34770  0.69770  0.00700  Biso   1.000  C
  C130     1.0000 0.84770  0.19770  0.00700  Biso   1.000  C
  C131     1.0000 0.34770  0.30230  0.50700  Biso   1.000  C
  C132     1.0000 0.84770  0.80230  0.50700  Biso   1.000  C
  C133     1.0000 0.65230  0.30230  0.99300  Biso   1.000  C
  C134     1.0000 0.15230  0.80230  0.99300  Biso   1.000  C
  C135     1.0000 0.65230  0.69770  0.49300  Biso   1.000  C
  C136     1.0000 0.15230  0.19770  0.49300  Biso   1.000  C
  C137     1.0000 0.38980  0.72020  0.96390  Biso   1.000  C
  C138     1.0000 0.88980  0.22020  0.96390  Biso   1.000  C
  C139     1.0000 0.38980  0.27980  0.46390  Biso   1.000  C
  C140     1.0000 0.88980  0.77980  0.46390  Biso   1.000  C
  C141     1.0000 0.61020  0.27980  0.03610  Biso   1.000  C
  C142     1.0000 0.11020  0.77980  0.03610  Biso   1.000  C
  C143     1.0000 0.61020  0.72020  0.53610  Biso   1.000  C
  C144     1.0000 0.11020  0.22020  0.53610  Biso   1.000  C
  H113     1.0000 0.41870  0.71810  0.03840  Biso   1.000  H
  H114     1.0000 0.91870  0.21810  0.03840  Biso   1.000  H
  H115     1.0000 0.41870  0.28190  0.53840  Biso   1.000  H
  H116     1.0000 0.91870  0.78190  0.53840  Biso   1.000  H
  H117     1.0000 0.58130  0.28190  0.96160  Biso   1.000  H
  H118     1.0000 0.08130  0.78190  0.96160  Biso   1.000  H
  H119     1.0000 0.58130  0.71810  0.46160  Biso   1.000  H
  H120     1.0000 0.08130  0.21810  0.46160  Biso   1.000  H
  H121     1.0000 0.38590  0.78110  0.92620  Biso   1.000  H
  H122     1.0000 0.88590  0.28110  0.92620  Biso   1.000  H
  H123     1.0000 0.38590  0.21890  0.42620  Biso   1.000  H
  H124     1.0000 0.88590  0.71890  0.42620  Biso   1.000  H
  H125     1.0000 0.61410  0.21890  0.07380  Biso   1.000  H
  H126     1.0000 0.11410  0.71890  0.07380  Biso   1.000  H
  H127     1.0000 0.61410  0.78110  0.57380  Biso   1.000  H
  H128     1.0000 0.11410  0.28110  0.57380  Biso   1.000  H
  H129     1.0000 0.39200  0.67580  0.89950  Biso   1.000  H
  H130     1.0000 0.89200  0.17580  0.89950  Biso   1.000  H
  H131     1.0000 0.39200  0.32420  0.39950  Biso   1.000  H
  H132     1.0000 0.89200  0.82420  0.39950  Biso   1.000  H
  H133     1.0000 0.60800  0.32420  0.10050  Biso   1.000  H
  H134     1.0000 0.10800  0.82420  0.10050  Biso   1.000  H
  H135     1.0000 0.60800  0.67580  0.60050  Biso   1.000  H
  H136     1.0000 0.10800  0.17580  0.60050  Biso   1.000  H
