data_image0
_cell_length_a       7.163
_cell_length_b       18.604
_cell_length_c       7.357
_cell_angle_alpha    90
_cell_angle_beta     113.38
_cell_angle_gamma    90

_symmetry_space_group_name_H-M    "P 1"
_symmetry_int_tables_number       1

loop_
  _symmetry_equiv_pos_as_xyz
  'x, y, z'

loop_
  _atom_site_label
  _atom_site_occupancy
  _atom_site_fract_x
  _atom_site_fract_y
  _atom_site_fract_z
  _atom_site_thermal_displace_type
  _atom_site_B_iso_or_equiv
  _atom_site_type_symbol
  Cl1      1.0000 0.15307  0.29022  0.79480  Biso   1.000  Cl
  Cl2      1.0000 0.65307  0.20978  0.79480  Biso   1.000  Cl
  Cl3      1.0000 0.84693  0.70978  0.20520  Biso   1.000  Cl
  Cl4      1.0000 0.34693  0.79022  0.20520  Biso   1.000  Cl
  Cu1      1.0000 0.29255  0.18032  0.83113  Biso   1.000  Cu
  Cu2      1.0000 0.79255  0.31968  0.83113  Biso   1.000  Cu
  Cu3      1.0000 0.70745  0.81968  0.16887  Biso   1.000  Cu
  Cu4      1.0000 0.20745  0.68032  0.16887  Biso   1.000  Cu
  O1       1.0000 0.17380  0.98673  0.32190  Biso   1.000  O
  O2       1.0000 0.67380  0.51327  0.32190  Biso   1.000  O
  O3       1.0000 0.82620  0.01327  0.67810  Biso   1.000  O
  O4       1.0000 0.32620  0.48673  0.67810  Biso   1.000  O
  O5       1.0000 0.36770  0.07854  0.86160  Biso   1.000  O
  O6       1.0000 0.86770  0.42146  0.86160  Biso   1.000  O
  O7       1.0000 0.63230  0.92146  0.13840  Biso   1.000  O
  O8       1.0000 0.13230  0.57854  0.13840  Biso   1.000  O
  O9       1.0000 0.15660  0.15755  0.55070  Biso   1.000  O
  O10      1.0000 0.65660  0.34245  0.55070  Biso   1.000  O
  O11      1.0000 0.84340  0.84245  0.44930  Biso   1.000  O
  O12      1.0000 0.34340  0.65755  0.44930  Biso   1.000  O
  O13      1.0000 0.41710  0.18564  0.12170  Biso   1.000  O
  O14      1.0000 0.91710  0.31436  0.12170  Biso   1.000  O
  O15      1.0000 0.58290  0.81436  0.87830  Biso   1.000  O
  O16      1.0000 0.08290  0.68564  0.87830  Biso   1.000  O
  O17      1.0000 0.79540  0.23087  0.35650  Biso   1.000  O
  O18      1.0000 0.29540  0.26913  0.35650  Biso   1.000  O
  O19      1.0000 0.20460  0.76913  0.64350  Biso   1.000  O
  O20      1.0000 0.70460  0.73087  0.64350  Biso   1.000  O
  C1       1.0000 0.31170  0.04790  0.69380  Biso   1.000  C
  C2       1.0000 0.81170  0.45210  0.69380  Biso   1.000  C
  C3       1.0000 0.68830  0.95210  0.30620  Biso   1.000  C
  C4       1.0000 0.18830  0.54790  0.30620  Biso   1.000  C
  C5       1.0000 0.19490  0.08910  0.52070  Biso   1.000  C
  C6       1.0000 0.69490  0.41090  0.52070  Biso   1.000  C
  C7       1.0000 0.80510  0.91090  0.47930  Biso   1.000  C
  C8       1.0000 0.30510  0.58910  0.47930  Biso   1.000  C
  C9       1.0000 0.12900  0.05720  0.33880  Biso   1.000  C
  C10      1.0000 0.62900  0.44280  0.33880  Biso   1.000  C
  C11      1.0000 0.87100  0.94280  0.66120  Biso   1.000  C
  C12      1.0000 0.37100  0.55720  0.66120  Biso   1.000  C
  C13      1.0000 0.28650  0.94820  0.48340  Biso   1.000  C
  C14      1.0000 0.78650  0.55180  0.48340  Biso   1.000  C
  C15      1.0000 0.71350  0.05180  0.51660  Biso   1.000  C
  C16      1.0000 0.21350  0.44820  0.51660  Biso   1.000  C
  C17      1.0000 0.35680  0.97540  0.66710  Biso   1.000  C
  C18      1.0000 0.85680  0.52460  0.66710  Biso   1.000  C
  C19      1.0000 0.64320  0.02460  0.33290  Biso   1.000  C
  C20      1.0000 0.14320  0.47540  0.33290  Biso   1.000  C
  C21      1.0000 0.00680  0.09060  0.14530  Biso   1.000  C
  C22      1.0000 0.50680  0.40940  0.14530  Biso   1.000  C
  C23      1.0000 0.99320  0.90940  0.85470  Biso   1.000  C
  C24      1.0000 0.49320  0.59060  0.85470  Biso   1.000  C
  H1       1.0000 0.31680  0.90070  0.46670  Biso   1.000  H
  H2       1.0000 0.81680  0.59930  0.46670  Biso   1.000  H
  H3       1.0000 0.68320  0.09930  0.53330  Biso   1.000  H
  H4       1.0000 0.18320  0.40070  0.53330  Biso   1.000  H
  H5       1.0000 0.36900  0.21200  0.17500  Biso   1.000  H
  H6       1.0000 0.86900  0.28800  0.17500  Biso   1.000  H
  H7       1.0000 0.63100  0.78800  0.82500  Biso   1.000  H
  H8       1.0000 0.13100  0.71200  0.82500  Biso   1.000  H
  H9       1.0000 0.53400  0.19700  0.17000  Biso   1.000  H
  H10      1.0000 0.03400  0.30300  0.17000  Biso   1.000  H
  H11      1.0000 0.46600  0.80300  0.83000  Biso   1.000  H
  H12      1.0000 0.96600  0.69700  0.83000  Biso   1.000  H
  H13      1.0000 0.43390  0.94720  0.77540  Biso   1.000  H
  H14      1.0000 0.93390  0.55280  0.77540  Biso   1.000  H
  H15      1.0000 0.56610  0.05280  0.22460  Biso   1.000  H
  H16      1.0000 0.06610  0.44720  0.22460  Biso   1.000  H
  H17      1.0000 0.77400  0.25700  0.42800  Biso   1.000  H
  H18      1.0000 0.27400  0.24300  0.42800  Biso   1.000  H
  H19      1.0000 0.22600  0.74300  0.57200  Biso   1.000  H
  H20      1.0000 0.72600  0.75700  0.57200  Biso   1.000  H
  H21      1.0000 0.89500  0.20900  0.42000  Biso   1.000  H
  H22      1.0000 0.39500  0.29100  0.42000  Biso   1.000  H
  H23      1.0000 0.10500  0.79100  0.58000  Biso   1.000  H
  H24      1.0000 0.60500  0.70900  0.58000  Biso   1.000  H
  H25      1.0000 0.07500  0.08430  0.05730  Biso   1.000  H
  H26      1.0000 0.57500  0.41570  0.05730  Biso   1.000  H
  H27      1.0000 0.92500  0.91570  0.94270  Biso   1.000  H
  H28      1.0000 0.42500  0.58430  0.94270  Biso   1.000  H
  H29      1.0000 0.99070  0.14100  0.16350  Biso   1.000  H
  H30      1.0000 0.49070  0.35900  0.16350  Biso   1.000  H
  H31      1.0000 0.00930  0.85900  0.83650  Biso   1.000  H
  H32      1.0000 0.50930  0.64100  0.83650  Biso   1.000  H
  H33      1.0000 0.87550  0.06810  0.08950  Biso   1.000  H
  H34      1.0000 0.37550  0.43190  0.08950  Biso   1.000  H
  H35      1.0000 0.12450  0.93190  0.91050  Biso   1.000  H
  H36      1.0000 0.62450  0.56810  0.91050  Biso   1.000  H
