data_image0
_cell_length_a       17.7942
_cell_length_b       10.1369
_cell_length_c       19.8671
_cell_angle_alpha    90
_cell_angle_beta     104.323
_cell_angle_gamma    90

_symmetry_space_group_name_H-M    "P 1"
_symmetry_int_tables_number       1

loop_
  _symmetry_equiv_pos_as_xyz
  'x, y, z'

loop_
  _atom_site_label
  _atom_site_occupancy
  _atom_site_fract_x
  _atom_site_fract_y
  _atom_site_fract_z
  _atom_site_thermal_displace_type
  _atom_site_B_iso_or_equiv
  _atom_site_type_symbol
  Cu1      1.0000 0.33550  0.40302  0.70401  Biso   1.000  Cu
  Cu2      1.0000 0.66450  0.90302  0.79599  Biso   1.000  Cu
  Cu3      1.0000 0.66450  0.59698  0.29599  Biso   1.000  Cu
  Cu4      1.0000 0.33550  0.09698  0.20401  Biso   1.000  Cu
  Cu5      1.0000 0.16419  0.73480  0.53690  Biso   1.000  Cu
  Cu6      1.0000 0.83581  0.23480  0.96310  Biso   1.000  Cu
  Cu7      1.0000 0.83581  0.26520  0.46310  Biso   1.000  Cu
  Cu8      1.0000 0.16419  0.76520  0.03690  Biso   1.000  Cu
  S1       1.0000 0.43680  0.33154  0.57776  Biso   1.000  S
  S2       1.0000 0.56320  0.83154  0.92224  Biso   1.000  S
  S3       1.0000 0.56320  0.66846  0.42224  Biso   1.000  S
  S4       1.0000 0.43680  0.16846  0.07776  Biso   1.000  S
  S5       1.0000 0.06761  0.76281  0.18485  Biso   1.000  S
  S6       1.0000 0.93239  0.26281  0.31515  Biso   1.000  S
  S7       1.0000 0.93239  0.23719  0.81515  Biso   1.000  S
  S8       1.0000 0.06761  0.73719  0.68485  Biso   1.000  S
  O1       1.0000 0.23171  0.40617  0.64048  Biso   1.000  O
  O2       1.0000 0.76829  0.90617  0.85952  Biso   1.000  O
  O3       1.0000 0.76829  0.59383  0.35952  Biso   1.000  O
  O4       1.0000 0.23171  0.09383  0.14048  Biso   1.000  O
  O5       1.0000 0.34220  0.58778  0.67510  Biso   1.000  O
  O6       1.0000 0.65780  0.08778  0.82490  Biso   1.000  O
  O7       1.0000 0.65780  0.41222  0.32490  Biso   1.000  O
  O8       1.0000 0.34220  0.91222  0.17510  Biso   1.000  O
  O9       1.0000 0.15818  0.54640  0.56483  Biso   1.000  O
  O10      1.0000 0.84182  0.04640  0.93517  Biso   1.000  O
  O11      1.0000 0.84182  0.45360  0.43517  Biso   1.000  O
  O12      1.0000 0.15818  0.95360  0.06483  Biso   1.000  O
  O13      1.0000 0.26723  0.73200  0.60362  Biso   1.000  O
  O14      1.0000 0.73277  0.23200  0.89638  Biso   1.000  O
  O15      1.0000 0.73277  0.26800  0.39638  Biso   1.000  O
  O16      1.0000 0.26723  0.76800  0.10362  Biso   1.000  O
  O17      1.0000 0.38949  0.30330  0.62687  Biso   1.000  O
  O18      1.0000 0.61051  0.80330  0.87313  Biso   1.000  O
  O19      1.0000 0.61051  0.69670  0.37313  Biso   1.000  O
  O20      1.0000 0.38949  0.19670  0.12687  Biso   1.000  O
  O21      1.0000 0.43904  0.47040  0.56224  Biso   1.000  O
  O22      1.0000 0.56096  0.97040  0.93776  Biso   1.000  O
  O23      1.0000 0.56096  0.52960  0.43776  Biso   1.000  O
  O24      1.0000 0.43904  0.02960  0.06224  Biso   1.000  O
  O25      1.0000 0.51258  0.26930  0.59949  Biso   1.000  O
  O26      1.0000 0.48742  0.76930  0.90051  Biso   1.000  O
  O27      1.0000 0.48742  0.73070  0.40051  Biso   1.000  O
  O28      1.0000 0.51258  0.23070  0.09949  Biso   1.000  O
  O29      1.0000 0.04418  0.66610  0.22814  Biso   1.000  O
  O30      1.0000 0.95582  0.16610  0.27186  Biso   1.000  O
  O31      1.0000 0.95582  0.33390  0.77186  Biso   1.000  O
  O32      1.0000 0.04418  0.83390  0.72814  Biso   1.000  O
  O33      1.0000 0.11130  0.70310  0.14026  Biso   1.000  O
  O34      1.0000 0.88870  0.20310  0.35974  Biso   1.000  O
  O35      1.0000 0.88870  0.29690  0.85974  Biso   1.000  O
  O36      1.0000 0.11130  0.79690  0.64026  Biso   1.000  O
  O37      1.0000 0.00527  0.84540  0.14609  Biso   1.000  O
  O38      1.0000 0.99473  0.34540  0.35391  Biso   1.000  O
  O39      1.0000 0.99473  0.15460  0.85391  Biso   1.000  O
  O40      1.0000 0.00527  0.65460  0.64609  Biso   1.000  O
  O41      1.0000 0.21514  0.66570  0.44687  Biso   1.000  O
  O42      1.0000 0.78486  0.16570  0.05313  Biso   1.000  O
  O43      1.0000 0.78486  0.33430  0.55313  Biso   1.000  O
  O44      1.0000 0.21514  0.83430  0.94687  Biso   1.000  O
  H1       1.0000 0.19280  0.61390  0.41390  Biso   1.000  H
  H2       1.0000 0.80720  0.11390  0.08610  Biso   1.000  H
  H3       1.0000 0.80720  0.38610  0.58610  Biso   1.000  H
  H4       1.0000 0.19280  0.88610  0.91390  Biso   1.000  H
  H5       1.0000 0.26220  0.68190  0.44700  Biso   1.000  H
  H6       1.0000 0.73780  0.18190  0.05300  Biso   1.000  H
  H7       1.0000 0.73780  0.31810  0.55300  Biso   1.000  H
  H8       1.0000 0.26220  0.81810  0.94700  Biso   1.000  H
  O45      1.0000 0.37266  0.67390  0.46905  Biso   1.000  O
  O46      1.0000 0.62734  0.17390  0.03095  Biso   1.000  O
  O47      1.0000 0.62734  0.32610  0.53095  Biso   1.000  O
  O48      1.0000 0.37266  0.82610  0.96905  Biso   1.000  O
  H9       1.0000 0.40320  0.68980  0.44330  Biso   1.000  H
  H10      1.0000 0.59680  0.18980  0.05670  Biso   1.000  H
  H11      1.0000 0.59680  0.31020  0.55670  Biso   1.000  H
  H12      1.0000 0.40320  0.81020  0.94330  Biso   1.000  H
  H13      1.0000 0.38540  0.60850  0.49630  Biso   1.000  H
  H14      1.0000 0.61460  0.10850  0.00370  Biso   1.000  H
  H15      1.0000 0.61460  0.39150  0.50370  Biso   1.000  H
  H16      1.0000 0.38540  0.89150  0.99630  Biso   1.000  H
  O49      1.0000 0.87421  0.99930  0.16156  Biso   1.000  O
  O50      1.0000 0.12579  0.49930  0.33844  Biso   1.000  O
  O51      1.0000 0.12579  0.00070  0.83844  Biso   1.000  O
  O52      1.0000 0.87421  0.50070  0.66156  Biso   1.000  O
  H17      1.0000 0.90700  0.94610  0.15090  Biso   1.000  H
  H18      1.0000 0.09300  0.44610  0.34910  Biso   1.000  H
  H19      1.0000 0.09300  0.05390  0.84910  Biso   1.000  H
  H20      1.0000 0.90700  0.55390  0.65090  Biso   1.000  H
  H21      1.0000 0.88810  0.01510  0.20570  Biso   1.000  H
  H22      1.0000 0.11190  0.51510  0.29430  Biso   1.000  H
  H23      1.0000 0.11190  0.98490  0.79430  Biso   1.000  H
  H24      1.0000 0.88810  0.48490  0.70570  Biso   1.000  H
  N1       1.0000 0.32300  0.22720  0.74272  Biso   1.000  N
  N2       1.0000 0.67700  0.72720  0.75728  Biso   1.000  N
  N3       1.0000 0.67700  0.77280  0.25728  Biso   1.000  N
  N4       1.0000 0.32300  0.27280  0.24272  Biso   1.000  N
  N5       1.0000 0.43182  0.40290  0.77834  Biso   1.000  N
  N6       1.0000 0.56818  0.90290  0.72166  Biso   1.000  N
  N7       1.0000 0.56818  0.59710  0.22166  Biso   1.000  N
  N8       1.0000 0.43182  0.09710  0.27834  Biso   1.000  N
  N9       1.0000 0.06352  0.74600  0.46742  Biso   1.000  N
  N10      1.0000 0.93648  0.24600  0.03258  Biso   1.000  N
  N11      1.0000 0.93648  0.25400  0.53258  Biso   1.000  N
  N12      1.0000 0.06352  0.75400  0.96742  Biso   1.000  N
  N13      1.0000 0.16437  0.92720  0.52038  Biso   1.000  N
  N14      1.0000 0.83563  0.42720  0.97962  Biso   1.000  N
  N15      1.0000 0.83563  0.07280  0.47962  Biso   1.000  N
  N16      1.0000 0.16437  0.57280  0.02038  Biso   1.000  N
  C1       1.0000 0.26349  0.14550  0.72123  Biso   1.000  C
  C2       1.0000 0.73651  0.64550  0.77877  Biso   1.000  C
  C3       1.0000 0.73651  0.85450  0.27877  Biso   1.000  C
  C4       1.0000 0.26349  0.35450  0.22123  Biso   1.000  C
  H25      1.0000 0.22070  0.17440  0.68730  Biso   1.000  H
  H26      1.0000 0.77930  0.67440  0.81270  Biso   1.000  H
  H27      1.0000 0.77930  0.82560  0.31270  Biso   1.000  H
  H28      1.0000 0.22070  0.32560  0.18730  Biso   1.000  H
  C5       1.0000 0.26270  0.01930  0.74729  Biso   1.000  C
  C6       1.0000 0.73730  0.51930  0.75271  Biso   1.000  C
  C7       1.0000 0.73730  0.98070  0.25271  Biso   1.000  C
  C8       1.0000 0.26270  0.48070  0.24729  Biso   1.000  C
  H29      1.0000 0.21990  0.96470  0.73180  Biso   1.000  H
  H30      1.0000 0.78010  0.46470  0.76820  Biso   1.000  H
  H31      1.0000 0.78010  0.03530  0.26820  Biso   1.000  H
  H32      1.0000 0.21990  0.53530  0.23180  Biso   1.000  H
  C9       1.0000 0.32680  0.97600  0.79688  Biso   1.000  C
  C10      1.0000 0.67320  0.47600  0.70312  Biso   1.000  C
  C11      1.0000 0.67320  0.02400  0.20312  Biso   1.000  C
  C12      1.0000 0.32680  0.52400  0.29688  Biso   1.000  C
  H33      1.0000 0.32810  0.89090  0.81460  Biso   1.000  H
  H34      1.0000 0.67190  0.39090  0.68540  Biso   1.000  H
  H35      1.0000 0.67190  0.10910  0.18540  Biso   1.000  H
  H36      1.0000 0.32810  0.60910  0.31460  Biso   1.000  H
  C13      1.0000 0.38952  0.06110  0.82007  Biso   1.000  C
  C14      1.0000 0.61048  0.56110  0.67993  Biso   1.000  C
  C15      1.0000 0.61048  0.93890  0.17993  Biso   1.000  C
  C16      1.0000 0.38952  0.43890  0.32007  Biso   1.000  C
  H37      1.0000 0.43300  0.03390  0.85370  Biso   1.000  H
  H38      1.0000 0.56700  0.53390  0.64630  Biso   1.000  H
  H39      1.0000 0.56700  0.96610  0.14630  Biso   1.000  H
  H40      1.0000 0.43300  0.46610  0.35370  Biso   1.000  H
  C17      1.0000 0.38575  0.18640  0.79214  Biso   1.000  C
  C18      1.0000 0.61425  0.68640  0.70786  Biso   1.000  C
  C19      1.0000 0.61425  0.81360  0.20786  Biso   1.000  C
  C20      1.0000 0.38575  0.31360  0.29214  Biso   1.000  C
  C21      1.0000 0.44706  0.28710  0.81296  Biso   1.000  C
  C22      1.0000 0.55294  0.78710  0.68704  Biso   1.000  C
  C23      1.0000 0.55294  0.71290  0.18704  Biso   1.000  C
  C24      1.0000 0.44706  0.21290  0.31296  Biso   1.000  C
  C25      1.0000 0.51506  0.26780  0.86367  Biso   1.000  C
  C26      1.0000 0.48494  0.76780  0.63633  Biso   1.000  C
  C27      1.0000 0.48494  0.73220  0.13633  Biso   1.000  C
  C28      1.0000 0.51506  0.23220  0.36367  Biso   1.000  C
  H41      1.0000 0.52490  0.18760  0.88690  Biso   1.000  H
  H42      1.0000 0.47510  0.68760  0.61310  Biso   1.000  H
  H43      1.0000 0.47510  0.81240  0.11310  Biso   1.000  H
  H44      1.0000 0.52490  0.31240  0.38690  Biso   1.000  H
  C29      1.0000 0.56838  0.37040  0.87930  Biso   1.000  C
  C30      1.0000 0.43162  0.87040  0.62070  Biso   1.000  C
  C31      1.0000 0.43162  0.62960  0.12070  Biso   1.000  C
  C32      1.0000 0.56838  0.12960  0.37930  Biso   1.000  C
  H45      1.0000 0.61440  0.35960  0.91330  Biso   1.000  H
  H46      1.0000 0.38560  0.85960  0.58670  Biso   1.000  H
  H47      1.0000 0.38560  0.64040  0.08670  Biso   1.000  H
  H48      1.0000 0.61440  0.14040  0.41330  Biso   1.000  H
  C33      1.0000 0.55260  0.48810  0.84412  Biso   1.000  C
  C34      1.0000 0.44740  0.98810  0.65588  Biso   1.000  C
  C35      1.0000 0.44740  0.51190  0.15588  Biso   1.000  C
  C36      1.0000 0.55260  0.01190  0.34412  Biso   1.000  C
  H49      1.0000 0.58790  0.55750  0.85360  Biso   1.000  H
  H50      1.0000 0.41210  0.05750  0.64640  Biso   1.000  H
  H51      1.0000 0.41210  0.44250  0.14640  Biso   1.000  H
  H52      1.0000 0.58790  0.94250  0.35360  Biso   1.000  H
  C37      1.0000 0.48323  0.50150  0.79427  Biso   1.000  C
  C38      1.0000 0.51677  0.00150  0.70573  Biso   1.000  C
  C39      1.0000 0.51677  0.49850  0.20573  Biso   1.000  C
  C40      1.0000 0.48323  0.99850  0.29427  Biso   1.000  C
  H53      1.0000 0.47200  0.58150  0.77110  Biso   1.000  H
  H54      1.0000 0.52800  0.08150  0.72890  Biso   1.000  H
  H55      1.0000 0.52800  0.41850  0.22890  Biso   1.000  H
  H56      1.0000 0.47200  0.91850  0.27110  Biso   1.000  H
  C41      1.0000 0.01951  0.64370  0.43881  Biso   1.000  C
  C42      1.0000 0.98049  0.14370  0.06119  Biso   1.000  C
  C43      1.0000 0.98049  0.35630  0.56119  Biso   1.000  C
  C44      1.0000 0.01951  0.85630  0.93881  Biso   1.000  C
  H57      1.0000 0.03020  0.56080  0.45900  Biso   1.000  H
  H58      1.0000 0.96980  0.06080  0.04100  Biso   1.000  H
  H59      1.0000 0.96980  0.43920  0.54100  Biso   1.000  H
  H60      1.0000 0.03020  0.93920  0.95900  Biso   1.000  H
  C45      1.0000 0.95909  0.65660  0.38078  Biso   1.000  C
  C46      1.0000 0.04091  0.15660  0.11922  Biso   1.000  C
  C47      1.0000 0.04091  0.34340  0.61922  Biso   1.000  C
  C48      1.0000 0.95909  0.84340  0.88078  Biso   1.000  C
  H61      1.0000 0.92850  0.58440  0.36270  Biso   1.000  H
  H62      1.0000 0.07150  0.08440  0.13730  Biso   1.000  H
  H63      1.0000 0.07150  0.41560  0.63730  Biso   1.000  H
  H64      1.0000 0.92850  0.91560  0.86270  Biso   1.000  H
  C49      1.0000 0.94481  0.77980  0.34976  Biso   1.000  C
  C50      1.0000 0.05519  0.27980  0.15024  Biso   1.000  C
  C51      1.0000 0.05519  0.22020  0.65024  Biso   1.000  C
  C52      1.0000 0.94481  0.72020  0.84976  Biso   1.000  C
  H65      1.0000 0.90650  0.79020  0.30880  Biso   1.000  H
  H66      1.0000 0.09350  0.29020  0.19120  Biso   1.000  H
  H67      1.0000 0.09350  0.20980  0.69120  Biso   1.000  H
  H68      1.0000 0.90650  0.70980  0.80880  Biso   1.000  H
  C53      1.0000 0.98793  0.88680  0.38026  Biso   1.000  C
  C54      1.0000 0.01207  0.38680  0.11974  Biso   1.000  C
  C55      1.0000 0.01207  0.11320  0.61974  Biso   1.000  C
  C56      1.0000 0.98793  0.61320  0.88026  Biso   1.000  C
  H69      1.0000 0.97740  0.97090  0.36150  Biso   1.000  H
  H70      1.0000 0.02260  0.47090  0.13850  Biso   1.000  H
  H71      1.0000 0.02260  0.02910  0.63850  Biso   1.000  H
  H72      1.0000 0.97740  0.52910  0.86150  Biso   1.000  H
  C57      1.0000 0.04729  0.86680  0.43935  Biso   1.000  C
  C58      1.0000 0.95271  0.36680  0.06065  Biso   1.000  C
  C59      1.0000 0.95271  0.13320  0.56065  Biso   1.000  C
  C60      1.0000 0.04729  0.63320  0.93935  Biso   1.000  C
  C61      1.0000 0.10035  0.97220  0.47469  Biso   1.000  C
  C62      1.0000 0.89965  0.47220  0.02531  Biso   1.000  C
  C63      1.0000 0.89965  0.02780  0.52531  Biso   1.000  C
  C64      1.0000 0.10035  0.52780  0.97469  Biso   1.000  C
  C65      1.0000 0.08740  0.10660  0.46317  Biso   1.000  C
  C66      1.0000 0.91260  0.60660  0.03683  Biso   1.000  C
  C67      1.0000 0.91260  0.89340  0.53683  Biso   1.000  C
  C68      1.0000 0.08740  0.39340  0.96317  Biso   1.000  C
  H73      1.0000 0.04240  0.13640  0.43240  Biso   1.000  H
  H74      1.0000 0.95760  0.63640  0.06760  Biso   1.000  H
  H75      1.0000 0.95760  0.86360  0.56760  Biso   1.000  H
  H76      1.0000 0.04240  0.36360  0.93240  Biso   1.000  H
  C69      1.0000 0.14210  0.19480  0.49794  Biso   1.000  C
  C70      1.0000 0.85790  0.69480  0.00206  Biso   1.000  C
  C71      1.0000 0.85790  0.80520  0.50206  Biso   1.000  C
  C72      1.0000 0.14210  0.30520  0.99794  Biso   1.000  C
  H77      1.0000 0.13430  0.28500  0.49100  Biso   1.000  H
  H78      1.0000 0.86570  0.78500  0.00900  Biso   1.000  H
  H79      1.0000 0.86570  0.71500  0.50900  Biso   1.000  H
  H80      1.0000 0.13430  0.21500  0.99100  Biso   1.000  H
  C73      1.0000 0.20880  0.14830  0.54336  Biso   1.000  C
  C74      1.0000 0.79120  0.64830  0.95664  Biso   1.000  C
  C75      1.0000 0.79120  0.85170  0.45664  Biso   1.000  C
  C76      1.0000 0.20880  0.35170  0.04336  Biso   1.000  C
  H81      1.0000 0.24710  0.20630  0.56650  Biso   1.000  H
  H82      1.0000 0.75290  0.70630  0.93350  Biso   1.000  H
  H83      1.0000 0.75290  0.79370  0.43350  Biso   1.000  H
  H84      1.0000 0.24710  0.29370  0.06650  Biso   1.000  H
  C77      1.0000 0.21731  0.01420  0.55346  Biso   1.000  C
  C78      1.0000 0.78269  0.51420  0.94654  Biso   1.000  C
  C79      1.0000 0.78269  0.98580  0.44654  Biso   1.000  C
  C80      1.0000 0.21731  0.48580  0.05346  Biso   1.000  C
  H85      1.0000 0.26170  0.98280  0.58460  Biso   1.000  H
  H86      1.0000 0.73830  0.48280  0.91540  Biso   1.000  H
  H87      1.0000 0.73830  0.01720  0.41540  Biso   1.000  H
  H88      1.0000 0.26170  0.51720  0.08460  Biso   1.000  H
  C81      1.0000 0.38587  0.25070  0.50039  Biso   1.000  C
  C82      1.0000 0.61413  0.75070  0.99961  Biso   1.000  C
  C83      1.0000 0.61413  0.74930  0.49961  Biso   1.000  C
  C84      1.0000 0.38587  0.24930  0.00039  Biso   1.000  C
  C85      1.0000 0.40367  0.12080  0.48933  Biso   1.000  C
  C86      1.0000 0.59633  0.62080  0.01067  Biso   1.000  C
  C87      1.0000 0.59633  0.87920  0.51067  Biso   1.000  C
  C88      1.0000 0.40367  0.37920  0.98933  Biso   1.000  C
  H89      1.0000 0.44740  0.08130  0.51770  Biso   1.000  H
  H90      1.0000 0.55260  0.58130  0.98230  Biso   1.000  H
  H91      1.0000 0.55260  0.91870  0.48230  Biso   1.000  H
  H92      1.0000 0.44740  0.41870  0.01770  Biso   1.000  H
  C89      1.0000 0.35596  0.04960  0.43569  Biso   1.000  C
  C90      1.0000 0.64404  0.54960  0.06431  Biso   1.000  C
  C91      1.0000 0.64404  0.95040  0.56431  Biso   1.000  C
  C92      1.0000 0.35596  0.45040  0.93569  Biso   1.000  C
  H93      1.0000 0.36760  0.96190  0.42870  Biso   1.000  H
  H94      1.0000 0.63240  0.46190  0.07130  Biso   1.000  H
  H95      1.0000 0.63240  0.03810  0.57130  Biso   1.000  H
  H96      1.0000 0.36760  0.53810  0.92870  Biso   1.000  H
  C93      1.0000 0.29063  0.10820  0.39203  Biso   1.000  C
  C94      1.0000 0.70937  0.60820  0.10797  Biso   1.000  C
  C95      1.0000 0.70937  0.89180  0.60797  Biso   1.000  C
  C96      1.0000 0.29063  0.39180  0.89203  Biso   1.000  C
  C97      1.0000 0.23625  0.02780  0.33779  Biso   1.000  C
  C98      1.0000 0.76375  0.52780  0.16221  Biso   1.000  C
  C99      1.0000 0.76375  0.97220  0.66221  Biso   1.000  C
  C100     1.0000 0.23625  0.47220  0.83779  Biso   1.000  C
  C101     1.0000 0.26308  0.91650  0.30956  Biso   1.000  C
  C102     1.0000 0.73692  0.41650  0.19044  Biso   1.000  C
  C103     1.0000 0.73692  0.08350  0.69044  Biso   1.000  C
  C104     1.0000 0.26308  0.58350  0.80956  Biso   1.000  C
  H97      1.0000 0.31550  0.89500  0.32240  Biso   1.000  H
  H98      1.0000 0.68450  0.39500  0.17760  Biso   1.000  H
  H99      1.0000 0.68450  0.10500  0.67760  Biso   1.000  H
  H100     1.0000 0.31550  0.60500  0.82240  Biso   1.000  H
  C105     1.0000 0.21109  0.83720  0.26190  Biso   1.000  C
  C106     1.0000 0.78891  0.33720  0.23810  Biso   1.000  C
  C107     1.0000 0.78891  0.16280  0.73810  Biso   1.000  C
  C108     1.0000 0.21109  0.66280  0.76190  Biso   1.000  C
  H101     1.0000 0.22910  0.76280  0.24340  Biso   1.000  H
  H102     1.0000 0.77090  0.26280  0.25660  Biso   1.000  H
  H103     1.0000 0.77090  0.23720  0.75660  Biso   1.000  H
  H104     1.0000 0.22910  0.73720  0.74340  Biso   1.000  H
  C109     1.0000 0.13300  0.86900  0.24215  Biso   1.000  C
  C110     1.0000 0.86700  0.36900  0.25785  Biso   1.000  C
  C111     1.0000 0.86700  0.13100  0.75785  Biso   1.000  C
  C112     1.0000 0.13300  0.63100  0.74215  Biso   1.000  C
  C113     1.0000 0.10610  0.98060  0.26939  Biso   1.000  C
  C114     1.0000 0.89390  0.48060  0.23061  Biso   1.000  C
  C115     1.0000 0.89390  0.01940  0.73061  Biso   1.000  C
  C116     1.0000 0.10610  0.51940  0.76939  Biso   1.000  C
  H105     1.0000 0.05370  0.00220  0.25650  Biso   1.000  H
  H106     1.0000 0.94630  0.50220  0.24350  Biso   1.000  H
  H107     1.0000 0.94630  0.99780  0.74350  Biso   1.000  H
  H108     1.0000 0.05370  0.49780  0.75650  Biso   1.000  H
  C117     1.0000 0.15813  0.05980  0.31601  Biso   1.000  C
  C118     1.0000 0.84187  0.55980  0.18399  Biso   1.000  C
  C119     1.0000 0.84187  0.94020  0.68399  Biso   1.000  C
  C120     1.0000 0.15813  0.44020  0.81601  Biso   1.000  C
  H109     1.0000 0.14020  0.13590  0.33300  Biso   1.000  H
  H110     1.0000 0.85980  0.63590  0.16700  Biso   1.000  H
  H111     1.0000 0.85980  0.86410  0.66700  Biso   1.000  H
  H112     1.0000 0.14020  0.36410  0.83300  Biso   1.000  H
  C121     1.0000 0.27568  0.24150  0.40207  Biso   1.000  C
  C122     1.0000 0.72432  0.74150  0.09793  Biso   1.000  C
  C123     1.0000 0.72432  0.75850  0.59793  Biso   1.000  C
  C124     1.0000 0.27568  0.25850  0.90207  Biso   1.000  C
  H113     1.0000 0.23390  0.28300  0.37220  Biso   1.000  H
  H114     1.0000 0.76610  0.78300  0.12780  Biso   1.000  H
  H115     1.0000 0.76610  0.71700  0.62780  Biso   1.000  H
  H116     1.0000 0.23390  0.21700  0.87220  Biso   1.000  H
  C125     1.0000 0.32278  0.31240  0.45634  Biso   1.000  C
  C126     1.0000 0.67722  0.81240  0.04366  Biso   1.000  C
  C127     1.0000 0.67722  0.68760  0.54366  Biso   1.000  C
  C128     1.0000 0.32278  0.18760  0.95634  Biso   1.000  C
  H117     1.0000 0.31210  0.40050  0.46310  Biso   1.000  H
  H118     1.0000 0.68790  0.90050  0.03690  Biso   1.000  H
  H119     1.0000 0.68790  0.59950  0.53690  Biso   1.000  H
  H120     1.0000 0.31210  0.09950  0.96310  Biso   1.000  H
  C129     1.0000 0.21824  0.51510  0.60978  Biso   1.000  C
  C130     1.0000 0.78176  0.01510  0.89022  Biso   1.000  C
  C131     1.0000 0.78176  0.48490  0.39022  Biso   1.000  C
  C132     1.0000 0.21824  0.98490  0.10978  Biso   1.000  C
  C133     1.0000 0.28152  0.62140  0.63130  Biso   1.000  C
  C134     1.0000 0.71848  0.12140  0.86870  Biso   1.000  C
  C135     1.0000 0.71848  0.37860  0.36870  Biso   1.000  C
  C136     1.0000 0.28152  0.87860  0.13130  Biso   1.000  C
