data_image0
_cell_length_a       7.9455
_cell_length_b       19.045
_cell_length_c       9.434
_cell_angle_alpha    90
_cell_angle_beta     98.022
_cell_angle_gamma    90

_symmetry_space_group_name_H-M    "P 1"
_symmetry_int_tables_number       1

loop_
  _symmetry_equiv_pos_as_xyz
  'x, y, z'

loop_
  _atom_site_label
  _atom_site_occupancy
  _atom_site_fract_x
  _atom_site_fract_y
  _atom_site_fract_z
  _atom_site_thermal_displace_type
  _atom_site_B_iso_or_equiv
  _atom_site_type_symbol
  Cu1      1.0000 0.02272  0.57930  0.04009  Biso   1.000  Cu
  Cu2      1.0000 0.97728  0.07930  0.45991  Biso   1.000  Cu
  Cu3      1.0000 0.97728  0.42070  0.95991  Biso   1.000  Cu
  Cu4      1.0000 0.02272  0.92070  0.54009  Biso   1.000  Cu
  C1       1.0000 0.20490  0.68650  0.21310  Biso   1.000  C
  C2       1.0000 0.79510  0.18650  0.28690  Biso   1.000  C
  C3       1.0000 0.79510  0.31350  0.78690  Biso   1.000  C
  C4       1.0000 0.20490  0.81350  0.71310  Biso   1.000  C
  H1       1.0000 0.09600  0.69460  0.23500  Biso   1.000  H
  H2       1.0000 0.90400  0.19460  0.26500  Biso   1.000  H
  H3       1.0000 0.90400  0.30540  0.76500  Biso   1.000  H
  H4       1.0000 0.09600  0.80540  0.73500  Biso   1.000  H
  C5       1.0000 0.37590  0.62780  0.08820  Biso   1.000  C
  C6       1.0000 0.62410  0.12780  0.41180  Biso   1.000  C
  C7       1.0000 0.62410  0.37220  0.91180  Biso   1.000  C
  C8       1.0000 0.37590  0.87220  0.58820  Biso   1.000  C
  H5       1.0000 0.39050  0.59440  0.01920  Biso   1.000  H
  H6       1.0000 0.60950  0.09440  0.48080  Biso   1.000  H
  H7       1.0000 0.60950  0.40560  0.98080  Biso   1.000  H
  H8       1.0000 0.39050  0.90560  0.51920  Biso   1.000  H
  C9       1.0000 0.33120  0.72740  0.27760  Biso   1.000  C
  C10      1.0000 0.66880  0.22740  0.22240  Biso   1.000  C
  C11      1.0000 0.66880  0.27260  0.72240  Biso   1.000  C
  C12      1.0000 0.33120  0.77260  0.77760  Biso   1.000  C
  H9       1.0000 0.31020  0.76140  0.34360  Biso   1.000  H
  H10      1.0000 0.68980  0.26140  0.15640  Biso   1.000  H
  H11      1.0000 0.68980  0.23860  0.65640  Biso   1.000  H
  H12      1.0000 0.31020  0.73860  0.84360  Biso   1.000  H
  C13      1.0000 0.51810  0.66580  0.14900  Biso   1.000  C
  C14      1.0000 0.48190  0.16580  0.35100  Biso   1.000  C
  C15      1.0000 0.48190  0.33420  0.85100  Biso   1.000  C
  C16      1.0000 0.51810  0.83420  0.64900  Biso   1.000  C
  H13      1.0000 0.62620  0.65650  0.12630  Biso   1.000  H
  H14      1.0000 0.37380  0.15650  0.37370  Biso   1.000  H
  H15      1.0000 0.37380  0.34350  0.87370  Biso   1.000  H
  H16      1.0000 0.62620  0.84350  0.62630  Biso   1.000  H
  C17      1.0000 0.48980  0.71750  0.24400  Biso   1.000  C
  C18      1.0000 0.51020  0.21750  0.25600  Biso   1.000  C
  C19      1.0000 0.51020  0.28250  0.75600  Biso   1.000  C
  C20      1.0000 0.48980  0.78250  0.74400  Biso   1.000  C
  C21      1.0000 0.63230  0.76270  0.31360  Biso   1.000  C
  C22      1.0000 0.36770  0.26270  0.18640  Biso   1.000  C
  C23      1.0000 0.36770  0.23730  0.68640  Biso   1.000  C
  C24      1.0000 0.63230  0.73730  0.81360  Biso   1.000  C
  H17      1.0000 0.61040  0.78880  0.39230  Biso   1.000  H
  H18      1.0000 0.38960  0.28880  0.10770  Biso   1.000  H
  H19      1.0000 0.38960  0.21120  0.60770  Biso   1.000  H
  H20      1.0000 0.61040  0.71120  0.89230  Biso   1.000  H
  C25      1.0000 0.78420  0.76960  0.27630  Biso   1.000  C
  C26      1.0000 0.21580  0.26960  0.22370  Biso   1.000  C
  C27      1.0000 0.21580  0.23040  0.72370  Biso   1.000  C
  C28      1.0000 0.78420  0.73040  0.77630  Biso   1.000  C
  H21      1.0000 0.81560  0.74320  0.20130  Biso   1.000  H
  H22      1.0000 0.18440  0.24320  0.29870  Biso   1.000  H
  H23      1.0000 0.18440  0.25680  0.79870  Biso   1.000  H
  H24      1.0000 0.81560  0.75680  0.70130  Biso   1.000  H
  C29      1.0000 0.90740  0.82070  0.35630  Biso   1.000  C
  C30      1.0000 0.09260  0.32070  0.14370  Biso   1.000  C
  C31      1.0000 0.09260  0.17930  0.64370  Biso   1.000  C
  C32      1.0000 0.90740  0.67930  0.85630  Biso   1.000  C
  C33      1.0000 0.86070  0.51840  0.29310  Biso   1.000  C
  C34      1.0000 0.13930  0.01840  0.20690  Biso   1.000  C
  C35      1.0000 0.13930  0.48160  0.70690  Biso   1.000  C
  C36      1.0000 0.86070  0.98160  0.79310  Biso   1.000  C
  C37      1.0000 0.74590  0.44180  0.45740  Biso   1.000  C
  C38      1.0000 0.25410  0.94180  0.04260  Biso   1.000  C
  C39      1.0000 0.25410  0.55820  0.54260  Biso   1.000  C
  C40      1.0000 0.74590  0.05820  0.95740  Biso   1.000  C
  H25      1.0000 0.77140  0.40670  0.39050  Biso   1.000  H
  H26      1.0000 0.22860  0.90670  0.10950  Biso   1.000  H
  H27      1.0000 0.22860  0.59330  0.60950  Biso   1.000  H
  H28      1.0000 0.77140  0.09330  0.89050  Biso   1.000  H
  H29      1.0000 0.62610  0.44160  0.46280  Biso   1.000  H
  H30      1.0000 0.37390  0.94160  0.03720  Biso   1.000  H
  H31      1.0000 0.37390  0.55840  0.53720  Biso   1.000  H
  H32      1.0000 0.62610  0.05840  0.96280  Biso   1.000  H
  H33      1.0000 0.80750  0.43180  0.55010  Biso   1.000  H
  H34      1.0000 0.19250  0.93180  0.94990  Biso   1.000  H
  H35      1.0000 0.19250  0.56820  0.44990  Biso   1.000  H
  H36      1.0000 0.80750  0.06820  0.05010  Biso   1.000  H
  C41      1.0000 0.76840  0.57110  0.49610  Biso   1.000  C
  C42      1.0000 0.23160  0.07110  0.00390  Biso   1.000  C
  C43      1.0000 0.23160  0.42890  0.50390  Biso   1.000  C
  C44      1.0000 0.76840  0.92890  0.99610  Biso   1.000  C
  H37      1.0000 0.80720  0.61270  0.45290  Biso   1.000  H
  H38      1.0000 0.19280  0.11270  0.04710  Biso   1.000  H
  H39      1.0000 0.19280  0.38730  0.54710  Biso   1.000  H
  H40      1.0000 0.80720  0.88730  0.95290  Biso   1.000  H
  H41      1.0000 0.83050  0.56540  0.59030  Biso   1.000  H
  H42      1.0000 0.16950  0.06540  0.90970  Biso   1.000  H
  H43      1.0000 0.16950  0.43460  0.40970  Biso   1.000  H
  H44      1.0000 0.83050  0.93460  0.09030  Biso   1.000  H
  H45      1.0000 0.64940  0.57560  0.50280  Biso   1.000  H
  H46      1.0000 0.35060  0.07560  0.99720  Biso   1.000  H
  H47      1.0000 0.35060  0.42440  0.49720  Biso   1.000  H
  H48      1.0000 0.64940  0.92440  0.00280  Biso   1.000  H
  N1       1.0000 0.22300  0.63650  0.12240  Biso   1.000  N
  N2       1.0000 0.77700  0.13650  0.37760  Biso   1.000  N
  N3       1.0000 0.77700  0.36350  0.87760  Biso   1.000  N
  N4       1.0000 0.22300  0.86350  0.62240  Biso   1.000  N
  N5       1.0000 0.14700  0.48780  0.06380  Biso   1.000  N
  N6       1.0000 0.85300  0.98780  0.43620  Biso   1.000  N
  N7       1.0000 0.85300  0.51220  0.93620  Biso   1.000  N
  N8       1.0000 0.14700  0.01220  0.56380  Biso   1.000  N
  N9       1.0000 0.28550  0.47310  0.11970  Biso   1.000  N
  N10      1.0000 0.71450  0.97310  0.38030  Biso   1.000  N
  N11      1.0000 0.71450  0.52690  0.88030  Biso   1.000  N
  N12      1.0000 0.28550  0.02690  0.61970  Biso   1.000  N
  N13      1.0000 0.41780  0.45810  0.17430  Biso   1.000  N
  N14      1.0000 0.58220  0.95810  0.32570  Biso   1.000  N
  N15      1.0000 0.58220  0.54190  0.82570  Biso   1.000  N
  N16      1.0000 0.41780  0.04190  0.67430  Biso   1.000  N
  N17      1.0000 0.79560  0.51090  0.40970  Biso   1.000  N
  N18      1.0000 0.20440  0.01090  0.09030  Biso   1.000  N
  N19      1.0000 0.20440  0.48910  0.59030  Biso   1.000  N
  N20      1.0000 0.79560  0.98910  0.90970  Biso   1.000  N
  O1       1.0000 0.88380  0.84020  0.47680  Biso   1.000  O
  O2       1.0000 0.11620  0.34020  0.02320  Biso   1.000  O
  O3       1.0000 0.11620  0.15980  0.52320  Biso   1.000  O
  O4       1.0000 0.88380  0.65980  0.97680  Biso   1.000  O
  O5       1.0000 0.02450  0.84080  0.29150  Biso   1.000  O
  O6       1.0000 0.97550  0.34080  0.20850  Biso   1.000  O
  O7       1.0000 0.97550  0.15920  0.70850  Biso   1.000  O
  O8       1.0000 0.02450  0.65920  0.79150  Biso   1.000  O
  O9       1.0000 0.90790  0.57410  0.24500  Biso   1.000  O
  O10      1.0000 0.09210  0.07410  0.25500  Biso   1.000  O
  O11      1.0000 0.09210  0.42590  0.75500  Biso   1.000  O
  O12      1.0000 0.90790  0.92590  0.74500  Biso   1.000  O
  H49      1.0000 0.90700  0.47700  0.24000  Biso   1.000  H
  H50      1.0000 0.09300  0.97700  0.26000  Biso   1.000  H
  H51      1.0000 0.09300  0.52300  0.76000  Biso   1.000  H
  H52      1.0000 0.90700  0.02300  0.74000  Biso   1.000  H
