data_image0
_cell_length_a       9.309
_cell_length_b       15.436
_cell_length_c       7.0974
_cell_angle_alpha    90
_cell_angle_beta     103.604
_cell_angle_gamma    90

_symmetry_space_group_name_H-M    "P 1"
_symmetry_int_tables_number       1

loop_
  _symmetry_equiv_pos_as_xyz
  'x, y, z'

loop_
  _atom_site_label
  _atom_site_occupancy
  _atom_site_fract_x
  _atom_site_fract_y
  _atom_site_fract_z
  _atom_site_thermal_displace_type
  _atom_site_B_iso_or_equiv
  _atom_site_type_symbol
  Cu1      1.0000 0.08521  0.43839  0.11763  Biso   1.000  Cu
  Cu2      1.0000 0.91479  0.43839  0.38237  Biso   1.000  Cu
  Cu3      1.0000 0.58521  0.93839  0.11763  Biso   1.000  Cu
  Cu4      1.0000 0.41479  0.93839  0.38237  Biso   1.000  Cu
  Cu5      1.0000 0.91479  0.56161  0.88237  Biso   1.000  Cu
  Cu6      1.0000 0.08521  0.56161  0.61763  Biso   1.000  Cu
  Cu7      1.0000 0.41479  0.06161  0.88237  Biso   1.000  Cu
  Cu8      1.0000 0.58521  0.06161  0.61763  Biso   1.000  Cu
  I1       1.0000 0.79369  0.42167  0.00116  Biso   1.000  I
  I2       1.0000 0.20631  0.42167  0.49884  Biso   1.000  I
  I3       1.0000 0.29369  0.92167  0.00116  Biso   1.000  I
  I4       1.0000 0.70631  0.92167  0.49884  Biso   1.000  I
  I5       1.0000 0.20631  0.57833  0.99884  Biso   1.000  I
  I6       1.0000 0.79369  0.57833  0.50116  Biso   1.000  I
  I7       1.0000 0.70631  0.07833  0.99884  Biso   1.000  I
  I8       1.0000 0.29369  0.07833  0.50116  Biso   1.000  I
  N1       1.0000 0.16900  0.33231  0.99540  Biso   1.000  N
  N2       1.0000 0.83100  0.33231  0.50460  Biso   1.000  N
  N3       1.0000 0.66900  0.83231  0.99540  Biso   1.000  N
  N4       1.0000 0.33100  0.83231  0.50460  Biso   1.000  N
  N5       1.0000 0.83100  0.66769  0.00460  Biso   1.000  N
  N6       1.0000 0.16900  0.66769  0.49540  Biso   1.000  N
  N7       1.0000 0.33100  0.16769  0.00460  Biso   1.000  N
  N8       1.0000 0.66900  0.16769  0.49540  Biso   1.000  N
  H1       1.0000 0.13400  0.33700  0.88400  Biso   1.000  H
  H2       1.0000 0.86600  0.33700  0.61600  Biso   1.000  H
  H3       1.0000 0.63400  0.83700  0.88400  Biso   1.000  H
  H4       1.0000 0.36600  0.83700  0.61600  Biso   1.000  H
  H5       1.0000 0.86600  0.66300  0.11600  Biso   1.000  H
  H6       1.0000 0.13400  0.66300  0.38400  Biso   1.000  H
  H7       1.0000 0.36600  0.16300  0.11600  Biso   1.000  H
  H8       1.0000 0.63400  0.16300  0.38400  Biso   1.000  H
  C1       1.0000 0.33160  0.32930  0.04330  Biso   1.000  C
  C2       1.0000 0.66840  0.32930  0.45670  Biso   1.000  C
  C3       1.0000 0.83160  0.82930  0.04330  Biso   1.000  C
  C4       1.0000 0.16840  0.82930  0.45670  Biso   1.000  C
  C5       1.0000 0.66840  0.67070  0.95670  Biso   1.000  C
  C6       1.0000 0.33160  0.67070  0.54330  Biso   1.000  C
  C7       1.0000 0.16840  0.17070  0.95670  Biso   1.000  C
  C8       1.0000 0.83160  0.17070  0.54330  Biso   1.000  C
  H9       1.0000 0.36760  0.32790  0.18310  Biso   1.000  H
  H10      1.0000 0.63240  0.32790  0.31690  Biso   1.000  H
  H11      1.0000 0.86760  0.82790  0.18310  Biso   1.000  H
  H12      1.0000 0.13240  0.82790  0.31690  Biso   1.000  H
  H13      1.0000 0.63240  0.67210  0.81690  Biso   1.000  H
  H14      1.0000 0.36760  0.67210  0.68310  Biso   1.000  H
  H15      1.0000 0.13240  0.17210  0.81690  Biso   1.000  H
  H16      1.0000 0.86760  0.17210  0.68310  Biso   1.000  H
  H17      1.0000 0.36880  0.38170  0.99610  Biso   1.000  H
  H18      1.0000 0.63120  0.38170  0.50390  Biso   1.000  H
  H19      1.0000 0.86880  0.88170  0.99610  Biso   1.000  H
  H20      1.0000 0.13120  0.88170  0.50390  Biso   1.000  H
  H21      1.0000 0.63120  0.61830  0.00390  Biso   1.000  H
  H22      1.0000 0.36880  0.61830  0.49610  Biso   1.000  H
  H23      1.0000 0.13120  0.11830  0.00390  Biso   1.000  H
  H24      1.0000 0.86880  0.11830  0.49610  Biso   1.000  H
  C9       1.0000 0.10770  0.24910  0.04360  Biso   1.000  C
  C10      1.0000 0.89230  0.24910  0.45640  Biso   1.000  C
  C11      1.0000 0.60770  0.74910  0.04360  Biso   1.000  C
  C12      1.0000 0.39230  0.74910  0.45640  Biso   1.000  C
  C13      1.0000 0.89230  0.75090  0.95640  Biso   1.000  C
  C14      1.0000 0.10770  0.75090  0.54360  Biso   1.000  C
  C15      1.0000 0.39230  0.25090  0.95640  Biso   1.000  C
  C16      1.0000 0.60770  0.25090  0.54360  Biso   1.000  C
  H25      1.0000 0.00110  0.25020  0.99710  Biso   1.000  H
  H26      1.0000 0.99890  0.25020  0.50290  Biso   1.000  H
  H27      1.0000 0.50110  0.75020  0.99710  Biso   1.000  H
  H28      1.0000 0.49890  0.75020  0.50290  Biso   1.000  H
  H29      1.0000 0.99890  0.74980  0.00290  Biso   1.000  H
  H30      1.0000 0.00110  0.74980  0.49710  Biso   1.000  H
  H31      1.0000 0.49890  0.24980  0.00290  Biso   1.000  H
  H32      1.0000 0.50110  0.24980  0.49710  Biso   1.000  H
  H33      1.0000 0.12990  0.24270  0.18350  Biso   1.000  H
  H34      1.0000 0.87010  0.24270  0.31650  Biso   1.000  H
  H35      1.0000 0.62990  0.74270  0.18350  Biso   1.000  H
  H36      1.0000 0.37010  0.74270  0.31650  Biso   1.000  H
  H37      1.0000 0.87010  0.75730  0.81650  Biso   1.000  H
  H38      1.0000 0.12990  0.75730  0.68350  Biso   1.000  H
  H39      1.0000 0.37010  0.25730  0.81650  Biso   1.000  H
  H40      1.0000 0.62990  0.25730  0.68350  Biso   1.000  H
