data_image0
_cell_length_a       8.8565
_cell_length_b       8.9579
_cell_length_c       8.3705
_cell_angle_alpha    105.728
_cell_angle_beta     105.318
_cell_angle_gamma    114.369

_symmetry_space_group_name_H-M    "P 1"
_symmetry_int_tables_number       1

loop_
  _symmetry_equiv_pos_as_xyz
  'x, y, z'

loop_
  _atom_site_label
  _atom_site_occupancy
  _atom_site_fract_x
  _atom_site_fract_y
  _atom_site_fract_z
  _atom_site_thermal_displace_type
  _atom_site_B_iso_or_equiv
  _atom_site_type_symbol
  Cu1      1.0000 0.00000  0.00000  0.00000  Biso   1.000  Cu
  Cu2      1.0000 0.50000  0.50000  0.50000  Biso   1.000  Cu
  N1       1.0000 0.15330  0.98690  0.85760  Biso   1.000  N
  N2       1.0000 0.84670  0.01310  0.14240  Biso   1.000  N
  N3       1.0000 0.27540  0.02620  0.66460  Biso   1.000  N
  N4       1.0000 0.72460  0.97380  0.33540  Biso   1.000  N
  C1       1.0000 0.24060  0.89280  0.84800  Biso   1.000  C
  C2       1.0000 0.75940  0.10720  0.15200  Biso   1.000  C
  C3       1.0000 0.30010  0.90300  0.71490  Biso   1.000  C
  C4       1.0000 0.69990  0.09700  0.28510  Biso   1.000  C
  C5       1.0000 0.17490  0.06920  0.74420  Biso   1.000  C
  C6       1.0000 0.82510  0.93080  0.25580  Biso   1.000  C
  N5       1.0000 0.65680  0.50670  0.34760  Biso   1.000  N
  N6       1.0000 0.34320  0.49330  0.65240  Biso   1.000  N
  N7       1.0000 0.89760  0.57760  0.28720  Biso   1.000  N
  N8       1.0000 0.10240  0.42240  0.71280  Biso   1.000  N
  C7       1.0000 0.59580  0.42740  0.16220  Biso   1.000  C
  C8       1.0000 0.40420  0.57260  0.83780  Biso   1.000  C
  C9       1.0000 0.74420  0.46440  0.12500  Biso   1.000  C
  C10      1.0000 0.25580  0.53560  0.87500  Biso   1.000  C
  C11      1.0000 0.84310  0.59070  0.42550  Biso   1.000  C
  C12      1.0000 0.15690  0.40930  0.57450  Biso   1.000  C
  C13      1.0000 0.28470  0.13150  0.30890  Biso   1.000  C
  C14      1.0000 0.71530  0.86850  0.69110  Biso   1.000  C
  O1       1.0000 0.15620  0.96820  0.18250  Biso   1.000  O
  O2       1.0000 0.84380  0.03180  0.81750  Biso   1.000  O
  O3       1.0000 0.29270  0.27190  0.28670  Biso   1.000  O
  O4       1.0000 0.70730  0.72810  0.71330  Biso   1.000  O
  O5       1.0000 0.41900  0.15160  0.44170  Biso   1.000  O
  O6       1.0000 0.58100  0.84840  0.55830  Biso   1.000  O
  O7       1.0000 0.22090  0.69850  0.23220  Biso   1.000  O
  O8       1.0000 0.77910  0.30150  0.76780  Biso   1.000  O
