data_image0
_cell_length_a       8.6028
_cell_length_b       10.7956
_cell_length_c       14.945
_cell_angle_alpha    90
_cell_angle_beta     90
_cell_angle_gamma    90

_symmetry_space_group_name_H-M    "P 1"
_symmetry_int_tables_number       1

loop_
  _symmetry_equiv_pos_as_xyz
  'x, y, z'

loop_
  _atom_site_label
  _atom_site_occupancy
  _atom_site_fract_x
  _atom_site_fract_y
  _atom_site_fract_z
  _atom_site_thermal_displace_type
  _atom_site_B_iso_or_equiv
  _atom_site_type_symbol
  Cu1      1.0000 0.02245  0.74508  0.86984  Biso   1.000  Cu
  Cu2      1.0000 0.47755  0.25492  0.36984  Biso   1.000  Cu
  Cu3      1.0000 0.52245  0.75492  0.13016  Biso   1.000  Cu
  Cu4      1.0000 0.97755  0.24508  0.63016  Biso   1.000  Cu
  O1       1.0000 0.02930  0.79420  0.74330  Biso   1.000  O
  O2       1.0000 0.47070  0.20580  0.24330  Biso   1.000  O
  O3       1.0000 0.52930  0.70580  0.25670  Biso   1.000  O
  O4       1.0000 0.97070  0.29420  0.75670  Biso   1.000  O
  O5       1.0000 0.04780  0.66970  0.99045  Biso   1.000  O
  O6       1.0000 0.45220  0.33030  0.49045  Biso   1.000  O
  O7       1.0000 0.54780  0.83030  0.00955  Biso   1.000  O
  O8       1.0000 0.95220  0.16970  0.50955  Biso   1.000  O
  N1       1.0000 0.69360  0.64400  0.09080  Biso   1.000  N
  N2       1.0000 0.80640  0.35600  0.59080  Biso   1.000  N
  N3       1.0000 0.19360  0.85600  0.90920  Biso   1.000  N
  N4       1.0000 0.30640  0.14400  0.40920  Biso   1.000  N
  N5       1.0000 0.08930  0.90410  0.71840  Biso   1.000  N
  N6       1.0000 0.41070  0.09590  0.21840  Biso   1.000  N
  N7       1.0000 0.58930  0.59590  0.28160  Biso   1.000  N
  N8       1.0000 0.91070  0.40410  0.78160  Biso   1.000  N
  C1       1.0000 0.87060  0.51000  0.04020  Biso   1.000  C
  C2       1.0000 0.62940  0.49000  0.54020  Biso   1.000  C
  C3       1.0000 0.37060  0.99000  0.95980  Biso   1.000  C
  C4       1.0000 0.12940  0.01000  0.45980  Biso   1.000  C
  C5       1.0000 0.72600  0.51850  0.08120  Biso   1.000  C
  C6       1.0000 0.77400  0.48150  0.58120  Biso   1.000  C
  C7       1.0000 0.22600  0.98150  0.91880  Biso   1.000  C
  C8       1.0000 0.27400  0.01850  0.41880  Biso   1.000  C
  C9       1.0000 0.24230  0.05310  0.67470  Biso   1.000  C
  C10      1.0000 0.25770  0.94690  0.17470  Biso   1.000  C
  C11      1.0000 0.74230  0.44690  0.32530  Biso   1.000  C
  C12      1.0000 0.75770  0.55310  0.82530  Biso   1.000  C
  N9       1.0000 0.08890  0.09070  0.67060  Biso   1.000  N
  N10      1.0000 0.41110  0.90930  0.17060  Biso   1.000  N
  N11      1.0000 0.58890  0.40930  0.32940  Biso   1.000  N
  N12      1.0000 0.91110  0.59070  0.82940  Biso   1.000  N
  C13      1.0000 0.64660  0.41310  0.10530  Biso   1.000  C
  C14      1.0000 0.85340  0.58690  0.60530  Biso   1.000  C
  C15      1.0000 0.14660  0.08690  0.89470  Biso   1.000  C
  C16      1.0000 0.35340  0.91310  0.39470  Biso   1.000  C
  H1       1.0000 0.54890  0.41690  0.13180  Biso   1.000  H
  H2       1.0000 0.95110  0.58310  0.63180  Biso   1.000  H
  H3       1.0000 0.04890  0.08310  0.86820  Biso   1.000  H
  H4       1.0000 0.45110  0.91690  0.36820  Biso   1.000  H
  C17      1.0000 0.94440  0.39720  0.02100  Biso   1.000  C
  C18      1.0000 0.55560  0.60280  0.52100  Biso   1.000  C
  C19      1.0000 0.44440  0.10280  0.97900  Biso   1.000  C
  C20      1.0000 0.05560  0.89720  0.47900  Biso   1.000  C
  H5       1.0000 0.04090  0.39310  0.99310  Biso   1.000  H
  H6       1.0000 0.45910  0.60690  0.49310  Biso   1.000  H
  H7       1.0000 0.54090  0.10690  0.00690  Biso   1.000  H
  H8       1.0000 0.95910  0.89310  0.50690  Biso   1.000  H
  C21      1.0000 0.24260  0.93120  0.70590  Biso   1.000  C
  C22      1.0000 0.25740  0.06880  0.20590  Biso   1.000  C
  C23      1.0000 0.74260  0.56880  0.29410  Biso   1.000  C
  C24      1.0000 0.75740  0.43120  0.79410  Biso   1.000  C
  C25      1.0000 0.37830  0.86410  0.72030  Biso   1.000  C
  C26      1.0000 0.12170  0.13590  0.22030  Biso   1.000  C
  C27      1.0000 0.87830  0.63590  0.27970  Biso   1.000  C
  C28      1.0000 0.62170  0.36410  0.77970  Biso   1.000  C
  H9       1.0000 0.37680  0.78360  0.74230  Biso   1.000  H
  H10      1.0000 0.12320  0.21640  0.24230  Biso   1.000  H
  H11      1.0000 0.87680  0.71640  0.25770  Biso   1.000  H
  H12      1.0000 0.62320  0.28360  0.75770  Biso   1.000  H
  C29      1.0000 0.86390  0.29380  0.04620  Biso   1.000  C
  C30      1.0000 0.63610  0.70620  0.54620  Biso   1.000  C
  C31      1.0000 0.36390  0.20620  0.95380  Biso   1.000  C
  C32      1.0000 0.13610  0.79380  0.45380  Biso   1.000  C
  H13      1.0000 0.90690  0.21630  0.03500  Biso   1.000  H
  H14      1.0000 0.59310  0.78370  0.53500  Biso   1.000  H
  H15      1.0000 0.40690  0.28370  0.96500  Biso   1.000  H
  H16      1.0000 0.09310  0.71630  0.46500  Biso   1.000  H
  C33      1.0000 0.38040  0.11210  0.65340  Biso   1.000  C
  C34      1.0000 0.11960  0.88790  0.15340  Biso   1.000  C
  C35      1.0000 0.88040  0.38790  0.34660  Biso   1.000  C
  C36      1.0000 0.61960  0.61210  0.84660  Biso   1.000  C
  H17      1.0000 0.38170  0.19240  0.63090  Biso   1.000  H
  H18      1.0000 0.11830  0.80760  0.13090  Biso   1.000  H
  H19      1.0000 0.88170  0.30760  0.36910  Biso   1.000  H
  H20      1.0000 0.61830  0.69240  0.86910  Biso   1.000  H
  C37      1.0000 0.71930  0.30080  0.08820  Biso   1.000  C
  C38      1.0000 0.78070  0.69920  0.58820  Biso   1.000  C
  C39      1.0000 0.21930  0.19920  0.91180  Biso   1.000  C
  C40      1.0000 0.28070  0.80080  0.41180  Biso   1.000  C
  H21      1.0000 0.67000  0.22780  0.10530  Biso   1.000  H
  H22      1.0000 0.83000  0.77220  0.60530  Biso   1.000  H
  H23      1.0000 0.17000  0.27220  0.89470  Biso   1.000  H
  H24      1.0000 0.33000  0.72780  0.39470  Biso   1.000  H
  C41      1.0000 0.51620  0.04630  0.66690  Biso   1.000  C
  C42      1.0000 0.98380  0.95370  0.16690  Biso   1.000  C
  C43      1.0000 0.01620  0.45370  0.33310  Biso   1.000  C
  C44      1.0000 0.48380  0.54630  0.83310  Biso   1.000  C
  H25      1.0000 0.61150  0.08270  0.65400  Biso   1.000  H
  H26      1.0000 0.88850  0.91730  0.15400  Biso   1.000  H
  H27      1.0000 0.11150  0.41730  0.34600  Biso   1.000  H
  H28      1.0000 0.38850  0.58270  0.84600  Biso   1.000  H
  N13      1.0000 0.81160  0.70810  0.05800  Biso   1.000  N
  N14      1.0000 0.68840  0.29190  0.55800  Biso   1.000  N
  N15      1.0000 0.31160  0.79190  0.94200  Biso   1.000  N
  N16      1.0000 0.18840  0.20810  0.44200  Biso   1.000  N
  N17      1.0000 0.91620  0.62970  0.02800  Biso   1.000  N
  N18      1.0000 0.58380  0.37030  0.52800  Biso   1.000  N
  N19      1.0000 0.41620  0.87030  0.97200  Biso   1.000  N
  N20      1.0000 0.08380  0.12970  0.47200  Biso   1.000  N
  O9       1.0000 0.82260  0.87670  0.90020  Biso   1.000  O
  O10      1.0000 0.67740  0.12330  0.40020  Biso   1.000  O
  O11      1.0000 0.32260  0.62330  0.09980  Biso   1.000  O
  O12      1.0000 0.17740  0.37670  0.59980  Biso   1.000  O
  N21      1.0000 0.99820  0.99810  0.69790  Biso   1.000  N
  N22      1.0000 0.50180  0.00190  0.19790  Biso   1.000  N
  N23      1.0000 0.49820  0.50190  0.30210  Biso   1.000  N
  N24      1.0000 0.00180  0.49810  0.80210  Biso   1.000  N
  C45      1.0000 0.51090  0.92240  0.70070  Biso   1.000  C
  C46      1.0000 0.98910  0.07760  0.20070  Biso   1.000  C
  C47      1.0000 0.01090  0.57760  0.29930  Biso   1.000  C
  C48      1.0000 0.48910  0.42240  0.79930  Biso   1.000  C
  H29      1.0000 0.60410  0.88050  0.70940  Biso   1.000  H
  H30      1.0000 0.89590  0.11950  0.20940  Biso   1.000  H
  H31      1.0000 0.10410  0.61950  0.29060  Biso   1.000  H
  H32      1.0000 0.39590  0.38050  0.79060  Biso   1.000  H
  H33      1.0000 0.83500  0.90120  0.95260  Biso   1.000  H
  H34      1.0000 0.66500  0.09880  0.45260  Biso   1.000  H
  H35      1.0000 0.33500  0.59880  0.04740  Biso   1.000  H
  H36      1.0000 0.16500  0.40120  0.54740  Biso   1.000  H
  H37      1.0000 0.81150  0.93700  0.86710  Biso   1.000  H
  H38      1.0000 0.68850  0.06300  0.36710  Biso   1.000  H
  H39      1.0000 0.31150  0.56300  0.13290  Biso   1.000  H
  H40      1.0000 0.18850  0.43700  0.63290  Biso   1.000  H
  O13      1.0000 0.76310  0.11850  0.85590  Biso   1.000  O
  O14      1.0000 0.73690  0.88150  0.35590  Biso   1.000  O
  O15      1.0000 0.26310  0.38150  0.14410  Biso   1.000  O
  O16      1.0000 0.23690  0.61850  0.64410  Biso   1.000  O
  H41      1.0000 0.81600  0.17450  0.83170  Biso   1.000  H
  H42      1.0000 0.68400  0.82550  0.33170  Biso   1.000  H
  H43      1.0000 0.31600  0.32550  0.16830  Biso   1.000  H
  H44      1.0000 0.18400  0.67450  0.66830  Biso   1.000  H
