data_image0
_cell_length_a       17.399
_cell_length_b       11.18
_cell_length_c       23.3
_cell_angle_alpha    90
_cell_angle_beta     109.054
_cell_angle_gamma    90

_symmetry_space_group_name_H-M    "P 1"
_symmetry_int_tables_number       1

loop_
  _symmetry_equiv_pos_as_xyz
  'x, y, z'

loop_
  _atom_site_label
  _atom_site_occupancy
  _atom_site_fract_x
  _atom_site_fract_y
  _atom_site_fract_z
  _atom_site_thermal_displace_type
  _atom_site_B_iso_or_equiv
  _atom_site_type_symbol
  Cr1      1.0000 0.26325  0.76343  0.07746  Biso   1.000  Cr
  Cr2      1.0000 0.23675  0.26343  0.42254  Biso   1.000  Cr
  Cr3      1.0000 0.73675  0.23657  0.92254  Biso   1.000  Cr
  Cr4      1.0000 0.76325  0.73657  0.57746  Biso   1.000  Cr
  Cu1      1.0000 0.51925  0.75265  0.99000  Biso   1.000  Cu
  Cu2      1.0000 0.98075  0.25265  0.51000  Biso   1.000  Cu
  Cu3      1.0000 0.48075  0.24735  0.01000  Biso   1.000  Cu
  Cu4      1.0000 0.01925  0.74735  0.49000  Biso   1.000  Cu
  Cu5      1.0000 0.16664  0.35171  0.14310  Biso   1.000  Cu
  Cu6      1.0000 0.33336  0.85171  0.35690  Biso   1.000  Cu
  Cu7      1.0000 0.83336  0.64829  0.85690  Biso   1.000  Cu
  Cu8      1.0000 0.66664  0.14829  0.64310  Biso   1.000  Cu
  S1       1.0000 0.40868  0.89773  0.27294  Biso   1.000  S
  S2       1.0000 0.09132  0.39773  0.22706  Biso   1.000  S
  S3       1.0000 0.59132  0.10227  0.72706  Biso   1.000  S
  S4       1.0000 0.90868  0.60227  0.77294  Biso   1.000  S
  S5       1.0000 0.12570  0.01050  0.91485  Biso   1.000  S
  S6       1.0000 0.37430  0.51050  0.58515  Biso   1.000  S
  S7       1.0000 0.87430  0.98950  0.08515  Biso   1.000  S
  S8       1.0000 0.62570  0.48950  0.41485  Biso   1.000  S
  O1       1.0000 0.37350  0.82870  0.08410  Biso   1.000  O
  O2       1.0000 0.12650  0.32870  0.41590  Biso   1.000  O
  O3       1.0000 0.62650  0.17130  0.91590  Biso   1.000  O
  O4       1.0000 0.87350  0.67130  0.58410  Biso   1.000  O
  O5       1.0000 0.30190  0.67100  0.99830  Biso   1.000  O
  O6       1.0000 0.19810  0.17100  0.50170  Biso   1.000  O
  O7       1.0000 0.69810  0.32900  0.00170  Biso   1.000  O
  O8       1.0000 0.80190  0.82900  0.49830  Biso   1.000  O
  O9       1.0000 0.31270  0.61410  0.12450  Biso   1.000  O
  O10      1.0000 0.18730  0.11410  0.37550  Biso   1.000  O
  O11      1.0000 0.68730  0.38590  0.87550  Biso   1.000  O
  O12      1.0000 0.81270  0.88590  0.62450  Biso   1.000  O
  O13      1.0000 0.16130  0.67860  0.07410  Biso   1.000  O
  O14      1.0000 0.33870  0.17860  0.42590  Biso   1.000  O
  O15      1.0000 0.83870  0.32140  0.92590  Biso   1.000  O
  O16      1.0000 0.66130  0.82140  0.57410  Biso   1.000  O
  N1       1.0000 0.48520  0.83280  0.05160  Biso   1.000  N
  N2       1.0000 0.01480  0.33280  0.44840  Biso   1.000  N
  N3       1.0000 0.51480  0.16720  0.94840  Biso   1.000  N
  N4       1.0000 0.98520  0.66720  0.55160  Biso   1.000  N
  N5       1.0000 0.60200  0.86700  0.99220  Biso   1.000  N
  N6       1.0000 0.89800  0.36700  0.50780  Biso   1.000  N
  N7       1.0000 0.39800  0.13300  0.00780  Biso   1.000  N
  N8       1.0000 0.10200  0.63300  0.49220  Biso   1.000  N
  N9       1.0000 0.57100  0.63280  0.95490  Biso   1.000  N
  N10      1.0000 0.92900  0.13280  0.54510  Biso   1.000  N
  N11      1.0000 0.42900  0.36720  0.04510  Biso   1.000  N
  N12      1.0000 0.07100  0.86720  0.45490  Biso   1.000  N
  N13      1.0000 0.41700  0.66990  0.96670  Biso   1.000  N
  N14      1.0000 0.08300  0.16990  0.53330  Biso   1.000  N
  N15      1.0000 0.58300  0.33010  0.03330  Biso   1.000  N
  N16      1.0000 0.91700  0.83010  0.46670  Biso   1.000  N
  N17      1.0000 0.27130  0.44050  0.16200  Biso   1.000  N
  N18      1.0000 0.22870  0.94050  0.33800  Biso   1.000  N
  N19      1.0000 0.72870  0.55950  0.83800  Biso   1.000  N
  N20      1.0000 0.77130  0.05950  0.66200  Biso   1.000  N
  N21      1.0000 0.11860  0.49830  0.10340  Biso   1.000  N
  N22      1.0000 0.38140  0.99830  0.39660  Biso   1.000  N
  N23      1.0000 0.88140  0.50170  0.89660  Biso   1.000  N
  N24      1.0000 0.61860  0.00170  0.60340  Biso   1.000  N
  N25      1.0000 0.07490  0.25940  0.08690  Biso   1.000  N
  N26      1.0000 0.42510  0.75940  0.41310  Biso   1.000  N
  N27      1.0000 0.92510  0.74060  0.91310  Biso   1.000  N
  N28      1.0000 0.57490  0.24060  0.58690  Biso   1.000  N
  N29      1.0000 0.21740  0.20680  0.18390  Biso   1.000  N
  N30      1.0000 0.28260  0.70680  0.31610  Biso   1.000  N
  N31      1.0000 0.78260  0.79320  0.81610  Biso   1.000  N
  N32      1.0000 0.71740  0.29320  0.68390  Biso   1.000  N
  N33      1.0000 0.28060  0.85220  0.16810  Biso   1.000  N
  N34      1.0000 0.21940  0.35220  0.33190  Biso   1.000  N
  N35      1.0000 0.71940  0.14780  0.83190  Biso   1.000  N
  N36      1.0000 0.78060  0.64780  0.66810  Biso   1.000  N
  N37      1.0000 0.20510  0.88600  0.01890  Biso   1.000  N
  N38      1.0000 0.29490  0.38600  0.48110  Biso   1.000  N
  N39      1.0000 0.79490  0.11400  0.98110  Biso   1.000  N
  N40      1.0000 0.70510  0.61400  0.51890  Biso   1.000  N
  C1       1.0000 0.41190  0.79550  0.05070  Biso   1.000  C
  C2       1.0000 0.08810  0.29550  0.44930  Biso   1.000  C
  C3       1.0000 0.58810  0.20450  0.94930  Biso   1.000  C
  C4       1.0000 0.91190  0.70450  0.55070  Biso   1.000  C
  C5       1.0000 0.36950  0.70540  0.00010  Biso   1.000  C
  C6       1.0000 0.13050  0.20540  0.49990  Biso   1.000  C
  C7       1.0000 0.63050  0.29460  0.99990  Biso   1.000  C
  C8       1.0000 0.86950  0.79460  0.50010  Biso   1.000  C
  C9       1.0000 0.38930  0.58560  0.91960  Biso   1.000  C
  C10      1.0000 0.11070  0.08560  0.58040  Biso   1.000  C
  C11      1.0000 0.61070  0.41440  0.08040  Biso   1.000  C
  C12      1.0000 0.88930  0.91440  0.41960  Biso   1.000  C
  C13      1.0000 0.30710  0.55960  0.89090  Biso   1.000  C
  C14      1.0000 0.19290  0.05960  0.60910  Biso   1.000  C
  C15      1.0000 0.69290  0.44040  0.10910  Biso   1.000  C
  C16      1.0000 0.80710  0.94040  0.39090  Biso   1.000  C
  H1       1.0000 0.26800  0.60230  0.90170  Biso   1.000  H
  H2       1.0000 0.23200  0.10230  0.59830  Biso   1.000  H
  H3       1.0000 0.73200  0.39770  0.09830  Biso   1.000  H
  H4       1.0000 0.76800  0.89770  0.40170  Biso   1.000  H
  C17      1.0000 0.28230  0.47060  0.84640  Biso   1.000  C
  C18      1.0000 0.21770  0.97060  0.65360  Biso   1.000  C
  C19      1.0000 0.71770  0.52940  0.15360  Biso   1.000  C
  C20      1.0000 0.78230  0.02940  0.34640  Biso   1.000  C
  H5       1.0000 0.22730  0.45620  0.82670  Biso   1.000  H
  H6       1.0000 0.27270  0.95620  0.67330  Biso   1.000  H
  H7       1.0000 0.77270  0.54380  0.17330  Biso   1.000  H
  H8       1.0000 0.72730  0.04380  0.32670  Biso   1.000  H
  C21      1.0000 0.34050  0.40470  0.83220  Biso   1.000  C
  C22      1.0000 0.15950  0.90470  0.66780  Biso   1.000  C
  C23      1.0000 0.65950  0.59530  0.16780  Biso   1.000  C
  C24      1.0000 0.84050  0.09530  0.33220  Biso   1.000  C
  H9       1.0000 0.32490  0.34180  0.80470  Biso   1.000  H
  H10      1.0000 0.17510  0.84180  0.69530  Biso   1.000  H
  H11      1.0000 0.67510  0.65820  0.19530  Biso   1.000  H
  H12      1.0000 0.82490  0.15820  0.30470  Biso   1.000  H
  C25      1.0000 0.42040  0.43100  0.85820  Biso   1.000  C
  C26      1.0000 0.07960  0.93100  0.64180  Biso   1.000  C
  C27      1.0000 0.57960  0.56900  0.14180  Biso   1.000  C
  C28      1.0000 0.92040  0.06900  0.35820  Biso   1.000  C
  H13      1.0000 0.45860  0.38720  0.84700  Biso   1.000  H
  H14      1.0000 0.04140  0.88720  0.65300  Biso   1.000  H
  H15      1.0000 0.54140  0.61280  0.15300  Biso   1.000  H
  H16      1.0000 0.95860  0.11280  0.34700  Biso   1.000  H
  C29      1.0000 0.44730  0.52160  0.90130  Biso   1.000  C
  C30      1.0000 0.05270  0.02160  0.59870  Biso   1.000  C
  C31      1.0000 0.55270  0.47840  0.09870  Biso   1.000  C
  C32      1.0000 0.94730  0.97840  0.40130  Biso   1.000  C
  C33      1.0000 0.53540  0.54330  0.92290  Biso   1.000  C
  C34      1.0000 0.96460  0.04330  0.57710  Biso   1.000  C
  C35      1.0000 0.46460  0.45670  0.07710  Biso   1.000  C
  C36      1.0000 0.03540  0.95670  0.42290  Biso   1.000  C
  H17      1.0000 0.56810  0.48730  0.91250  Biso   1.000  H
  H18      1.0000 0.93190  0.98730  0.58750  Biso   1.000  H
  H19      1.0000 0.43190  0.51270  0.08750  Biso   1.000  H
  H20      1.0000 0.06810  0.01270  0.41250  Biso   1.000  H
  C37      1.0000 0.66120  0.63640  0.97460  Biso   1.000  C
  C38      1.0000 0.83880  0.13640  0.52540  Biso   1.000  C
  C39      1.0000 0.33880  0.36360  0.02540  Biso   1.000  C
  C40      1.0000 0.16120  0.86360  0.47460  Biso   1.000  C
  H21      1.0000 0.68100  0.56590  0.95960  Biso   1.000  H
  H22      1.0000 0.81900  0.06590  0.54040  Biso   1.000  H
  H23      1.0000 0.31900  0.43410  0.04040  Biso   1.000  H
  H24      1.0000 0.18100  0.93410  0.45960  Biso   1.000  H
  H25      1.0000 0.68270  0.63480  0.01860  Biso   1.000  H
  H26      1.0000 0.81730  0.13480  0.48140  Biso   1.000  H
  H27      1.0000 0.31730  0.36520  0.98140  Biso   1.000  H
  H28      1.0000 0.18270  0.86520  0.51860  Biso   1.000  H
  C41      1.0000 0.69210  0.74710  0.95170  Biso   1.000  C
  C42      1.0000 0.80790  0.24710  0.54830  Biso   1.000  C
  C43      1.0000 0.30790  0.25290  0.04830  Biso   1.000  C
  C44      1.0000 0.19210  0.75290  0.45170  Biso   1.000  C
  H29      1.0000 0.74570  0.76590  0.97970  Biso   1.000  H
  H30      1.0000 0.75430  0.26590  0.52030  Biso   1.000  H
  H31      1.0000 0.25430  0.23410  0.02030  Biso   1.000  H
  H32      1.0000 0.24570  0.73410  0.47970  Biso   1.000  H
  H33      1.0000 0.69840  0.72840  0.91290  Biso   1.000  H
  H34      1.0000 0.80160  0.22840  0.58710  Biso   1.000  H
  H35      1.0000 0.30160  0.27160  0.08710  Biso   1.000  H
  H36      1.0000 0.19840  0.77160  0.41290  Biso   1.000  H
  C45      1.0000 0.64030  0.85560  0.94420  Biso   1.000  C
  C46      1.0000 0.85970  0.35560  0.55580  Biso   1.000  C
  C47      1.0000 0.35970  0.14440  0.05580  Biso   1.000  C
  C48      1.0000 0.14030  0.64440  0.44420  Biso   1.000  C
  H37      1.0000 0.67330  0.92590  0.94500  Biso   1.000  H
  H38      1.0000 0.82670  0.42590  0.55500  Biso   1.000  H
  H39      1.0000 0.32670  0.07410  0.05500  Biso   1.000  H
  H40      1.0000 0.17330  0.57410  0.44500  Biso   1.000  H
  H41      1.0000 0.59810  0.85260  0.90490  Biso   1.000  H
  H42      1.0000 0.90190  0.35260  0.59510  Biso   1.000  H
  H43      1.0000 0.40190  0.14740  0.09510  Biso   1.000  H
  H44      1.0000 0.09810  0.64740  0.40490  Biso   1.000  H
  C49      1.0000 0.62620  0.95130  0.03190  Biso   1.000  C
  C50      1.0000 0.87380  0.45130  0.46810  Biso   1.000  C
  C51      1.0000 0.37380  0.04870  0.96810  Biso   1.000  C
  C52      1.0000 0.12620  0.54870  0.53190  Biso   1.000  C
  H45      1.0000 0.66610  0.00230  0.02730  Biso   1.000  H
  H46      1.0000 0.83390  0.50230  0.47270  Biso   1.000  H
  H47      1.0000 0.33390  0.99770  0.97270  Biso   1.000  H
  H48      1.0000 0.16610  0.49770  0.52730  Biso   1.000  H
  C53      1.0000 0.59770  0.97490  0.08290  Biso   1.000  C
  C54      1.0000 0.90230  0.47490  0.41710  Biso   1.000  C
  C55      1.0000 0.40230  0.02510  0.91710  Biso   1.000  C
  C56      1.0000 0.09770  0.52510  0.58290  Biso   1.000  C
  C57      1.0000 0.64180  0.06440  0.12320  Biso   1.000  C
  C58      1.0000 0.85820  0.56440  0.37680  Biso   1.000  C
  C59      1.0000 0.35820  0.93560  0.87680  Biso   1.000  C
  C60      1.0000 0.14180  0.43560  0.62320  Biso   1.000  C
  H49      1.0000 0.68380  0.10360  0.11440  Biso   1.000  H
  H50      1.0000 0.81620  0.60360  0.38560  Biso   1.000  H
  H51      1.0000 0.31620  0.89640  0.88560  Biso   1.000  H
  H52      1.0000 0.18380  0.39640  0.61440  Biso   1.000  H
  C61      1.0000 0.62470  0.09560  0.17520  Biso   1.000  C
  C62      1.0000 0.87530  0.59560  0.32480  Biso   1.000  C
  C63      1.0000 0.37530  0.90440  0.82480  Biso   1.000  C
  C64      1.0000 0.12470  0.40440  0.67520  Biso   1.000  C
  H53      1.0000 0.65370  0.15570  0.20080  Biso   1.000  H
  H54      1.0000 0.84630  0.65570  0.29920  Biso   1.000  H
  H55      1.0000 0.34630  0.84430  0.79920  Biso   1.000  H
  H56      1.0000 0.15370  0.34430  0.70080  Biso   1.000  H
  C65      1.0000 0.56270  0.03440  0.18790  Biso   1.000  C
  C66      1.0000 0.93730  0.53440  0.31210  Biso   1.000  C
  C67      1.0000 0.43730  0.96560  0.81210  Biso   1.000  C
  C68      1.0000 0.06270  0.46560  0.68790  Biso   1.000  C
  H57      1.0000 0.55160  0.05100  0.22350  Biso   1.000  H
  H58      1.0000 0.94840  0.55100  0.27650  Biso   1.000  H
  H59      1.0000 0.44840  0.94900  0.77650  Biso   1.000  H
  H60      1.0000 0.05160  0.44900  0.72350  Biso   1.000  H
  C69      1.0000 0.51670  0.94840  0.14810  Biso   1.000  C
  C70      1.0000 0.98330  0.44840  0.35190  Biso   1.000  C
  C71      1.0000 0.48330  0.05160  0.85190  Biso   1.000  C
  C72      1.0000 0.01670  0.55160  0.64810  Biso   1.000  C
  H61      1.0000 0.47510  0.90930  0.15730  Biso   1.000  H
  H62      1.0000 0.02490  0.40930  0.34270  Biso   1.000  H
  H63      1.0000 0.52490  0.09070  0.84270  Biso   1.000  H
  H64      1.0000 0.97510  0.59070  0.65730  Biso   1.000  H
  C73      1.0000 0.53220  0.91980  0.09420  Biso   1.000  C
  C74      1.0000 0.96780  0.41980  0.40580  Biso   1.000  C
  C75      1.0000 0.46780  0.08020  0.90580  Biso   1.000  C
  C76      1.0000 0.03220  0.58020  0.59420  Biso   1.000  C
  C77      1.0000 0.26100  0.54160  0.13110  Biso   1.000  C
  C78      1.0000 0.23900  0.04160  0.36890  Biso   1.000  C
  C79      1.0000 0.73900  0.45840  0.86890  Biso   1.000  C
  C80      1.0000 0.76100  0.95840  0.63110  Biso   1.000  C
  C81      1.0000 0.17250  0.57830  0.09960  Biso   1.000  C
  C82      1.0000 0.32750  0.07830  0.40040  Biso   1.000  C
  C83      1.0000 0.82750  0.42170  0.90040  Biso   1.000  C
  C84      1.0000 0.67250  0.92170  0.59960  Biso   1.000  C
  C85      1.0000 0.03350  0.52260  0.08550  Biso   1.000  C
  C86      1.0000 0.46650  0.02260  0.41450  Biso   1.000  C
  C87      1.0000 0.96650  0.47740  0.91450  Biso   1.000  C
  C88      1.0000 0.53350  0.97740  0.58550  Biso   1.000  C
  C89      1.0000 0.00290  0.63620  0.08630  Biso   1.000  C
  C90      1.0000 0.49710  0.13620  0.41370  Biso   1.000  C
  C91      1.0000 0.99710  0.36380  0.91370  Biso   1.000  C
  C92      1.0000 0.50290  0.86380  0.58630  Biso   1.000  C
  H65      1.0000 0.03800  0.70140  0.09490  Biso   1.000  H
  H66      1.0000 0.46200  0.20140  0.40510  Biso   1.000  H
  H67      1.0000 0.96200  0.29860  0.90510  Biso   1.000  H
  H68      1.0000 0.53800  0.79860  0.59490  Biso   1.000  H
  C93      1.0000 0.92020  0.65390  0.07420  Biso   1.000  C
  C94      1.0000 0.57980  0.15390  0.42580  Biso   1.000  C
  C95      1.0000 0.07980  0.34610  0.92580  Biso   1.000  C
  C96      1.0000 0.42020  0.84610  0.57420  Biso   1.000  C
  H69      1.0000 0.90050  0.73080  0.07550  Biso   1.000  H
  H70      1.0000 0.59950  0.23080  0.42450  Biso   1.000  H
  H71      1.0000 0.09950  0.26920  0.92450  Biso   1.000  H
  H72      1.0000 0.40050  0.76920  0.57550  Biso   1.000  H
  C97      1.0000 0.86710  0.55920  0.06050  Biso   1.000  C
  C98      1.0000 0.63290  0.05920  0.43950  Biso   1.000  C
  C99      1.0000 0.13290  0.44080  0.93950  Biso   1.000  C
  C100     1.0000 0.36710  0.94080  0.56050  Biso   1.000  C
  H73      1.0000 0.81180  0.57100  0.05340  Biso   1.000  H
  H74      1.0000 0.68820  0.07100  0.44660  Biso   1.000  H
  H75      1.0000 0.18820  0.42900  0.94660  Biso   1.000  H
  H76      1.0000 0.31180  0.92900  0.55340  Biso   1.000  H
  C101     1.0000 0.89660  0.44810  0.05740  Biso   1.000  C
  C102     1.0000 0.60340  0.94810  0.44260  Biso   1.000  C
  C103     1.0000 0.10340  0.55190  0.94260  Biso   1.000  C
  C104     1.0000 0.39660  0.05190  0.55740  Biso   1.000  C
  H77      1.0000 0.86020  0.38460  0.04670  Biso   1.000  H
  H78      1.0000 0.63980  0.88460  0.45330  Biso   1.000  H
  H79      1.0000 0.13980  0.61540  0.95330  Biso   1.000  H
  H80      1.0000 0.36020  0.11540  0.54670  Biso   1.000  H
  C105     1.0000 0.98000  0.42410  0.06960  Biso   1.000  C
  C106     1.0000 0.52000  0.92410  0.43040  Biso   1.000  C
  C107     1.0000 0.02000  0.57590  0.93040  Biso   1.000  C
  C108     1.0000 0.48000  0.07590  0.56960  Biso   1.000  C
  C109     1.0000 0.00510  0.30190  0.06400  Biso   1.000  C
  C110     1.0000 0.49490  0.80190  0.43600  Biso   1.000  C
  C111     1.0000 0.99490  0.69810  0.93600  Biso   1.000  C
  C112     1.0000 0.50510  0.19810  0.56400  Biso   1.000  C
  H81      1.0000 0.96510  0.24990  0.04100  Biso   1.000  H
  H82      1.0000 0.53490  0.74990  0.45900  Biso   1.000  H
  H83      1.0000 0.03490  0.75010  0.95900  Biso   1.000  H
  H84      1.0000 0.46510  0.25010  0.54100  Biso   1.000  H
  C113     1.0000 0.09260  0.13340  0.07340  Biso   1.000  C
  C114     1.0000 0.40740  0.63340  0.42660  Biso   1.000  C
  C115     1.0000 0.90740  0.86660  0.92660  Biso   1.000  C
  C116     1.0000 0.59260  0.36660  0.57340  Biso   1.000  C
  H85      1.0000 0.04400  0.10080  0.04380  Biso   1.000  H
  H86      1.0000 0.45600  0.60080  0.45620  Biso   1.000  H
  H87      1.0000 0.95600  0.89920  0.95620  Biso   1.000  H
  H88      1.0000 0.54400  0.39920  0.54380  Biso   1.000  H
  H89      1.0000 0.13470  0.13530  0.05460  Biso   1.000  H
  H90      1.0000 0.36530  0.63530  0.44540  Biso   1.000  H
  H91      1.0000 0.86530  0.86470  0.94540  Biso   1.000  H
  H92      1.0000 0.63470  0.36470  0.55460  Biso   1.000  H
  C117     1.0000 0.11840  0.05150  0.12520  Biso   1.000  C
  C118     1.0000 0.38160  0.55150  0.37480  Biso   1.000  C
  C119     1.0000 0.88160  0.94850  0.87480  Biso   1.000  C
  C120     1.0000 0.61840  0.44850  0.62520  Biso   1.000  C
  H93      1.0000 0.15420  0.99180  0.11740  Biso   1.000  H
  H94      1.0000 0.34580  0.49180  0.38260  Biso   1.000  H
  H95      1.0000 0.84580  0.00820  0.88260  Biso   1.000  H
  H96      1.0000 0.65420  0.50820  0.61740  Biso   1.000  H
  H97      1.0000 0.07090  0.01020  0.12830  Biso   1.000  H
  H98      1.0000 0.42910  0.51020  0.37170  Biso   1.000  H
  H99      1.0000 0.92910  0.98980  0.87170  Biso   1.000  H
  H100     1.0000 0.57090  0.48980  0.62830  Biso   1.000  H
  C121     1.0000 0.16160  0.10970  0.18520  Biso   1.000  C
  C122     1.0000 0.33840  0.60970  0.31480  Biso   1.000  C
  C123     1.0000 0.83840  0.89030  0.81480  Biso   1.000  C
  C124     1.0000 0.66160  0.39030  0.68520  Biso   1.000  C
  H101     1.0000 0.12100  0.14100  0.20160  Biso   1.000  H
  H102     1.0000 0.37900  0.64100  0.29840  Biso   1.000  H
  H103     1.0000 0.87900  0.85900  0.79840  Biso   1.000  H
  H104     1.0000 0.62100  0.35900  0.70160  Biso   1.000  H
  H105     1.0000 0.19200  0.04870  0.21310  Biso   1.000  H
  H106     1.0000 0.30800  0.54870  0.28690  Biso   1.000  H
  H107     1.0000 0.80800  0.95130  0.78690  Biso   1.000  H
  H108     1.0000 0.69200  0.45130  0.71310  Biso   1.000  H
  C125     1.0000 0.29160  0.19550  0.21420  Biso   1.000  C
  C126     1.0000 0.20840  0.69550  0.28580  Biso   1.000  C
  C127     1.0000 0.70840  0.80450  0.78580  Biso   1.000  C
  C128     1.0000 0.79160  0.30450  0.71420  Biso   1.000  C
  H109     1.0000 0.30650  0.12270  0.23410  Biso   1.000  H
  H110     1.0000 0.19350  0.62270  0.26590  Biso   1.000  H
  H111     1.0000 0.69350  0.87730  0.76590  Biso   1.000  H
  H112     1.0000 0.80650  0.37730  0.73410  Biso   1.000  H
  C129     1.0000 0.35760  0.28260  0.22240  Biso   1.000  C
  C130     1.0000 0.14240  0.78260  0.27760  Biso   1.000  C
  C131     1.0000 0.64240  0.71740  0.77760  Biso   1.000  C
  C132     1.0000 0.85760  0.21740  0.72240  Biso   1.000  C
  C133     1.0000 0.43490  0.24330  0.25810  Biso   1.000  C
  C134     1.0000 0.06510  0.74330  0.24190  Biso   1.000  C
  C135     1.0000 0.56510  0.75670  0.74190  Biso   1.000  C
  C136     1.0000 0.93490  0.25670  0.75810  Biso   1.000  C
  H113     1.0000 0.44040  0.16570  0.27330  Biso   1.000  H
  H114     1.0000 0.05960  0.66570  0.22670  Biso   1.000  H
  H115     1.0000 0.55960  0.83430  0.72670  Biso   1.000  H
  H116     1.0000 0.94040  0.33430  0.77330  Biso   1.000  H
  C137     1.0000 0.50290  0.31410  0.27170  Biso   1.000  C
  C138     1.0000 0.99710  0.81410  0.22830  Biso   1.000  C
  C139     1.0000 0.49710  0.68590  0.72830  Biso   1.000  C
  C140     1.0000 0.00290  0.18590  0.77170  Biso   1.000  C
  H117     1.0000 0.55370  0.28480  0.29460  Biso   1.000  H
  H118     1.0000 0.94630  0.78480  0.20540  Biso   1.000  H
  H119     1.0000 0.44630  0.71520  0.70540  Biso   1.000  H
  H120     1.0000 0.05370  0.21520  0.79460  Biso   1.000  H
  C141     1.0000 0.49370  0.42830  0.25070  Biso   1.000  C
  C142     1.0000 0.00630  0.92830  0.24930  Biso   1.000  C
  C143     1.0000 0.50630  0.57170  0.74930  Biso   1.000  C
  C144     1.0000 0.99370  0.07170  0.75070  Biso   1.000  C
  H121     1.0000 0.53850  0.47910  0.26120  Biso   1.000  H
  H122     1.0000 0.96150  0.97910  0.23880  Biso   1.000  H
  H123     1.0000 0.46150  0.52090  0.73880  Biso   1.000  H
  H124     1.0000 0.03850  0.02090  0.76120  Biso   1.000  H
  C145     1.0000 0.41890  0.47100  0.21380  Biso   1.000  C
  C146     1.0000 0.08110  0.97100  0.28620  Biso   1.000  C
  C147     1.0000 0.58110  0.52900  0.78620  Biso   1.000  C
  C148     1.0000 0.91890  0.02900  0.71380  Biso   1.000  C
  H125     1.0000 0.41540  0.54880  0.19910  Biso   1.000  H
  H126     1.0000 0.08460  0.04880  0.30090  Biso   1.000  H
  H127     1.0000 0.58460  0.45120  0.80090  Biso   1.000  H
  H128     1.0000 0.91540  0.95120  0.69910  Biso   1.000  H
  C149     1.0000 0.34890  0.40070  0.19830  Biso   1.000  C
  C150     1.0000 0.15110  0.90070  0.30170  Biso   1.000  C
  C151     1.0000 0.65110  0.59930  0.80170  Biso   1.000  C
  C152     1.0000 0.84890  0.09930  0.69830  Biso   1.000  C
  C153     1.0000 0.33220  0.87080  0.21040  Biso   1.000  C
  C154     1.0000 0.16780  0.37080  0.28960  Biso   1.000  C
  C155     1.0000 0.66780  0.12920  0.78960  Biso   1.000  C
  C156     1.0000 0.83220  0.62920  0.71040  Biso   1.000  C
  C157     1.0000 0.17180  0.93790  0.97490  Biso   1.000  C
  C158     1.0000 0.32820  0.43790  0.52510  Biso   1.000  C
  C159     1.0000 0.82820  0.06210  0.02510  Biso   1.000  C
  C160     1.0000 0.67180  0.56210  0.47490  Biso   1.000  C
  O17      1.0000 0.65530  0.70200  0.31620  Biso   1.000  O
  O18      1.0000 0.84470  0.20200  0.18380  Biso   1.000  O
  O19      1.0000 0.34470  0.29800  0.68380  Biso   1.000  O
  O20      1.0000 0.15530  0.79800  0.81620  Biso   1.000  O
  O21      1.0000 0.58680  0.74200  0.28300  Biso   1.000  O
  O22      1.0000 0.91320  0.24200  0.21700  Biso   1.000  O
  O23      1.0000 0.41320  0.25800  0.71700  Biso   1.000  O
  O24      1.0000 0.08680  0.75800  0.78300  Biso   1.000  O
