data_image0
_cell_length_a       7.742
_cell_length_b       10.879
_cell_length_c       11.202
_cell_angle_alpha    62.941
_cell_angle_beta     89.016
_cell_angle_gamma    75.403

_symmetry_space_group_name_H-M    "P 1"
_symmetry_int_tables_number       1

loop_
  _symmetry_equiv_pos_as_xyz
  'x, y, z'

loop_
  _atom_site_label
  _atom_site_occupancy
  _atom_site_fract_x
  _atom_site_fract_y
  _atom_site_fract_z
  _atom_site_thermal_displace_type
  _atom_site_B_iso_or_equiv
  _atom_site_type_symbol
  Cu1      1.0000 0.34758  0.99259  0.27660  Biso   1.000  Cu
  Cu2      1.0000 0.65242  0.00741  0.72340  Biso   1.000  Cu
  Cu3      1.0000 0.50000  0.50000  0.50000  Biso   1.000  Cu
  Cu4      1.0000 0.02593  0.30949  0.07267  Biso   1.000  Cu
  Cu5      1.0000 0.97407  0.69051  0.92733  Biso   1.000  Cu
  Cl1      1.0000 0.17185  0.21305  0.28570  Biso   1.000  Cl
  Cl2      1.0000 0.82815  0.78695  0.71430  Biso   1.000  Cl
  Cl3      1.0000 0.56905  0.78353  0.39492  Biso   1.000  Cl
  Cl4      1.0000 0.43095  0.21647  0.60508  Biso   1.000  Cl
  Cl5      1.0000 0.21377  0.04784  0.06214  Biso   1.000  Cl
  Cl6      1.0000 0.78623  0.95216  0.93786  Biso   1.000  Cl
  Cl7      1.0000 0.73564  0.42119  0.40622  Biso   1.000  Cl
  Cl8      1.0000 0.26436  0.57881  0.59378  Biso   1.000  Cl
  Cl9      1.0000 0.22666  0.43112  0.97144  Biso   1.000  Cl
  Cl10     1.0000 0.77334  0.56888  0.02856  Biso   1.000  Cl
  O1       1.0000 0.16810  0.89710  0.37240  Biso   1.000  O
  O2       1.0000 0.83190  0.10290  0.62760  Biso   1.000  O
  O3       1.0000 0.92280  0.85330  0.24610  Biso   1.000  O
  O4       1.0000 0.07720  0.14670  0.75390  Biso   1.000  O
  N1       1.0000 0.53890  0.09660  0.21210  Biso   1.000  N
  N2       1.0000 0.46110  0.90340  0.78790  Biso   1.000  N
  N3       1.0000 0.66580  0.43390  0.66990  Biso   1.000  N
  N4       1.0000 0.33420  0.56610  0.33010  Biso   1.000  N
  N5       1.0000 0.88990  0.35900  0.89500  Biso   1.000  N
  N6       1.0000 0.11010  0.64100  0.10500  Biso   1.000  N
  N7       1.0000 0.81650  0.22440  0.14240  Biso   1.000  N
  N8       1.0000 0.18350  0.77560  0.85760  Biso   1.000  N
  C1       1.0000 0.70680  0.23010  0.04780  Biso   1.000  C
  C2       1.0000 0.29320  0.76990  0.95220  Biso   1.000  C
  C3       1.0000 0.56890  0.16320  0.08320  Biso   1.000  C
  C4       1.0000 0.43110  0.83680  0.91680  Biso   1.000  C
  H1       1.0000 0.49560  0.16480  0.01500  Biso   1.000  H
  H2       1.0000 0.50440  0.83520  0.98500  Biso   1.000  H
  C5       1.0000 0.64260  0.09830  0.30490  Biso   1.000  C
  C6       1.0000 0.35740  0.90170  0.69510  Biso   1.000  C
  H3       1.0000 0.61930  0.05530  0.39650  Biso   1.000  H
  H4       1.0000 0.38070  0.94470  0.60350  Biso   1.000  H
  C7       1.0000 0.78280  0.16070  0.27170  Biso   1.000  C
  C8       1.0000 0.21720  0.83930  0.72830  Biso   1.000  C
  H5       1.0000 0.85570  0.15870  0.34030  Biso   1.000  H
  H6       1.0000 0.14430  0.84130  0.65970  Biso   1.000  H
  C9       1.0000 0.74040  0.31410  0.90770  Biso   1.000  C
  C10      1.0000 0.25960  0.68590  0.09230  Biso   1.000  C
  C11      1.0000 0.62740  0.35260  0.79510  Biso   1.000  C
  C12      1.0000 0.37260  0.64740  0.20490  Biso   1.000  C
  H7       1.0000 0.52130  0.32160  0.80580  Biso   1.000  H
  H8       1.0000 0.47870  0.67840  0.19420  Biso   1.000  H
  C13      1.0000 0.81520  0.47530  0.65870  Biso   1.000  C
  C14      1.0000 0.18480  0.52470  0.34130  Biso   1.000  C
  H9       1.0000 0.84590  0.53100  0.57150  Biso   1.000  H
  H10      1.0000 0.15410  0.46900  0.42850  Biso   1.000  H
  C15      1.0000 0.92720  0.43870  0.77200  Biso   1.000  C
  C16      1.0000 0.07280  0.56130  0.22800  Biso   1.000  C
  H11      1.0000 0.03210  0.47130  0.76130  Biso   1.000  H
  H12      1.0000 0.96790  0.52870  0.23870  Biso   1.000  H
  H13      1.0000 0.22080  0.81080  0.42480  Biso   1.000  H
  H14      1.0000 0.77920  0.18920  0.57520  Biso   1.000  H
  H15      1.0000 0.08960  0.89960  0.31630  Biso   1.000  H
  H16      1.0000 0.91040  0.10040  0.68370  Biso   1.000  H
  H17      1.0000 0.88040  0.89580  0.16610  Biso   1.000  H
  H18      1.0000 0.11960  0.10420  0.83390  Biso   1.000  H
  H19      1.0000 0.84250  0.82170  0.29090  Biso   1.000  H
  H20      1.0000 0.15750  0.17830  0.70910  Biso   1.000  H
