data_image0
_cell_length_a       9.3139
_cell_length_b       9.3139
_cell_length_c       13.3133
_cell_angle_alpha    90
_cell_angle_beta     90
_cell_angle_gamma    120

_symmetry_space_group_name_H-M    "P 1"
_symmetry_int_tables_number       1

loop_
  _symmetry_equiv_pos_as_xyz
  'x, y, z'

loop_
  _atom_site_label
  _atom_site_occupancy
  _atom_site_fract_x
  _atom_site_fract_y
  _atom_site_fract_z
  _atom_site_thermal_displace_type
  _atom_site_B_iso_or_equiv
  _atom_site_type_symbol
  Cu1      1.0000 0.18143  0.85091  0.00000  Biso   1.000  Cu
  Cu2      1.0000 0.66948  0.81857  0.00000  Biso   1.000  Cu
  Cu3      1.0000 0.14909  0.33052  0.00000  Biso   1.000  Cu
  C1       1.0000 0.33330  0.66660  0.00000  Biso   1.000  C
  C2       1.0000 0.00000  0.00000  0.00000  Biso   1.000  C
  O1       1.0000 0.18540  0.64360  0.00000  Biso   1.000  O
  O2       1.0000 0.45820  0.81460  0.00000  Biso   1.000  O
  O3       1.0000 0.35640  0.54180  0.00000  Biso   1.000  O
  O4       1.0000 0.89110  0.84330  0.00000  Biso   1.000  O
  O5       1.0000 0.95220  0.10890  0.00000  Biso   1.000  O
  O6       1.0000 0.15670  0.04780  0.00000  Biso   1.000  O
  N1       1.0000 0.18610  0.85390  0.85080  Biso   1.000  N
  N2       1.0000 0.66780  0.81390  0.14920  Biso   1.000  N
  N3       1.0000 0.14610  0.33220  0.85080  Biso   1.000  N
  N4       1.0000 0.18610  0.85390  0.14920  Biso   1.000  N
  N5       1.0000 0.66780  0.81390  0.85080  Biso   1.000  N
  N6       1.0000 0.14610  0.33220  0.14920  Biso   1.000  N
  C3       1.0000 0.27630  0.99540  0.80060  Biso   1.000  C
  C4       1.0000 0.71910  0.72370  0.19940  Biso   1.000  C
  C5       1.0000 0.00460  0.28090  0.80060  Biso   1.000  C
  C6       1.0000 0.27630  0.99540  0.19940  Biso   1.000  C
  C7       1.0000 0.71910  0.72370  0.80060  Biso   1.000  C
  C8       1.0000 0.00460  0.28090  0.19940  Biso   1.000  C
  H1       1.0000 0.33640  0.09350  0.83650  Biso   1.000  H
  H2       1.0000 0.75710  0.66360  0.16350  Biso   1.000  H
  H3       1.0000 0.90650  0.24290  0.83650  Biso   1.000  H
  H4       1.0000 0.33640  0.09350  0.16350  Biso   1.000  H
  H5       1.0000 0.75710  0.66360  0.83650  Biso   1.000  H
  H6       1.0000 0.90650  0.24290  0.16350  Biso   1.000  H
  C9       1.0000 0.28300  0.00040  0.69690  Biso   1.000  C
  C10      1.0000 0.71740  0.71700  0.30310  Biso   1.000  C
  C11      1.0000 0.99960  0.28260  0.69690  Biso   1.000  C
  C12      1.0000 0.28300  0.00040  0.30310  Biso   1.000  C
  C13      1.0000 0.71740  0.71700  0.69690  Biso   1.000  C
  C14      1.0000 0.99960  0.28260  0.30310  Biso   1.000  C
  H7       1.0000 0.34930  0.10070  0.66430  Biso   1.000  H
  H8       1.0000 0.75140  0.65070  0.33570  Biso   1.000  H
  H9       1.0000 0.89930  0.24860  0.66430  Biso   1.000  H
  H10      1.0000 0.34930  0.10070  0.33570  Biso   1.000  H
  H11      1.0000 0.75140  0.65070  0.66430  Biso   1.000  H
  H12      1.0000 0.89930  0.24860  0.33570  Biso   1.000  H
  C15      1.0000 0.19280  0.85870  0.64130  Biso   1.000  C
  C16      1.0000 0.66590  0.80720  0.35870  Biso   1.000  C
  C17      1.0000 0.14130  0.33410  0.64130  Biso   1.000  C
  C18      1.0000 0.19280  0.85870  0.35870  Biso   1.000  C
  C19      1.0000 0.66590  0.80720  0.64130  Biso   1.000  C
  C20      1.0000 0.14130  0.33410  0.35870  Biso   1.000  C
  C21      1.0000 0.09480  0.71060  0.69580  Biso   1.000  C
  C22      1.0000 0.61580  0.90520  0.30420  Biso   1.000  C
  C23      1.0000 0.28940  0.38420  0.69580  Biso   1.000  C
  C24      1.0000 0.09480  0.71060  0.30420  Biso   1.000  C
  C25      1.0000 0.61580  0.90520  0.69580  Biso   1.000  C
  C26      1.0000 0.28940  0.38420  0.30420  Biso   1.000  C
  H13      1.0000 0.02900  0.61190  0.66160  Biso   1.000  H
  H14      1.0000 0.58290  0.97100  0.33840  Biso   1.000  H
  H15      1.0000 0.38810  0.41710  0.66160  Biso   1.000  H
  H16      1.0000 0.02900  0.61190  0.33840  Biso   1.000  H
  H17      1.0000 0.58290  0.97100  0.66160  Biso   1.000  H
  H18      1.0000 0.38810  0.41710  0.33840  Biso   1.000  H
  C27      1.0000 0.09650  0.71190  0.79800  Biso   1.000  C
  C28      1.0000 0.61540  0.90350  0.20200  Biso   1.000  C
  C29      1.0000 0.28810  0.38460  0.79800  Biso   1.000  C
  C30      1.0000 0.09650  0.71190  0.20200  Biso   1.000  C
  C31      1.0000 0.61540  0.90350  0.79800  Biso   1.000  C
  C32      1.0000 0.28810  0.38460  0.20200  Biso   1.000  C
  H19      1.0000 0.03450  0.61270  0.83250  Biso   1.000  H
  H20      1.0000 0.57820  0.96550  0.16750  Biso   1.000  H
  H21      1.0000 0.38730  0.42180  0.83250  Biso   1.000  H
  H22      1.0000 0.03450  0.61270  0.16750  Biso   1.000  H
  H23      1.0000 0.57820  0.96550  0.83250  Biso   1.000  H
  H24      1.0000 0.38730  0.42180  0.16750  Biso   1.000  H
  C33      1.0000 0.25410  0.86000  0.53330  Biso   1.000  C
  C34      1.0000 0.60590  0.74590  0.46670  Biso   1.000  C
  C35      1.0000 0.14000  0.39410  0.53330  Biso   1.000  C
  C36      1.0000 0.25410  0.86000  0.46670  Biso   1.000  C
  C37      1.0000 0.60590  0.74590  0.53330  Biso   1.000  C
  C38      1.0000 0.14000  0.39410  0.46670  Biso   1.000  C
  H25      1.0000 0.35020  0.86040  0.51360  Biso   1.000  H
  H26      1.0000 0.51020  0.64980  0.48640  Biso   1.000  H
  H27      1.0000 0.13960  0.48980  0.51360  Biso   1.000  H
  H28      1.0000 0.35020  0.86040  0.48640  Biso   1.000  H
  H29      1.0000 0.51020  0.64980  0.51360  Biso   1.000  H
  H30      1.0000 0.13960  0.48980  0.48640  Biso   1.000  H
  C39      1.0000 0.12320  0.86100  0.53330  Biso   1.000  C
  C40      1.0000 0.73780  0.87680  0.46670  Biso   1.000  C
  C41      1.0000 0.13900  0.26220  0.53330  Biso   1.000  C
  C42      1.0000 0.12320  0.86100  0.46670  Biso   1.000  C
  C43      1.0000 0.73780  0.87680  0.53330  Biso   1.000  C
  C44      1.0000 0.13900  0.26220  0.46670  Biso   1.000  C
  H31      1.0000 0.02720  0.86220  0.48440  Biso   1.000  H
  H32      1.0000 0.83500  0.97280  0.51560  Biso   1.000  H
  H33      1.0000 0.13780  0.16500  0.48440  Biso   1.000  H
  H34      1.0000 0.02720  0.86220  0.51560  Biso   1.000  H
  H35      1.0000 0.83500  0.97280  0.48440  Biso   1.000  H
  H36      1.0000 0.13780  0.16500  0.51560  Biso   1.000  H
  Cl1      1.0000 0.66670  0.33330  0.00000  Biso   1.000  Cl
  O7       1.0000 0.66670  0.33330  0.11380  Biso   1.000  O
  O8       1.0000 0.66660  0.33330  0.88620  Biso   1.000  O
  O9       1.0000 0.55940  0.16650  0.00000  Biso   1.000  O
  O10      1.0000 0.60710  0.44060  0.00000  Biso   1.000  O
  O11      1.0000 0.83350  0.39290  0.00000  Biso   1.000  O
  Cl2      1.0000 0.66670  0.33330  0.50000  Biso   1.000  Cl
  O12      1.0000 0.66670  0.33330  0.39830  Biso   1.000  O
  O13      1.0000 0.66660  0.33330  0.60170  Biso   1.000  O
  O14      1.0000 0.65800  0.17990  0.50000  Biso   1.000  O
  O15      1.0000 0.52190  0.34200  0.50000  Biso   1.000  O
  O16      1.0000 0.82010  0.47810  0.50000  Biso   1.000  O
