data_image0
_cell_length_a       9.5695
_cell_length_b       28.354
_cell_length_c       12.4233
_cell_angle_alpha    90
_cell_angle_beta     91.021
_cell_angle_gamma    90

_symmetry_space_group_name_H-M    "P 1"
_symmetry_int_tables_number       1

loop_
  _symmetry_equiv_pos_as_xyz
  'x, y, z'

loop_
  _atom_site_label
  _atom_site_occupancy
  _atom_site_fract_x
  _atom_site_fract_y
  _atom_site_fract_z
  _atom_site_thermal_displace_type
  _atom_site_B_iso_or_equiv
  _atom_site_type_symbol
  Cu1      1.0000 0.38184  0.68005  0.53178  Biso   1.000  Cu
  Cu2      1.0000 0.61816  0.18005  0.96822  Biso   1.000  Cu
  Cu3      1.0000 0.61816  0.31995  0.46822  Biso   1.000  Cu
  Cu4      1.0000 0.38184  0.81995  0.03178  Biso   1.000  Cu
  O1       1.0000 0.38460  0.75428  0.53180  Biso   1.000  O
  O2       1.0000 0.61540  0.25428  0.96820  Biso   1.000  O
  O3       1.0000 0.61540  0.24572  0.46820  Biso   1.000  O
  O4       1.0000 0.38460  0.74572  0.03180  Biso   1.000  O
  Cu5      1.0000 0.88190  0.75577  0.77737  Biso   1.000  Cu
  Cu6      1.0000 0.11810  0.25577  0.72263  Biso   1.000  Cu
  Cu7      1.0000 0.11810  0.24423  0.22263  Biso   1.000  Cu
  Cu8      1.0000 0.88190  0.74423  0.27737  Biso   1.000  Cu
  O5       1.0000 0.92570  0.71591  0.90620  Biso   1.000  O
  O6       1.0000 0.07430  0.21591  0.59380  Biso   1.000  O
  O7       1.0000 0.07430  0.28409  0.09380  Biso   1.000  O
  O8       1.0000 0.92570  0.78409  0.40620  Biso   1.000  O
  O9       1.0000 0.65190  0.72004  0.77390  Biso   1.000  O
  O10      1.0000 0.34810  0.22004  0.72610  Biso   1.000  O
  O11      1.0000 0.34810  0.27996  0.22610  Biso   1.000  O
  O12      1.0000 0.65190  0.77996  0.27390  Biso   1.000  O
  O13      1.0000 0.83820  0.79393  0.64550  Biso   1.000  O
  O14      1.0000 0.16180  0.29393  0.85450  Biso   1.000  O
  O15      1.0000 0.16180  0.20607  0.35450  Biso   1.000  O
  O16      1.0000 0.83820  0.70607  0.14550  Biso   1.000  O
  O17      1.0000 0.12350  0.78759  0.78210  Biso   1.000  O
  O18      1.0000 0.87650  0.28759  0.71790  Biso   1.000  O
  O19      1.0000 0.87650  0.21241  0.21790  Biso   1.000  O
  O20      1.0000 0.12350  0.71241  0.28210  Biso   1.000  O
  O21      1.0000 0.19050  0.69031  0.92810  Biso   1.000  O
  O22      1.0000 0.80950  0.19031  0.57190  Biso   1.000  O
  O23      1.0000 0.80950  0.30969  0.07190  Biso   1.000  O
  O24      1.0000 0.19050  0.80969  0.42810  Biso   1.000  O
  N1       1.0000 0.24940  0.66938  0.84270  Biso   1.000  N
  N2       1.0000 0.75060  0.16938  0.65730  Biso   1.000  N
  N3       1.0000 0.75060  0.33062  0.15730  Biso   1.000  N
  N4       1.0000 0.24940  0.83062  0.34270  Biso   1.000  N
  C1       1.0000 0.28300  0.62320  0.83230  Biso   1.000  C
  C2       1.0000 0.71700  0.12320  0.66770  Biso   1.000  C
  C3       1.0000 0.71700  0.37680  0.16770  Biso   1.000  C
  C4       1.0000 0.28300  0.87680  0.33230  Biso   1.000  C
  N5       1.0000 0.28100  0.69465  0.75610  Biso   1.000  N
  N6       1.0000 0.71900  0.19465  0.74390  Biso   1.000  N
  N7       1.0000 0.71900  0.30535  0.24390  Biso   1.000  N
  N8       1.0000 0.28100  0.80535  0.25610  Biso   1.000  N
  C5       1.0000 0.34140  0.62050  0.73100  Biso   1.000  C
  C6       1.0000 0.65860  0.12050  0.76900  Biso   1.000  C
  C7       1.0000 0.65860  0.37950  0.26900  Biso   1.000  C
  C8       1.0000 0.34140  0.87950  0.23100  Biso   1.000  C
  N9       1.0000 0.33950  0.66472  0.68630  Biso   1.000  N
  N10      1.0000 0.66050  0.16472  0.81370  Biso   1.000  N
  N11      1.0000 0.66050  0.33528  0.31370  Biso   1.000  N
  N12      1.0000 0.33950  0.83528  0.18630  Biso   1.000  N
  C9       1.0000 0.39060  0.57750  0.69240  Biso   1.000  C
  C10      1.0000 0.60940  0.07750  0.80760  Biso   1.000  C
  C11      1.0000 0.60940  0.42250  0.30760  Biso   1.000  C
  C12      1.0000 0.39060  0.92250  0.19240  Biso   1.000  C
  H1       1.0000 0.43010  0.57490  0.62300  Biso   1.000  H
  H2       1.0000 0.56990  0.07490  0.87700  Biso   1.000  H
  H3       1.0000 0.56990  0.42510  0.37700  Biso   1.000  H
  H4       1.0000 0.43010  0.92510  0.12300  Biso   1.000  H
  C13      1.0000 0.37940  0.53910  0.75920  Biso   1.000  C
  C14      1.0000 0.62060  0.03910  0.74080  Biso   1.000  C
  C15      1.0000 0.62060  0.46090  0.24080  Biso   1.000  C
  C16      1.0000 0.37940  0.96090  0.25920  Biso   1.000  C
  H5       1.0000 0.41410  0.50950  0.73550  Biso   1.000  H
  H6       1.0000 0.58590  0.00950  0.76450  Biso   1.000  H
  H7       1.0000 0.58590  0.49050  0.26450  Biso   1.000  H
  H8       1.0000 0.41410  0.99050  0.23550  Biso   1.000  H
  C17      1.0000 0.31920  0.54180  0.86020  Biso   1.000  C
  C18      1.0000 0.68080  0.04180  0.63980  Biso   1.000  C
  C19      1.0000 0.68080  0.45820  0.13980  Biso   1.000  C
  C20      1.0000 0.31920  0.95820  0.36020  Biso   1.000  C
  H9       1.0000 0.31320  0.51420  0.90300  Biso   1.000  H
  H10      1.0000 0.68680  0.01420  0.59700  Biso   1.000  H
  H11      1.0000 0.68680  0.48580  0.09700  Biso   1.000  H
  H12      1.0000 0.31320  0.98580  0.40300  Biso   1.000  H
  C21      1.0000 0.26760  0.58410  0.89970  Biso   1.000  C
  C22      1.0000 0.73240  0.08410  0.60030  Biso   1.000  C
  C23      1.0000 0.73240  0.41590  0.10030  Biso   1.000  C
  C24      1.0000 0.26760  0.91590  0.39970  Biso   1.000  C
  H13      1.0000 0.22480  0.58630  0.96790  Biso   1.000  H
  H14      1.0000 0.77520  0.08630  0.53210  Biso   1.000  H
  H15      1.0000 0.77520  0.41370  0.03210  Biso   1.000  H
  H16      1.0000 0.22480  0.91370  0.46790  Biso   1.000  H
  O25      1.0000 0.18160  0.67523  0.48400  Biso   1.000  O
  O26      1.0000 0.81840  0.17523  0.01600  Biso   1.000  O
  O27      1.0000 0.81840  0.32477  0.51600  Biso   1.000  O
  O28      1.0000 0.18160  0.82477  0.98400  Biso   1.000  O
  N13      1.0000 0.08400  0.67604  0.56100  Biso   1.000  N
  N14      1.0000 0.91600  0.17604  0.93900  Biso   1.000  N
  N15      1.0000 0.91600  0.32396  0.43900  Biso   1.000  N
  N16      1.0000 0.08400  0.82396  0.06100  Biso   1.000  N
  C25      1.0000 0.02850  0.63740  0.60990  Biso   1.000  C
  C26      1.0000 0.97150  0.13740  0.89010  Biso   1.000  C
  C27      1.0000 0.97150  0.36260  0.39010  Biso   1.000  C
  C28      1.0000 0.02850  0.86260  0.10990  Biso   1.000  C
  N17      1.0000 0.04010  0.71591  0.60290  Biso   1.000  N
  N18      1.0000 0.95990  0.21591  0.89710  Biso   1.000  N
  N19      1.0000 0.95990  0.28409  0.39710  Biso   1.000  N
  N20      1.0000 0.04010  0.78409  0.10290  Biso   1.000  N
  C29      1.0000 0.94440  0.65650  0.68840  Biso   1.000  C
  C30      1.0000 0.05560  0.15650  0.81160  Biso   1.000  C
  C31      1.0000 0.05560  0.34350  0.31160  Biso   1.000  C
  C32      1.0000 0.94440  0.84350  0.18840  Biso   1.000  C
  N21      1.0000 0.95290  0.70439  0.68240  Biso   1.000  N
  N22      1.0000 0.04710  0.20439  0.81760  Biso   1.000  N
  N23      1.0000 0.04710  0.29561  0.31760  Biso   1.000  N
  N24      1.0000 0.95290  0.79561  0.18240  Biso   1.000  N
  C33      1.0000 0.87020  0.62610  0.75880  Biso   1.000  C
  C34      1.0000 0.12980  0.12610  0.74120  Biso   1.000  C
  C35      1.0000 0.12980  0.37390  0.24120  Biso   1.000  C
  C36      1.0000 0.87020  0.87390  0.25880  Biso   1.000  C
  H17      1.0000 0.81250  0.63810  0.81390  Biso   1.000  H
  H18      1.0000 0.18750  0.13810  0.68610  Biso   1.000  H
  H19      1.0000 0.18750  0.36190  0.18610  Biso   1.000  H
  H20      1.0000 0.81250  0.86190  0.31390  Biso   1.000  H
  C37      1.0000 0.88640  0.57880  0.74270  Biso   1.000  C
  C38      1.0000 0.11360  0.07880  0.75730  Biso   1.000  C
  C39      1.0000 0.11360  0.42120  0.25730  Biso   1.000  C
  C40      1.0000 0.88640  0.92120  0.24270  Biso   1.000  C
  H21      1.0000 0.83780  0.55770  0.78800  Biso   1.000  H
  H22      1.0000 0.16220  0.05770  0.71200  Biso   1.000  H
  H23      1.0000 0.16220  0.44230  0.21200  Biso   1.000  H
  H24      1.0000 0.83780  0.94230  0.28800  Biso   1.000  H
  C41      1.0000 0.97160  0.55990  0.66220  Biso   1.000  C
  C42      1.0000 0.02840  0.05990  0.83780  Biso   1.000  C
  C43      1.0000 0.02840  0.44010  0.33780  Biso   1.000  C
  C44      1.0000 0.97160  0.94010  0.16220  Biso   1.000  C
  H25      1.0000 0.97990  0.52670  0.65560  Biso   1.000  H
  H26      1.0000 0.02010  0.02670  0.84440  Biso   1.000  H
  H27      1.0000 0.02010  0.47330  0.34440  Biso   1.000  H
  H28      1.0000 0.97990  0.97330  0.15560  Biso   1.000  H
  C45      1.0000 0.04330  0.58860  0.59250  Biso   1.000  C
  C46      1.0000 0.95670  0.08860  0.90750  Biso   1.000  C
  C47      1.0000 0.95670  0.41140  0.40750  Biso   1.000  C
  C48      1.0000 0.04330  0.91140  0.09250  Biso   1.000  C
  H29      1.0000 0.09900  0.57630  0.53660  Biso   1.000  H
  H30      1.0000 0.90100  0.07630  0.96340  Biso   1.000  H
  H31      1.0000 0.90100  0.42370  0.46340  Biso   1.000  H
  H32      1.0000 0.09900  0.92370  0.03660  Biso   1.000  H
  O29      1.0000 0.56780  0.68490  0.13330  Biso   1.000  O
  O30      1.0000 0.43220  0.18490  0.36670  Biso   1.000  O
  O31      1.0000 0.43220  0.31510  0.86670  Biso   1.000  O
  O32      1.0000 0.56780  0.81510  0.63330  Biso   1.000  O
  N25      1.0000 0.50380  0.66602  0.21760  Biso   1.000  N
  N26      1.0000 0.49620  0.16602  0.28240  Biso   1.000  N
  N27      1.0000 0.49620  0.33398  0.78240  Biso   1.000  N
  N28      1.0000 0.50380  0.83398  0.71760  Biso   1.000  N
  C49      1.0000 0.44510  0.62180  0.22400  Biso   1.000  C
  C50      1.0000 0.55490  0.12180  0.27600  Biso   1.000  C
  C51      1.0000 0.55490  0.37820  0.77600  Biso   1.000  C
  C52      1.0000 0.44510  0.87820  0.72400  Biso   1.000  C
  N29      1.0000 0.48680  0.69053  0.30750  Biso   1.000  N
  N30      1.0000 0.51320  0.19053  0.19250  Biso   1.000  N
  N31      1.0000 0.51320  0.30947  0.69250  Biso   1.000  N
  N32      1.0000 0.48680  0.80947  0.80750  Biso   1.000  N
  C53      1.0000 0.39190  0.62020  0.32830  Biso   1.000  C
  C54      1.0000 0.60810  0.12020  0.17170  Biso   1.000  C
  C55      1.0000 0.60810  0.37980  0.67170  Biso   1.000  C
  C56      1.0000 0.39190  0.87980  0.82830  Biso   1.000  C
  N33      1.0000 0.41980  0.66251  0.37840  Biso   1.000  N
  N34      1.0000 0.58020  0.16251  0.12160  Biso   1.000  N
  N35      1.0000 0.58020  0.33749  0.62160  Biso   1.000  N
  N36      1.0000 0.41980  0.83749  0.87840  Biso   1.000  N
  C57      1.0000 0.32230  0.57900  0.36350  Biso   1.000  C
  C58      1.0000 0.67770  0.07900  0.13650  Biso   1.000  C
  C59      1.0000 0.67770  0.42100  0.63650  Biso   1.000  C
  C60      1.0000 0.32230  0.92100  0.86350  Biso   1.000  C
  H33      1.0000 0.28500  0.57700  0.43370  Biso   1.000  H
  H34      1.0000 0.71500  0.07700  0.06630  Biso   1.000  H
  H35      1.0000 0.71500  0.42300  0.56630  Biso   1.000  H
  H36      1.0000 0.28500  0.92300  0.93370  Biso   1.000  H
  C61      1.0000 0.31100  0.54240  0.29310  Biso   1.000  C
  C62      1.0000 0.68900  0.04240  0.20690  Biso   1.000  C
  C63      1.0000 0.68900  0.45760  0.70690  Biso   1.000  C
  C64      1.0000 0.31100  0.95760  0.79310  Biso   1.000  C
  H37      1.0000 0.26580  0.51430  0.31530  Biso   1.000  H
  H38      1.0000 0.73420  0.01430  0.18470  Biso   1.000  H
  H39      1.0000 0.73420  0.48570  0.68470  Biso   1.000  H
  H40      1.0000 0.26580  0.98570  0.81530  Biso   1.000  H
  C65      1.0000 0.36490  0.54490  0.18720  Biso   1.000  C
  C66      1.0000 0.63510  0.04490  0.31280  Biso   1.000  C
  C67      1.0000 0.63510  0.45510  0.81280  Biso   1.000  C
  C68      1.0000 0.36490  0.95510  0.68720  Biso   1.000  C
  H41      1.0000 0.35240  0.51880  0.14020  Biso   1.000  H
  H42      1.0000 0.64760  0.01880  0.35980  Biso   1.000  H
  H43      1.0000 0.64760  0.48120  0.85980  Biso   1.000  H
  H44      1.0000 0.35240  0.98120  0.64020  Biso   1.000  H
  C69      1.0000 0.43350  0.58350  0.15160  Biso   1.000  C
  C70      1.0000 0.56650  0.08350  0.34840  Biso   1.000  C
  C71      1.0000 0.56650  0.41650  0.84840  Biso   1.000  C
  C72      1.0000 0.43350  0.91650  0.65160  Biso   1.000  C
  H45      1.0000 0.47190  0.58470  0.08160  Biso   1.000  H
  H46      1.0000 0.52810  0.08470  0.41840  Biso   1.000  H
  H47      1.0000 0.52810  0.41530  0.91840  Biso   1.000  H
  H48      1.0000 0.47190  0.91530  0.58160  Biso   1.000  H
  O33      1.0000 0.58150  0.67386  0.58080  Biso   1.000  O
  O34      1.0000 0.41850  0.17386  0.91920  Biso   1.000  O
  O35      1.0000 0.41850  0.32614  0.41920  Biso   1.000  O
  O36      1.0000 0.58150  0.82614  0.08080  Biso   1.000  O
  N37      1.0000 0.67730  0.67074  0.50210  Biso   1.000  N
  N38      1.0000 0.32270  0.17074  0.99790  Biso   1.000  N
  N39      1.0000 0.32270  0.32926  0.49790  Biso   1.000  N
  N40      1.0000 0.67730  0.82926  0.00210  Biso   1.000  N
  C73      1.0000 0.72420  0.62940  0.45710  Biso   1.000  C
  C74      1.0000 0.27580  0.12940  0.04290  Biso   1.000  C
  C75      1.0000 0.27580  0.37060  0.54290  Biso   1.000  C
  C76      1.0000 0.72420  0.87060  0.95710  Biso   1.000  C
  N41      1.0000 0.72840  0.70883  0.45510  Biso   1.000  N
  N42      1.0000 0.27160  0.20883  0.04490  Biso   1.000  N
  N43      1.0000 0.27160  0.29117  0.54490  Biso   1.000  N
  N44      1.0000 0.72840  0.79117  0.95510  Biso   1.000  N
  C77      1.0000 0.81180  0.64550  0.37500  Biso   1.000  C
  C78      1.0000 0.18820  0.14550  0.12500  Biso   1.000  C
  C79      1.0000 0.18820  0.35450  0.62500  Biso   1.000  C
  C80      1.0000 0.81180  0.85450  0.87500  Biso   1.000  C
  N45      1.0000 0.81000  0.69385  0.37620  Biso   1.000  N
  N46      1.0000 0.19000  0.19385  0.12380  Biso   1.000  N
  N47      1.0000 0.19000  0.30615  0.62380  Biso   1.000  N
  N48      1.0000 0.81000  0.80615  0.87620  Biso   1.000  N
  C81      1.0000 0.88120  0.61180  0.30910  Biso   1.000  C
  C82      1.0000 0.11880  0.11180  0.19090  Biso   1.000  C
  C83      1.0000 0.11880  0.38820  0.69090  Biso   1.000  C
  C84      1.0000 0.88120  0.88820  0.80910  Biso   1.000  C
  H49      1.0000 0.94340  0.62110  0.25420  Biso   1.000  H
  H50      1.0000 0.05660  0.12110  0.24580  Biso   1.000  H
  H51      1.0000 0.05660  0.37890  0.74580  Biso   1.000  H
  H52      1.0000 0.94340  0.87890  0.75420  Biso   1.000  H
  C85      1.0000 0.85280  0.56520  0.32970  Biso   1.000  C
  C86      1.0000 0.14720  0.06520  0.17030  Biso   1.000  C
  C87      1.0000 0.14720  0.43480  0.67030  Biso   1.000  C
  C88      1.0000 0.85280  0.93480  0.82970  Biso   1.000  C
  H53      1.0000 0.89400  0.54180  0.28560  Biso   1.000  H
  H54      1.0000 0.10600  0.04180  0.21440  Biso   1.000  H
  H55      1.0000 0.10600  0.45820  0.71440  Biso   1.000  H
  H56      1.0000 0.89400  0.95820  0.78560  Biso   1.000  H
  C89      1.0000 0.76450  0.55050  0.41410  Biso   1.000  C
  C90      1.0000 0.23550  0.05050  0.08590  Biso   1.000  C
  C91      1.0000 0.23550  0.44950  0.58590  Biso   1.000  C
  C92      1.0000 0.76450  0.94950  0.91410  Biso   1.000  C
  H57      1.0000 0.75050  0.51770  0.42530  Biso   1.000  H
  H58      1.0000 0.24950  0.01770  0.07470  Biso   1.000  H
  H59      1.0000 0.24950  0.48230  0.57470  Biso   1.000  H
  H60      1.0000 0.75050  0.98230  0.92530  Biso   1.000  H
  C93      1.0000 0.69940  0.58180  0.47910  Biso   1.000  C
  C94      1.0000 0.30060  0.08180  0.02090  Biso   1.000  C
  C95      1.0000 0.30060  0.41820  0.52090  Biso   1.000  C
  C96      1.0000 0.69940  0.91820  0.97910  Biso   1.000  C
  H61      1.0000 0.64090  0.57200  0.53590  Biso   1.000  H
  H62      1.0000 0.35910  0.07200  0.96410  Biso   1.000  H
  H63      1.0000 0.35910  0.42800  0.46410  Biso   1.000  H
  H64      1.0000 0.64090  0.92800  0.03590  Biso   1.000  H
  O37      1.0000 0.59180  0.64554  0.92700  Biso   1.000  O
  O38      1.0000 0.40820  0.14554  0.57300  Biso   1.000  O
  O39      1.0000 0.40820  0.35446  0.07300  Biso   1.000  O
  O40      1.0000 0.59180  0.85446  0.42700  Biso   1.000  O
  C97      1.0000 0.81630  0.57450  0.02610  Biso   1.000  C
  C98      1.0000 0.18370  0.07450  0.47390  Biso   1.000  C
  C99      1.0000 0.18370  0.42550  0.97390  Biso   1.000  C
  C100     1.0000 0.81630  0.92550  0.52610  Biso   1.000  C
  H65      1.0000 0.77800  0.58100  0.09810  Biso   1.000  H
  H66      1.0000 0.22200  0.08100  0.40190  Biso   1.000  H
  H67      1.0000 0.22200  0.41900  0.90190  Biso   1.000  H
  H68      1.0000 0.77800  0.91900  0.59810  Biso   1.000  H
  H69      1.0000 0.84840  0.60480  0.99600  Biso   1.000  H
  H70      1.0000 0.15160  0.10480  0.50400  Biso   1.000  H
  H71      1.0000 0.15160  0.39520  0.00400  Biso   1.000  H
  H72      1.0000 0.84840  0.89520  0.49600  Biso   1.000  H
  O41      1.0000 0.07210  0.65203  0.11070  Biso   1.000  O
  O42      1.0000 0.92790  0.15203  0.38930  Biso   1.000  O
  O43      1.0000 0.92790  0.34797  0.88930  Biso   1.000  O
  O44      1.0000 0.07210  0.84797  0.61070  Biso   1.000  O
  C101     1.0000 0.94900  0.54030  0.04050  Biso   1.000  C
  C102     1.0000 0.05100  0.04030  0.45950  Biso   1.000  C
  C103     1.0000 0.05100  0.45970  0.95950  Biso   1.000  C
  C104     1.0000 0.94900  0.95970  0.54050  Biso   1.000  C
  H73      1.0000 0.92000  0.51090  0.07500  Biso   1.000  H
  H74      1.0000 0.08000  0.01090  0.42500  Biso   1.000  H
  H75      1.0000 0.08000  0.48910  0.92500  Biso   1.000  H
  H76      1.0000 0.92000  0.98910  0.57500  Biso   1.000  H
  H77      1.0000 0.02030  0.55590  0.08540  Biso   1.000  H
  H78      1.0000 0.97970  0.05590  0.41460  Biso   1.000  H
  H79      1.0000 0.97970  0.44410  0.91460  Biso   1.000  H
  H80      1.0000 0.02030  0.94410  0.58540  Biso   1.000  H
  H81      1.0000 0.98750  0.53320  0.96970  Biso   1.000  H
  H82      1.0000 0.01250  0.03320  0.53030  Biso   1.000  H
  H83      1.0000 0.01250  0.46680  0.03030  Biso   1.000  H
  H84      1.0000 0.98750  0.96680  0.46970  Biso   1.000  H
  O45      1.0000 0.71560  0.55810  0.96440  Biso   1.000  O
  O46      1.0000 0.28440  0.05810  0.53560  Biso   1.000  O
  O47      1.0000 0.28440  0.44190  0.03560  Biso   1.000  O
  O48      1.0000 0.71560  0.94190  0.46440  Biso   1.000  O
  H85      1.0000 0.65000  0.57780  0.96150  Biso   1.000  H
  H86      1.0000 0.35000  0.07780  0.53850  Biso   1.000  H
  H87      1.0000 0.35000  0.42220  0.03850  Biso   1.000  H
  H88      1.0000 0.65000  0.92220  0.46150  Biso   1.000  H
  H89      1.0000 0.88100  0.68760  0.90800  Biso   1.000  H
  H90      1.0000 0.11900  0.18760  0.59200  Biso   1.000  H
  H91      1.0000 0.11900  0.31240  0.09200  Biso   1.000  H
  H92      1.0000 0.88100  0.81240  0.40800  Biso   1.000  H
  H93      1.0000 0.61500  0.71360  0.70800  Biso   1.000  H
  H94      1.0000 0.38500  0.21360  0.79200  Biso   1.000  H
  H95      1.0000 0.38500  0.28640  0.29200  Biso   1.000  H
  H96      1.0000 0.61500  0.78640  0.20800  Biso   1.000  H
  H97      1.0000 0.89100  0.81830  0.62800  Biso   1.000  H
  H98      1.0000 0.10900  0.31830  0.87200  Biso   1.000  H
  H99      1.0000 0.10900  0.18170  0.37200  Biso   1.000  H
  H100     1.0000 0.89100  0.68170  0.12800  Biso   1.000  H
  H101     1.0000 0.32700  0.77290  0.49300  Biso   1.000  H
  H102     1.0000 0.67300  0.27290  0.00700  Biso   1.000  H
  H103     1.0000 0.67300  0.22710  0.50700  Biso   1.000  H
  H104     1.0000 0.32700  0.72710  0.99300  Biso   1.000  H
  H105     1.0000 0.16500  0.76140  0.76200  Biso   1.000  H
  H106     1.0000 0.83500  0.26140  0.73800  Biso   1.000  H
  H107     1.0000 0.83500  0.23860  0.23800  Biso   1.000  H
  H108     1.0000 0.16500  0.73860  0.26200  Biso   1.000  H
  H109     1.0000 0.45200  0.77500  0.54500  Biso   1.000  H
  H110     1.0000 0.54800  0.27500  0.95500  Biso   1.000  H
  H111     1.0000 0.54800  0.22500  0.45500  Biso   1.000  H
  H112     1.0000 0.45200  0.72500  0.04500  Biso   1.000  H
  H113     1.0000 0.60800  0.74710  0.78400  Biso   1.000  H
  H114     1.0000 0.39200  0.24710  0.71600  Biso   1.000  H
  H115     1.0000 0.39200  0.25290  0.21600  Biso   1.000  H
  H116     1.0000 0.60800  0.75290  0.28400  Biso   1.000  H
  H117     1.0000 0.74900  0.80400  0.64700  Biso   1.000  H
  H118     1.0000 0.25100  0.30400  0.85300  Biso   1.000  H
  H119     1.0000 0.25100  0.19600  0.35300  Biso   1.000  H
  H120     1.0000 0.74900  0.69600  0.14700  Biso   1.000  H
  H121     1.0000 0.01300  0.70600  0.91400  Biso   1.000  H
  H122     1.0000 0.98700  0.20600  0.58600  Biso   1.000  H
  H123     1.0000 0.98700  0.29400  0.08600  Biso   1.000  H
  H124     1.0000 0.01300  0.79400  0.41400  Biso   1.000  H
  H125     1.0000 0.14000  0.81000  0.83200  Biso   1.000  H
  H126     1.0000 0.86000  0.31000  0.66800  Biso   1.000  H
  H127     1.0000 0.86000  0.19000  0.16800  Biso   1.000  H
  H128     1.0000 0.14000  0.69000  0.33200  Biso   1.000  H
  H129     1.0000 0.62100  0.66900  0.88500  Biso   1.000  H
  H130     1.0000 0.37900  0.16900  0.61500  Biso   1.000  H
  H131     1.0000 0.37900  0.33100  0.11500  Biso   1.000  H
  H132     1.0000 0.62100  0.83100  0.38500  Biso   1.000  H
  H133     1.0000 0.57900  0.66400  0.98400  Biso   1.000  H
  H134     1.0000 0.42100  0.16400  0.51600  Biso   1.000  H
  H135     1.0000 0.42100  0.33600  0.01600  Biso   1.000  H
  H136     1.0000 0.57900  0.83600  0.48400  Biso   1.000  H
  H137     1.0000 0.10600  0.65990  0.04800  Biso   1.000  H
  H138     1.0000 0.89400  0.15990  0.45200  Biso   1.000  H
  H139     1.0000 0.89400  0.34010  0.95200  Biso   1.000  H
  H140     1.0000 0.10600  0.84010  0.54800  Biso   1.000  H
  H141     1.0000 0.09600  0.62800  0.15400  Biso   1.000  H
  H142     1.0000 0.90400  0.12800  0.34600  Biso   1.000  H
  H143     1.0000 0.90400  0.37200  0.84600  Biso   1.000  H
  H144     1.0000 0.09600  0.87200  0.65400  Biso   1.000  H
