data_image0
_cell_length_a       14.3862
_cell_length_b       9.9079
_cell_length_c       15.7052
_cell_angle_alpha    90
_cell_angle_beta     99.376
_cell_angle_gamma    90

_symmetry_space_group_name_H-M    "P 1"
_symmetry_int_tables_number       1

loop_
  _symmetry_equiv_pos_as_xyz
  'x, y, z'

loop_
  _atom_site_label
  _atom_site_occupancy
  _atom_site_fract_x
  _atom_site_fract_y
  _atom_site_fract_z
  _atom_site_thermal_displace_type
  _atom_site_B_iso_or_equiv
  _atom_site_type_symbol
  Cu1      1.0000 0.80138  0.07099  0.79046  Biso   1.000  Cu
  Cu2      1.0000 0.69862  0.57099  0.70954  Biso   1.000  Cu
  Cu3      1.0000 0.19862  0.92901  0.20954  Biso   1.000  Cu
  Cu4      1.0000 0.30138  0.42901  0.29046  Biso   1.000  Cu
  O1       1.0000 0.10739  0.26022  0.71201  Biso   1.000  O
  O2       1.0000 0.39261  0.76022  0.78799  Biso   1.000  O
  O3       1.0000 0.89261  0.73978  0.28799  Biso   1.000  O
  O4       1.0000 0.60739  0.23978  0.21201  Biso   1.000  O
  O5       1.0000 0.66187  0.46751  0.60255  Biso   1.000  O
  O6       1.0000 0.83813  0.96751  0.89745  Biso   1.000  O
  O7       1.0000 0.33813  0.53249  0.39745  Biso   1.000  O
  O8       1.0000 0.16187  0.03249  0.10255  Biso   1.000  O
  O9       1.0000 0.44094  0.96379  0.71987  Biso   1.000  O
  O10      1.0000 0.05906  0.46379  0.78013  Biso   1.000  O
  O11      1.0000 0.55906  0.03621  0.28013  Biso   1.000  O
  O12      1.0000 0.94094  0.53621  0.21987  Biso   1.000  O
  O13      1.0000 0.84161  0.26730  0.86794  Biso   1.000  O
  O14      1.0000 0.65839  0.76730  0.63206  Biso   1.000  O
  O15      1.0000 0.15839  0.73270  0.13206  Biso   1.000  O
  O16      1.0000 0.34161  0.23270  0.36794  Biso   1.000  O
  N1       1.0000 0.05541  0.15890  0.73506  Biso   1.000  N
  N2       1.0000 0.44459  0.65890  0.76494  Biso   1.000  N
  N3       1.0000 0.94459  0.84110  0.26494  Biso   1.000  N
  N4       1.0000 0.55541  0.34110  0.23506  Biso   1.000  N
  N5       1.0000 0.96348  0.17240  0.73183  Biso   1.000  N
  N6       1.0000 0.53652  0.67240  0.76817  Biso   1.000  N
  N7       1.0000 0.03652  0.82760  0.26817  Biso   1.000  N
  N8       1.0000 0.46348  0.32760  0.23183  Biso   1.000  N
  N9       1.0000 0.93184  0.05725  0.76070  Biso   1.000  N
  N10      1.0000 0.56816  0.55725  0.73930  Biso   1.000  N
  N11      1.0000 0.06816  0.94275  0.23930  Biso   1.000  N
  N12      1.0000 0.43184  0.44275  0.26070  Biso   1.000  N
  N13      1.0000 0.70149  0.34608  0.61259  Biso   1.000  N
  N14      1.0000 0.79851  0.84608  0.88741  Biso   1.000  N
  N15      1.0000 0.29851  0.65392  0.38741  Biso   1.000  N
  N16      1.0000 0.20149  0.15392  0.11259  Biso   1.000  N
  N17      1.0000 0.72083  0.29130  0.69039  Biso   1.000  N
  N18      1.0000 0.77917  0.79130  0.80961  Biso   1.000  N
  N19      1.0000 0.27917  0.70870  0.30961  Biso   1.000  N
  N20      1.0000 0.22083  0.20870  0.19039  Biso   1.000  N
  N21      1.0000 0.75979  0.17042  0.68163  Biso   1.000  N
  N22      1.0000 0.74021  0.67042  0.81837  Biso   1.000  N
  N23      1.0000 0.24021  0.82958  0.31837  Biso   1.000  N
  N24      1.0000 0.25979  0.32958  0.18163  Biso   1.000  N
  N25      1.0000 0.51939  0.01050  0.77108  Biso   1.000  N
  N26      1.0000 0.98061  0.51050  0.72892  Biso   1.000  N
  N27      1.0000 0.48061  0.98950  0.22892  Biso   1.000  N
  N28      1.0000 0.01939  0.48950  0.27108  Biso   1.000  N
  N29      1.0000 0.60279  0.99920  0.74612  Biso   1.000  N
  N30      1.0000 0.89721  0.49920  0.75388  Biso   1.000  N
  N31      1.0000 0.39721  0.00080  0.25388  Biso   1.000  N
  N32      1.0000 0.10279  0.50080  0.24612  Biso   1.000  N
  N33      1.0000 0.66531  0.05545  0.80750  Biso   1.000  N
  N34      1.0000 0.83469  0.55545  0.69250  Biso   1.000  N
  N35      1.0000 0.33469  0.94455  0.19250  Biso   1.000  N
  N36      1.0000 0.16531  0.44455  0.30750  Biso   1.000  N
  C1       1.0000 0.08732  0.03560  0.76479  Biso   1.000  C
  C2       1.0000 0.41268  0.53560  0.73521  Biso   1.000  C
  C3       1.0000 0.91268  0.96440  0.23521  Biso   1.000  C
  C4       1.0000 0.58732  0.46440  0.26479  Biso   1.000  C
  C5       1.0000 0.00643  0.96970  0.78177  Biso   1.000  C
  C6       1.0000 0.49357  0.46970  0.71823  Biso   1.000  C
  C7       1.0000 0.99357  0.03030  0.21823  Biso   1.000  C
  C8       1.0000 0.50643  0.53030  0.28177  Biso   1.000  C
  C9       1.0000 0.01289  0.83760  0.81379  Biso   1.000  C
  C10      1.0000 0.48711  0.33760  0.68621  Biso   1.000  C
  C11      1.0000 0.98711  0.16240  0.18621  Biso   1.000  C
  C12      1.0000 0.51289  0.66240  0.31379  Biso   1.000  C
  H1       1.0000 0.95880  0.79020  0.82490  Biso   1.000  H
  H2       1.0000 0.54120  0.29020  0.67510  Biso   1.000  H
  H3       1.0000 0.04120  0.20980  0.17510  Biso   1.000  H
  H4       1.0000 0.45880  0.70980  0.32490  Biso   1.000  H
  C13      1.0000 0.10074  0.77930  0.82843  Biso   1.000  C
  C14      1.0000 0.39926  0.27930  0.67157  Biso   1.000  C
  C15      1.0000 0.89926  0.22070  0.17157  Biso   1.000  C
  C16      1.0000 0.60074  0.72070  0.32843  Biso   1.000  C
  H5       1.0000 0.10730  0.69000  0.85060  Biso   1.000  H
  H6       1.0000 0.39270  0.19000  0.64940  Biso   1.000  H
  H7       1.0000 0.89270  0.31000  0.14940  Biso   1.000  H
  H8       1.0000 0.60730  0.81000  0.35060  Biso   1.000  H
  C17      1.0000 0.18172  0.84880  0.81135  Biso   1.000  C
  C18      1.0000 0.31828  0.34880  0.68865  Biso   1.000  C
  C19      1.0000 0.81828  0.15120  0.18865  Biso   1.000  C
  C20      1.0000 0.68172  0.65120  0.31135  Biso   1.000  C
  H9       1.0000 0.24110  0.80480  0.82260  Biso   1.000  H
  H10      1.0000 0.25890  0.30480  0.67740  Biso   1.000  H
  H11      1.0000 0.75890  0.19520  0.17740  Biso   1.000  H
  H12      1.0000 0.74110  0.69520  0.32260  Biso   1.000  H
  C21      1.0000 0.17709  0.97700  0.77916  Biso   1.000  C
  C22      1.0000 0.32291  0.47700  0.72084  Biso   1.000  C
  C23      1.0000 0.82291  0.02300  0.22084  Biso   1.000  C
  C24      1.0000 0.67709  0.52300  0.27916  Biso   1.000  C
  H13      1.0000 0.23130  0.02360  0.76730  Biso   1.000  H
  H14      1.0000 0.26870  0.52360  0.73270  Biso   1.000  H
  H15      1.0000 0.76870  0.97640  0.23270  Biso   1.000  H
  H16      1.0000 0.73130  0.47640  0.26730  Biso   1.000  H
  C25      1.0000 0.72719  0.26460  0.55088  Biso   1.000  C
  C26      1.0000 0.77281  0.76460  0.94912  Biso   1.000  C
  C27      1.0000 0.27281  0.73540  0.44912  Biso   1.000  C
  C28      1.0000 0.22719  0.23540  0.05088  Biso   1.000  C
  C29      1.0000 0.76469  0.15130  0.59630  Biso   1.000  C
  C30      1.0000 0.73531  0.65130  0.90370  Biso   1.000  C
  C31      1.0000 0.23531  0.84870  0.40370  Biso   1.000  C
  C32      1.0000 0.26469  0.34870  0.09630  Biso   1.000  C
  C33      1.0000 0.79878  0.04200  0.55231  Biso   1.000  C
  C34      1.0000 0.70122  0.54200  0.94769  Biso   1.000  C
  C35      1.0000 0.20122  0.95800  0.44769  Biso   1.000  C
  C36      1.0000 0.29878  0.45800  0.05231  Biso   1.000  C
  H17      1.0000 0.82490  0.96360  0.58180  Biso   1.000  H
  H18      1.0000 0.67510  0.46360  0.91820  Biso   1.000  H
  H19      1.0000 0.17510  0.03640  0.41820  Biso   1.000  H
  H20      1.0000 0.32490  0.53640  0.08180  Biso   1.000  H
  C37      1.0000 0.79190  0.05600  0.46478  Biso   1.000  C
  C38      1.0000 0.70810  0.55600  0.03522  Biso   1.000  C
  C39      1.0000 0.20810  0.94400  0.53522  Biso   1.000  C
  C40      1.0000 0.29190  0.44400  0.96478  Biso   1.000  C
  H21      1.0000 0.81420  0.98480  0.43300  Biso   1.000  H
  H22      1.0000 0.68580  0.48480  0.06700  Biso   1.000  H
  H23      1.0000 0.18580  0.01520  0.56700  Biso   1.000  H
  H24      1.0000 0.31420  0.51520  0.93300  Biso   1.000  H
  C41      1.0000 0.75300  0.17170  0.41953  Biso   1.000  C
  C42      1.0000 0.74700  0.67170  0.08047  Biso   1.000  C
  C43      1.0000 0.24700  0.82830  0.58047  Biso   1.000  C
  C44      1.0000 0.25300  0.32830  0.91953  Biso   1.000  C
  H25      1.0000 0.74950  0.17530  0.35860  Biso   1.000  H
  H26      1.0000 0.75050  0.67530  0.14140  Biso   1.000  H
  H27      1.0000 0.25050  0.82470  0.64140  Biso   1.000  H
  H28      1.0000 0.24950  0.32470  0.85860  Biso   1.000  H
  C45      1.0000 0.72043  0.27790  0.46101  Biso   1.000  C
  C46      1.0000 0.77957  0.77790  0.03899  Biso   1.000  C
  C47      1.0000 0.27957  0.72210  0.53899  Biso   1.000  C
  C48      1.0000 0.22043  0.22210  0.96101  Biso   1.000  C
  H29      1.0000 0.69470  0.35620  0.43110  Biso   1.000  H
  H30      1.0000 0.80530  0.85620  0.06890  Biso   1.000  H
  H31      1.0000 0.30530  0.64380  0.56890  Biso   1.000  H
  H32      1.0000 0.19470  0.14380  0.93110  Biso   1.000  H
  C49      1.0000 0.52401  0.07430  0.84805  Biso   1.000  C
  C50      1.0000 0.97599  0.57430  0.65195  Biso   1.000  C
  C51      1.0000 0.47599  0.92570  0.15195  Biso   1.000  C
  C52      1.0000 0.02401  0.42570  0.34805  Biso   1.000  C
  C53      1.0000 0.61979  0.10280  0.87182  Biso   1.000  C
  C54      1.0000 0.88021  0.60280  0.62818  Biso   1.000  C
  C55      1.0000 0.38021  0.89720  0.12818  Biso   1.000  C
  C56      1.0000 0.11979  0.39720  0.37182  Biso   1.000  C
  C57      1.0000 0.65249  0.16770  0.95059  Biso   1.000  C
  C58      1.0000 0.84751  0.66770  0.54941  Biso   1.000  C
  C59      1.0000 0.34751  0.83230  0.04941  Biso   1.000  C
  C60      1.0000 0.15249  0.33230  0.45059  Biso   1.000  C
  H33      1.0000 0.71750  0.18620  0.96890  Biso   1.000  H
  H34      1.0000 0.78250  0.68620  0.53110  Biso   1.000  H
  H35      1.0000 0.28250  0.81380  0.03110  Biso   1.000  H
  H36      1.0000 0.21750  0.31380  0.46890  Biso   1.000  H
  C61      1.0000 0.58550  0.20300  0.99972  Biso   1.000  C
  C62      1.0000 0.91450  0.70300  0.50028  Biso   1.000  C
  C63      1.0000 0.41450  0.79700  0.00028  Biso   1.000  C
  C64      1.0000 0.08550  0.29700  0.49972  Biso   1.000  C
  H37      1.0000 0.60510  0.24650  0.05350  Biso   1.000  H
  H38      1.0000 0.89490  0.74650  0.44650  Biso   1.000  H
  H39      1.0000 0.39490  0.75350  0.94650  Biso   1.000  H
  H40      1.0000 0.10510  0.25350  0.55350  Biso   1.000  H
  C65      1.0000 0.48870  0.17700  0.97322  Biso   1.000  C
  C66      1.0000 0.01130  0.67700  0.52678  Biso   1.000  C
  C67      1.0000 0.51130  0.82300  0.02678  Biso   1.000  C
  C68      1.0000 0.98870  0.32300  0.47322  Biso   1.000  C
  H41      1.0000 0.44530  0.20530  0.00910  Biso   1.000  H
  H42      1.0000 0.05470  0.70530  0.49090  Biso   1.000  H
  H43      1.0000 0.55470  0.79470  0.99090  Biso   1.000  H
  H44      1.0000 0.94530  0.29470  0.50910  Biso   1.000  H
  C69      1.0000 0.45546  0.11240  0.89746  Biso   1.000  C
  C70      1.0000 0.04454  0.61240  0.60254  Biso   1.000  C
  C71      1.0000 0.54454  0.88760  0.10254  Biso   1.000  C
  C72      1.0000 0.95546  0.38760  0.39746  Biso   1.000  C
  H45      1.0000 0.39030  0.09450  0.87950  Biso   1.000  H
  H46      1.0000 0.10970  0.59450  0.62050  Biso   1.000  H
  H47      1.0000 0.60970  0.90550  0.12050  Biso   1.000  H
  H48      1.0000 0.89030  0.40550  0.37950  Biso   1.000  H
  C73      1.0000 0.93290  0.25600  0.93450  Biso   1.000  C
  C74      1.0000 0.56710  0.75600  0.56550  Biso   1.000  C
  C75      1.0000 0.06710  0.74400  0.06550  Biso   1.000  C
  C76      1.0000 0.43290  0.24400  0.43450  Biso   1.000  C
  H49      1.0000 0.92410  0.18840  0.97890  Biso   1.000  H
  H50      1.0000 0.57590  0.68840  0.52110  Biso   1.000  H
  H51      1.0000 0.07590  0.81160  0.02110  Biso   1.000  H
  H52      1.0000 0.42410  0.31160  0.47890  Biso   1.000  H
  H53      1.0000 0.98510  0.22510  0.90530  Biso   1.000  H
  H54      1.0000 0.51490  0.72510  0.59470  Biso   1.000  H
  H55      1.0000 0.01490  0.77490  0.09470  Biso   1.000  H
  H56      1.0000 0.48510  0.27490  0.40530  Biso   1.000  H
  C77      1.0000 0.95790  0.39130  0.97720  Biso   1.000  C
  C78      1.0000 0.54210  0.89130  0.52280  Biso   1.000  C
  C79      1.0000 0.04210  0.60870  0.02280  Biso   1.000  C
  C80      1.0000 0.45790  0.10870  0.47720  Biso   1.000  C
  H57      1.0000 0.96900  0.45720  0.93340  Biso   1.000  H
  H58      1.0000 0.53100  0.95720  0.56660  Biso   1.000  H
  H59      1.0000 0.03100  0.54280  0.06660  Biso   1.000  H
  H60      1.0000 0.46900  0.04280  0.43340  Biso   1.000  H
  H61      1.0000 0.01510  0.38180  0.02020  Biso   1.000  H
  H62      1.0000 0.48490  0.88180  0.47980  Biso   1.000  H
  H63      1.0000 0.98490  0.61820  0.97980  Biso   1.000  H
  H64      1.0000 0.51510  0.11820  0.52020  Biso   1.000  H
  H65      1.0000 0.90590  0.42220  0.00550  Biso   1.000  H
  H66      1.0000 0.59410  0.92220  0.49450  Biso   1.000  H
  H67      1.0000 0.09410  0.57780  0.99450  Biso   1.000  H
  H68      1.0000 0.40590  0.07780  0.50550  Biso   1.000  H
  H69      1.0000 0.42100  0.87600  0.75000  Biso   1.000  H
  H70      1.0000 0.07900  0.37600  0.75000  Biso   1.000  H
  H71      1.0000 0.57900  0.12400  0.25000  Biso   1.000  H
  H72      1.0000 0.92100  0.62400  0.25000  Biso   1.000  H
  H73      1.0000 0.84600  0.32000  0.83940  Biso   1.000  H
  H74      1.0000 0.65400  0.82000  0.66060  Biso   1.000  H
  H75      1.0000 0.15400  0.68000  0.16060  Biso   1.000  H
  H76      1.0000 0.34600  0.18000  0.33940  Biso   1.000  H
  C81      1.0000 0.89260  0.28010  0.94990  Biso   1.000  C
  C82      1.0000 0.60740  0.78010  0.55010  Biso   1.000  C
  C83      1.0000 0.10740  0.71990  0.05010  Biso   1.000  C
  C84      1.0000 0.39260  0.21990  0.44990  Biso   1.000  C
  C85      1.0000 0.99340  0.24620  0.95100  Biso   1.000  C
  C86      1.0000 0.50660  0.74620  0.54900  Biso   1.000  C
  C87      1.0000 0.00660  0.75380  0.04900  Biso   1.000  C
  C88      1.0000 0.49340  0.25380  0.45100  Biso   1.000  C
  H77      1.0000 0.86600  0.21930  0.98980  Biso   1.000  H
  H78      1.0000 0.63400  0.71930  0.51020  Biso   1.000  H
  H79      1.0000 0.13400  0.78070  0.01020  Biso   1.000  H
  H80      1.0000 0.36600  0.28070  0.48980  Biso   1.000  H
  H81      1.0000 0.88750  0.37390  0.97040  Biso   1.000  H
  H82      1.0000 0.61250  0.87390  0.52960  Biso   1.000  H
  H83      1.0000 0.11250  0.62610  0.02960  Biso   1.000  H
  H84      1.0000 0.38750  0.12610  0.47040  Biso   1.000  H
  H85      1.0000 0.99910  0.15030  0.93720  Biso   1.000  H
  H86      1.0000 0.50090  0.65030  0.56280  Biso   1.000  H
  H87      1.0000 0.00090  0.84970  0.06280  Biso   1.000  H
  H88      1.0000 0.49910  0.34970  0.43720  Biso   1.000  H
  H89      1.0000 0.02920  0.26460  0.00840  Biso   1.000  H
  H90      1.0000 0.47080  0.76460  0.49160  Biso   1.000  H
  H91      1.0000 0.97080  0.73540  0.99160  Biso   1.000  H
  H92      1.0000 0.52920  0.23540  0.50840  Biso   1.000  H
  H93      1.0000 0.01840  0.30110  0.90800  Biso   1.000  H
  H94      1.0000 0.48160  0.80110  0.59200  Biso   1.000  H
  H95      1.0000 0.98160  0.69890  0.09200  Biso   1.000  H
  H96      1.0000 0.51840  0.19890  0.40800  Biso   1.000  H
