data_image0
_cell_length_a       12.4552
_cell_length_b       22.3421
_cell_length_c       11.4363
_cell_angle_alpha    90
_cell_angle_beta     111.832
_cell_angle_gamma    90

_symmetry_space_group_name_H-M    "P 1"
_symmetry_int_tables_number       1

loop_
  _symmetry_equiv_pos_as_xyz
  'x, y, z'

loop_
  _atom_site_label
  _atom_site_occupancy
  _atom_site_fract_x
  _atom_site_fract_y
  _atom_site_fract_z
  _atom_site_thermal_displace_type
  _atom_site_B_iso_or_equiv
  _atom_site_type_symbol
  Cu1      1.0000 0.50000  0.50000  0.00000  Biso   1.000  Cu
  Cu2      1.0000 0.50000  0.00000  0.50000  Biso   1.000  Cu
  Cu3      1.0000 0.95661  0.84686  0.54135  Biso   1.000  Cu
  Cu4      1.0000 0.04339  0.34686  0.95865  Biso   1.000  Cu
  Cu5      1.0000 0.04339  0.15314  0.45865  Biso   1.000  Cu
  Cu6      1.0000 0.95661  0.65314  0.04135  Biso   1.000  Cu
  S1       1.0000 0.43229  0.77640  0.15945  Biso   1.000  S
  S2       1.0000 0.56771  0.27640  0.34055  Biso   1.000  S
  S3       1.0000 0.56771  0.22360  0.84055  Biso   1.000  S
  S4       1.0000 0.43229  0.72360  0.65945  Biso   1.000  S
  S5       1.0000 0.52021  0.39465  0.54749  Biso   1.000  S
  S6       1.0000 0.47979  0.89465  0.95251  Biso   1.000  S
  S7       1.0000 0.47979  0.60535  0.45251  Biso   1.000  S
  S8       1.0000 0.52021  0.10535  0.04749  Biso   1.000  S
  S9       1.0000 0.82609  0.51859  0.11519  Biso   1.000  S
  S10      1.0000 0.17391  0.01859  0.38481  Biso   1.000  S
  S11      1.0000 0.17391  0.48141  0.88481  Biso   1.000  S
  S12      1.0000 0.82609  0.98141  0.61519  Biso   1.000  S
  Cl1      1.0000 0.04870  0.78198  0.41340  Biso   1.000  Cl
  Cl2      1.0000 0.95130  0.28198  0.08660  Biso   1.000  Cl
  Cl3      1.0000 0.95130  0.21802  0.58660  Biso   1.000  Cl
  Cl4      1.0000 0.04870  0.71802  0.91340  Biso   1.000  Cl
  O1       1.0000 0.96620  0.91820  0.43690  Biso   1.000  O
  O2       1.0000 0.03380  0.41820  0.06310  Biso   1.000  O
  O3       1.0000 0.03380  0.08180  0.56310  Biso   1.000  O
  O4       1.0000 0.96620  0.58180  0.93690  Biso   1.000  O
  H1       1.0000 0.03400  0.93100  0.45500  Biso   1.000  H
  H2       1.0000 0.96600  0.43100  0.04500  Biso   1.000  H
  H3       1.0000 0.96600  0.06900  0.54500  Biso   1.000  H
  H4       1.0000 0.03400  0.56900  0.95500  Biso   1.000  H
  H5       1.0000 0.91700  0.78300  0.70200  Biso   1.000  H
  H6       1.0000 0.08300  0.28300  0.79800  Biso   1.000  H
  H7       1.0000 0.08300  0.21700  0.29800  Biso   1.000  H
  H8       1.0000 0.91700  0.71700  0.20200  Biso   1.000  H
  O5       1.0000 0.93490  0.77350  0.64120  Biso   1.000  O
  O6       1.0000 0.06510  0.27350  0.85880  Biso   1.000  O
  O7       1.0000 0.06510  0.22650  0.35880  Biso   1.000  O
  O8       1.0000 0.93490  0.72650  0.14120  Biso   1.000  O
  H9       1.0000 0.92200  0.94500  0.44400  Biso   1.000  H
  H10      1.0000 0.07800  0.44500  0.05600  Biso   1.000  H
  H11      1.0000 0.07800  0.05500  0.55600  Biso   1.000  H
  H12      1.0000 0.92200  0.55500  0.94400  Biso   1.000  H
  H13      1.0000 0.90500  0.74250  0.60200  Biso   1.000  H
  H14      1.0000 0.09500  0.24250  0.89800  Biso   1.000  H
  H15      1.0000 0.09500  0.25750  0.39800  Biso   1.000  H
  H16      1.0000 0.90500  0.75750  0.10200  Biso   1.000  H
  O9       1.0000 0.70110  0.51955  0.08350  Biso   1.000  O
  O10      1.0000 0.29890  0.01955  0.41650  Biso   1.000  O
  O11      1.0000 0.29890  0.48045  0.91650  Biso   1.000  O
  O12      1.0000 0.70110  0.98045  0.58350  Biso   1.000  O
  O13      1.0000 0.87360  0.57941  0.14690  Biso   1.000  O
  O14      1.0000 0.12640  0.07941  0.35310  Biso   1.000  O
  O15      1.0000 0.12640  0.42059  0.85310  Biso   1.000  O
  O16      1.0000 0.87360  0.92059  0.64690  Biso   1.000  O
  O17      1.0000 0.85090  0.49652  0.00530  Biso   1.000  O
  O18      1.0000 0.14910  0.99652  0.49470  Biso   1.000  O
  O19      1.0000 0.14910  0.50348  0.99470  Biso   1.000  O
  O20      1.0000 0.85090  0.00348  0.50530  Biso   1.000  O
  O21      1.0000 0.88220  0.47847  0.22280  Biso   1.000  O
  O22      1.0000 0.11780  0.97847  0.27720  Biso   1.000  O
  O23      1.0000 0.11780  0.52153  0.77720  Biso   1.000  O
  O24      1.0000 0.88220  0.02153  0.72280  Biso   1.000  O
  O25      1.0000 0.84330  0.93240  0.14070  Biso   1.000  O
  O26      1.0000 0.15670  0.43240  0.35930  Biso   1.000  O
  O27      1.0000 0.15670  0.06760  0.85930  Biso   1.000  O
  O28      1.0000 0.84330  0.56760  0.64070  Biso   1.000  O
  O29      1.0000 0.79790  0.67855  0.50540  Biso   1.000  O
  O30      1.0000 0.20210  0.17855  0.99460  Biso   1.000  O
  O31      1.0000 0.20210  0.32145  0.49460  Biso   1.000  O
  O32      1.0000 0.79790  0.82145  0.00540  Biso   1.000  O
  O33      1.0000 0.87100  0.33256  0.48730  Biso   1.000  O
  O34      1.0000 0.12900  0.83256  0.01270  Biso   1.000  O
  O35      1.0000 0.12900  0.66744  0.51270  Biso   1.000  O
  O36      1.0000 0.87100  0.16744  0.98730  Biso   1.000  O
  O37      1.0000 0.87070  0.35570  0.23650  Biso   1.000  O
  O38      1.0000 0.12930  0.85570  0.26350  Biso   1.000  O
  O39      1.0000 0.12930  0.64430  0.76350  Biso   1.000  O
  O40      1.0000 0.87070  0.14430  0.73650  Biso   1.000  O
  O41      1.0000 0.87950  0.48100  0.47490  Biso   1.000  O
  O42      1.0000 0.12050  0.98100  0.02510  Biso   1.000  O
  O43      1.0000 0.12050  0.51900  0.52510  Biso   1.000  O
  O44      1.0000 0.87950  0.01900  0.97490  Biso   1.000  O
  O45      1.0000 0.84620  0.66620  0.30770  Biso   1.000  O
  O46      1.0000 0.15380  0.16620  0.19230  Biso   1.000  O
  O47      1.0000 0.15380  0.33380  0.69230  Biso   1.000  O
  O48      1.0000 0.84620  0.83380  0.80770  Biso   1.000  O
  O49      1.0000 0.89650  0.66360  0.32290  Biso   1.000  O
  O50      1.0000 0.10350  0.16360  0.17710  Biso   1.000  O
  O51      1.0000 0.10350  0.33640  0.67710  Biso   1.000  O
  O52      1.0000 0.89650  0.83640  0.82290  Biso   1.000  O
  N1       1.0000 0.47350  0.58306  0.05720  Biso   1.000  N
  N2       1.0000 0.52650  0.08306  0.44280  Biso   1.000  N
  N3       1.0000 0.52650  0.41694  0.94280  Biso   1.000  N
  N4       1.0000 0.47350  0.91694  0.55720  Biso   1.000  N
  N5       1.0000 0.79430  0.83245  0.41840  Biso   1.000  N
  N6       1.0000 0.20570  0.33245  0.08160  Biso   1.000  N
  N7       1.0000 0.20570  0.16755  0.58160  Biso   1.000  N
  N8       1.0000 0.79430  0.66755  0.91840  Biso   1.000  N
  N9       1.0000 0.51330  0.46890  0.17410  Biso   1.000  N
  N10      1.0000 0.48670  0.96890  0.32590  Biso   1.000  N
  N11      1.0000 0.48670  0.53110  0.82590  Biso   1.000  N
  N12      1.0000 0.51330  0.03110  0.67410  Biso   1.000  N
  N13      1.0000 0.88800  0.36154  0.82190  Biso   1.000  N
  N14      1.0000 0.11200  0.86154  0.67810  Biso   1.000  N
  N15      1.0000 0.11200  0.63846  0.17810  Biso   1.000  N
  N16      1.0000 0.88800  0.13846  0.32190  Biso   1.000  N
  C1       1.0000 0.55770  0.60945  0.15400  Biso   1.000  C
  C2       1.0000 0.44230  0.10945  0.34600  Biso   1.000  C
  C3       1.0000 0.44230  0.39055  0.84600  Biso   1.000  C
  C4       1.0000 0.55770  0.89055  0.65400  Biso   1.000  C
  H17      1.0000 0.62520  0.58690  0.19870  Biso   1.000  H
  H18      1.0000 0.37480  0.08690  0.30130  Biso   1.000  H
  H19      1.0000 0.37480  0.41310  0.80130  Biso   1.000  H
  H20      1.0000 0.62520  0.91310  0.69870  Biso   1.000  H
  C5       1.0000 0.55140  0.66749  0.19180  Biso   1.000  C
  C6       1.0000 0.44860  0.16749  0.30820  Biso   1.000  C
  C7       1.0000 0.44860  0.33251  0.80820  Biso   1.000  C
  C8       1.0000 0.55140  0.83251  0.69180  Biso   1.000  C
  H21      1.0000 0.61250  0.68410  0.26150  Biso   1.000  H
  H22      1.0000 0.38750  0.18410  0.23850  Biso   1.000  H
  H23      1.0000 0.38750  0.31590  0.73850  Biso   1.000  H
  H24      1.0000 0.61250  0.81590  0.76150  Biso   1.000  H
  C9       1.0000 0.45330  0.70138  0.12560  Biso   1.000  C
  C10      1.0000 0.54670  0.20138  0.37440  Biso   1.000  C
  C11      1.0000 0.54670  0.29862  0.87440  Biso   1.000  C
  C12      1.0000 0.45330  0.79862  0.62560  Biso   1.000  C
  C13      1.0000 0.36360  0.67382  0.02950  Biso   1.000  C
  C14      1.0000 0.63640  0.17382  0.47050  Biso   1.000  C
  C15      1.0000 0.63640  0.32618  0.97050  Biso   1.000  C
  C16      1.0000 0.36360  0.82618  0.52950  Biso   1.000  C
  H25      1.0000 0.29410  0.69500  0.98530  Biso   1.000  H
  H26      1.0000 0.70590  0.19500  0.51470  Biso   1.000  H
  H27      1.0000 0.70590  0.30500  0.01470  Biso   1.000  H
  H28      1.0000 0.29410  0.80500  0.48530  Biso   1.000  H
  C17      1.0000 0.37670  0.61531  0.99890  Biso   1.000  C
  C18      1.0000 0.62330  0.11531  0.50110  Biso   1.000  C
  C19      1.0000 0.62330  0.38469  0.00110  Biso   1.000  C
  C20      1.0000 0.37670  0.88469  0.49890  Biso   1.000  C
  H29      1.0000 0.31430  0.59680  0.93350  Biso   1.000  H
  H30      1.0000 0.68570  0.09680  0.56650  Biso   1.000  H
  H31      1.0000 0.68570  0.40320  0.06650  Biso   1.000  H
  H32      1.0000 0.31430  0.90320  0.43350  Biso   1.000  H
  C21      1.0000 0.77260  0.81700  0.29790  Biso   1.000  C
  C22      1.0000 0.22740  0.31700  0.20210  Biso   1.000  C
  C23      1.0000 0.22740  0.18300  0.70210  Biso   1.000  C
  C24      1.0000 0.77260  0.68300  0.79790  Biso   1.000  C
  H33      1.0000 0.83440  0.81820  0.26830  Biso   1.000  H
  H34      1.0000 0.16560  0.31820  0.23170  Biso   1.000  H
  H35      1.0000 0.16560  0.18180  0.73170  Biso   1.000  H
  H36      1.0000 0.83440  0.68180  0.76830  Biso   1.000  H
  C25      1.0000 0.66460  0.79957  0.21560  Biso   1.000  C
  C26      1.0000 0.33540  0.29957  0.28440  Biso   1.000  C
  C27      1.0000 0.33540  0.20043  0.78440  Biso   1.000  C
  C28      1.0000 0.66460  0.70043  0.71560  Biso   1.000  C
  H37      1.0000 0.65210  0.78920  0.13100  Biso   1.000  H
  H38      1.0000 0.34790  0.28920  0.36900  Biso   1.000  H
  H39      1.0000 0.34790  0.21080  0.86900  Biso   1.000  H
  H40      1.0000 0.65210  0.71080  0.63100  Biso   1.000  H
  C29      1.0000 0.57470  0.79754  0.25950  Biso   1.000  C
  C30      1.0000 0.42530  0.29754  0.24050  Biso   1.000  C
  C31      1.0000 0.42530  0.20246  0.74050  Biso   1.000  C
  C32      1.0000 0.57470  0.70246  0.75950  Biso   1.000  C
  C33      1.0000 0.59550  0.81471  0.38200  Biso   1.000  C
  C34      1.0000 0.40450  0.31471  0.11800  Biso   1.000  C
  C35      1.0000 0.40450  0.18529  0.61800  Biso   1.000  C
  C36      1.0000 0.59550  0.68529  0.88200  Biso   1.000  C
  H41      1.0000 0.53490  0.81450  0.41360  Biso   1.000  H
  H42      1.0000 0.46510  0.31450  0.08640  Biso   1.000  H
  H43      1.0000 0.46510  0.18550  0.58640  Biso   1.000  H
  H44      1.0000 0.53490  0.68550  0.91360  Biso   1.000  H
  C37      1.0000 0.70580  0.83210  0.45770  Biso   1.000  C
  C38      1.0000 0.29420  0.33210  0.04230  Biso   1.000  C
  C39      1.0000 0.29420  0.16790  0.54230  Biso   1.000  C
  C40      1.0000 0.70580  0.66790  0.95770  Biso   1.000  C
  H45      1.0000 0.71950  0.84440  0.54150  Biso   1.000  H
  H46      1.0000 0.28050  0.34440  0.95850  Biso   1.000  H
  H47      1.0000 0.28050  0.15560  0.45850  Biso   1.000  H
  H48      1.0000 0.71950  0.65560  0.04150  Biso   1.000  H
  C41      1.0000 0.41880  0.46622  0.20430  Biso   1.000  C
  C42      1.0000 0.58120  0.96622  0.29570  Biso   1.000  C
  C43      1.0000 0.58120  0.53378  0.79570  Biso   1.000  C
  C44      1.0000 0.41880  0.03378  0.70430  Biso   1.000  C
  H49      1.0000 0.34720  0.47980  0.14440  Biso   1.000  H
  H50      1.0000 0.65280  0.97980  0.35560  Biso   1.000  H
  H51      1.0000 0.65280  0.52020  0.85560  Biso   1.000  H
  H52      1.0000 0.34720  0.02020  0.64440  Biso   1.000  H
  C45      1.0000 0.42100  0.44467  0.31830  Biso   1.000  C
  C46      1.0000 0.57900  0.94467  0.18170  Biso   1.000  C
  C47      1.0000 0.57900  0.55533  0.68170  Biso   1.000  C
  C48      1.0000 0.42100  0.05533  0.81830  Biso   1.000  C
  H53      1.0000 0.35220  0.44330  0.33580  Biso   1.000  H
  H54      1.0000 0.64780  0.94330  0.16420  Biso   1.000  H
  H55      1.0000 0.64780  0.55670  0.66420  Biso   1.000  H
  H56      1.0000 0.35220  0.05670  0.83580  Biso   1.000  H
  C49      1.0000 0.52600  0.42478  0.40780  Biso   1.000  C
  C50      1.0000 0.47400  0.92478  0.09220  Biso   1.000  C
  C51      1.0000 0.47400  0.57522  0.59220  Biso   1.000  C
  C52      1.0000 0.52600  0.07522  0.90780  Biso   1.000  C
  C53      1.0000 0.62370  0.42744  0.37740  Biso   1.000  C
  C54      1.0000 0.37630  0.92744  0.12260  Biso   1.000  C
  C55      1.0000 0.37630  0.57256  0.62260  Biso   1.000  C
  C56      1.0000 0.62370  0.07256  0.87740  Biso   1.000  C
  H57      1.0000 0.69630  0.41380  0.43530  Biso   1.000  H
  H58      1.0000 0.30370  0.91380  0.06470  Biso   1.000  H
  H59      1.0000 0.30370  0.58620  0.56470  Biso   1.000  H
  H60      1.0000 0.69630  0.08620  0.93530  Biso   1.000  H
  C57      1.0000 0.61410  0.45014  0.26190  Biso   1.000  C
  C58      1.0000 0.38590  0.95014  0.23810  Biso   1.000  C
  C59      1.0000 0.38590  0.54986  0.73810  Biso   1.000  C
  C60      1.0000 0.61410  0.04986  0.76190  Biso   1.000  C
  H61      1.0000 0.68210  0.45270  0.24310  Biso   1.000  H
  H62      1.0000 0.31790  0.95270  0.25690  Biso   1.000  H
  H63      1.0000 0.31790  0.54730  0.75690  Biso   1.000  H
  H64      1.0000 0.68210  0.04730  0.74310  Biso   1.000  H
  C61      1.0000 0.85680  0.41571  0.77040  Biso   1.000  C
  C62      1.0000 0.14320  0.91571  0.72960  Biso   1.000  C
  C63      1.0000 0.14320  0.58429  0.22960  Biso   1.000  C
  C64      1.0000 0.85680  0.08429  0.27040  Biso   1.000  C
  H65      1.0000 0.91200  0.44720  0.79550  Biso   1.000  H
  H66      1.0000 0.08800  0.94720  0.70450  Biso   1.000  H
  H67      1.0000 0.08800  0.55280  0.20450  Biso   1.000  H
  H68      1.0000 0.91200  0.05280  0.29550  Biso   1.000  H
  C65      1.0000 0.74780  0.42794  0.68220  Biso   1.000  C
  C66      1.0000 0.25220  0.92794  0.81780  Biso   1.000  C
  C67      1.0000 0.25220  0.57206  0.31780  Biso   1.000  C
  C68      1.0000 0.74780  0.07206  0.18220  Biso   1.000  C
  H69      1.0000 0.72860  0.46700  0.64800  Biso   1.000  H
  H70      1.0000 0.27140  0.96700  0.85200  Biso   1.000  H
  H71      1.0000 0.27140  0.53300  0.35200  Biso   1.000  H
  H72      1.0000 0.72860  0.03300  0.14800  Biso   1.000  H
  C69      1.0000 0.66740  0.38229  0.64510  Biso   1.000  C
  C70      1.0000 0.33260  0.88229  0.85490  Biso   1.000  C
  C71      1.0000 0.33260  0.61771  0.35490  Biso   1.000  C
  C72      1.0000 0.66740  0.11771  0.14510  Biso   1.000  C
  C73      1.0000 0.70020  0.32570  0.69320  Biso   1.000  C
  C74      1.0000 0.29980  0.82570  0.80680  Biso   1.000  C
  C75      1.0000 0.29980  0.67430  0.30680  Biso   1.000  C
  C76      1.0000 0.70020  0.17430  0.19320  Biso   1.000  C
  H73      1.0000 0.64780  0.29300  0.66600  Biso   1.000  H
  H74      1.0000 0.35220  0.79300  0.83400  Biso   1.000  H
  H75      1.0000 0.35220  0.70700  0.33400  Biso   1.000  H
  H76      1.0000 0.64780  0.20700  0.16600  Biso   1.000  H
  C77      1.0000 0.81030  0.31706  0.78160  Biso   1.000  C
  C78      1.0000 0.18970  0.81706  0.71840  Biso   1.000  C
  C79      1.0000 0.18970  0.68294  0.21840  Biso   1.000  C
  C80      1.0000 0.81030  0.18294  0.28160  Biso   1.000  C
  H77      1.0000 0.83200  0.27810  0.81540  Biso   1.000  H
  H78      1.0000 0.16800  0.77810  0.68460  Biso   1.000  H
  H79      1.0000 0.16800  0.72190  0.18460  Biso   1.000  H
  H80      1.0000 0.83200  0.22190  0.31540  Biso   1.000  H
  O53      1.0000 0.96800  0.53260  0.47200  Biso   1.000  O
  O54      1.0000 0.03200  0.03260  0.02800  Biso   1.000  O
  O55      1.0000 0.03200  0.46740  0.52800  Biso   1.000  O
  O56      1.0000 0.96800  0.96740  0.97200  Biso   1.000  O
  O57      1.0000 0.94870  0.59920  0.39760  Biso   1.000  O
  O58      1.0000 0.05130  0.09920  0.10240  Biso   1.000  O
  O59      1.0000 0.05130  0.40080  0.60240  Biso   1.000  O
  O60      1.0000 0.94870  0.90080  0.89760  Biso   1.000  O
