data_image0
_cell_length_a       10.8681
_cell_length_b       18.4142
_cell_length_c       17.1577
_cell_angle_alpha    90
_cell_angle_beta     90
_cell_angle_gamma    90

_symmetry_space_group_name_H-M    "P 1"
_symmetry_int_tables_number       1

loop_
  _symmetry_equiv_pos_as_xyz
  'x, y, z'

loop_
  _atom_site_label
  _atom_site_occupancy
  _atom_site_fract_x
  _atom_site_fract_y
  _atom_site_fract_z
  _atom_site_thermal_displace_type
  _atom_site_B_iso_or_equiv
  _atom_site_type_symbol
  Cu1      1.0000 0.50000  0.37976  0.25000  Biso   1.000  Cu
  Cu2      1.0000 0.00000  0.12024  0.75000  Biso   1.000  Cu
  Cu3      1.0000 0.50000  0.62024  0.75000  Biso   1.000  Cu
  Cu4      1.0000 0.00000  0.87976  0.25000  Biso   1.000  Cu
  S1       1.0000 0.23740  0.62456  0.47162  Biso   1.000  S
  S2       1.0000 0.26260  0.87544  0.97162  Biso   1.000  S
  S3       1.0000 0.73740  0.87544  0.52838  Biso   1.000  S
  S4       1.0000 0.76260  0.62456  0.02838  Biso   1.000  S
  S5       1.0000 0.76260  0.37544  0.52838  Biso   1.000  S
  S6       1.0000 0.73740  0.12456  0.02838  Biso   1.000  S
  S7       1.0000 0.26260  0.12456  0.47162  Biso   1.000  S
  S8       1.0000 0.23740  0.37544  0.97162  Biso   1.000  S
  P1       1.0000 0.65240  0.67530  0.39580  Biso   1.000  P
  P2       1.0000 0.84760  0.82470  0.89580  Biso   1.000  P
  P3       1.0000 0.15240  0.82470  0.60420  Biso   1.000  P
  P4       1.0000 0.34760  0.67530  0.10420  Biso   1.000  P
  P5       1.0000 0.34760  0.32470  0.60420  Biso   1.000  P
  P6       1.0000 0.15240  0.17530  0.10420  Biso   1.000  P
  P7       1.0000 0.84760  0.17530  0.39580  Biso   1.000  P
  P8       1.0000 0.65240  0.32470  0.89580  Biso   1.000  P
  P9       1.0000 0.68190  0.66200  0.39870  Biso   1.000  P
  P10      1.0000 0.81810  0.83800  0.89870  Biso   1.000  P
  P11      1.0000 0.18190  0.83800  0.60130  Biso   1.000  P
  P12      1.0000 0.31810  0.66200  0.10130  Biso   1.000  P
  P13      1.0000 0.31810  0.33800  0.60130  Biso   1.000  P
  P14      1.0000 0.18190  0.16200  0.10130  Biso   1.000  P
  P15      1.0000 0.81810  0.16200  0.39870  Biso   1.000  P
  P16      1.0000 0.68190  0.33800  0.89870  Biso   1.000  P
  P17      1.0000 0.63150  0.68690  0.39070  Biso   1.000  P
  P18      1.0000 0.86850  0.81310  0.89070  Biso   1.000  P
  P19      1.0000 0.13150  0.81310  0.60930  Biso   1.000  P
  P20      1.0000 0.36850  0.68690  0.10930  Biso   1.000  P
  P21      1.0000 0.36850  0.31310  0.60930  Biso   1.000  P
  P22      1.0000 0.13150  0.18690  0.10930  Biso   1.000  P
  P23      1.0000 0.86850  0.18690  0.39070  Biso   1.000  P
  P24      1.0000 0.63150  0.31310  0.89070  Biso   1.000  P
  F1       1.0000 0.62860  0.58610  0.39380  Biso   1.000  F
  F2       1.0000 0.87140  0.91390  0.89380  Biso   1.000  F
  F3       1.0000 0.12860  0.91390  0.60620  Biso   1.000  F
  F4       1.0000 0.37140  0.58610  0.10620  Biso   1.000  F
  F5       1.0000 0.37140  0.41390  0.60620  Biso   1.000  F
  F6       1.0000 0.12860  0.08610  0.10620  Biso   1.000  F
  F7       1.0000 0.87140  0.08610  0.39380  Biso   1.000  F
  F8       1.0000 0.62860  0.41390  0.89380  Biso   1.000  F
  F9       1.0000 0.74830  0.66660  0.32830  Biso   1.000  F
  F10      1.0000 0.75170  0.83340  0.82830  Biso   1.000  F
  F11      1.0000 0.24830  0.83340  0.67170  Biso   1.000  F
  F12      1.0000 0.25170  0.66660  0.17170  Biso   1.000  F
  F13      1.0000 0.25170  0.33340  0.67170  Biso   1.000  F
  F14      1.0000 0.24830  0.16660  0.17170  Biso   1.000  F
  F15      1.0000 0.75170  0.16660  0.32830  Biso   1.000  F
  F16      1.0000 0.74830  0.33340  0.82830  Biso   1.000  F
  F17      1.0000 0.68740  0.75690  0.40210  Biso   1.000  F
  F18      1.0000 0.81260  0.74310  0.90210  Biso   1.000  F
  F19      1.0000 0.18740  0.74310  0.59790  Biso   1.000  F
  F20      1.0000 0.31260  0.75690  0.09790  Biso   1.000  F
  F21      1.0000 0.31260  0.24310  0.59790  Biso   1.000  F
  F22      1.0000 0.18740  0.25690  0.09790  Biso   1.000  F
  F23      1.0000 0.81260  0.25690  0.40210  Biso   1.000  F
  F24      1.0000 0.68740  0.24310  0.90210  Biso   1.000  F
  F25      1.0000 0.55820  0.67590  0.46660  Biso   1.000  F
  F26      1.0000 0.94180  0.82410  0.96660  Biso   1.000  F
  F27      1.0000 0.05820  0.82410  0.53340  Biso   1.000  F
  F28      1.0000 0.44180  0.67590  0.03340  Biso   1.000  F
  F29      1.0000 0.44180  0.32410  0.53340  Biso   1.000  F
  F30      1.0000 0.05820  0.17590  0.03340  Biso   1.000  F
  F31      1.0000 0.94180  0.17590  0.46660  Biso   1.000  F
  F32      1.0000 0.55820  0.32410  0.96660  Biso   1.000  F
  F33      1.0000 0.56400  0.69470  0.33130  Biso   1.000  F
  F34      1.0000 0.93600  0.80530  0.83130  Biso   1.000  F
  F35      1.0000 0.06400  0.80530  0.66870  Biso   1.000  F
  F36      1.0000 0.43600  0.69470  0.16870  Biso   1.000  F
  F37      1.0000 0.43600  0.30530  0.66870  Biso   1.000  F
  F38      1.0000 0.06400  0.19470  0.16870  Biso   1.000  F
  F39      1.0000 0.93600  0.19470  0.33130  Biso   1.000  F
  F40      1.0000 0.56400  0.30530  0.83130  Biso   1.000  F
  F41      1.0000 0.73660  0.65980  0.46490  Biso   1.000  F
  F42      1.0000 0.76340  0.84020  0.96490  Biso   1.000  F
  F43      1.0000 0.23660  0.84020  0.53510  Biso   1.000  F
  F44      1.0000 0.26340  0.65980  0.03510  Biso   1.000  F
  F45      1.0000 0.26340  0.34020  0.53510  Biso   1.000  F
  F46      1.0000 0.23660  0.15980  0.03510  Biso   1.000  F
  F47      1.0000 0.76340  0.15980  0.46490  Biso   1.000  F
  F48      1.0000 0.73660  0.34020  0.96490  Biso   1.000  F
  F49      1.0000 0.68000  0.58700  0.38570  Biso   1.000  F
  F50      1.0000 0.82000  0.91300  0.88570  Biso   1.000  F
  F51      1.0000 0.18000  0.91300  0.61430  Biso   1.000  F
  F52      1.0000 0.32000  0.58700  0.11430  Biso   1.000  F
  F53      1.0000 0.32000  0.41300  0.61430  Biso   1.000  F
  F54      1.0000 0.18000  0.08700  0.11430  Biso   1.000  F
  F55      1.0000 0.82000  0.08700  0.38570  Biso   1.000  F
  F56      1.0000 0.68000  0.41300  0.88570  Biso   1.000  F
  F57      1.0000 0.78000  0.64580  0.33990  Biso   1.000  F
  F58      1.0000 0.72000  0.85420  0.83990  Biso   1.000  F
  F59      1.0000 0.28000  0.85420  0.66010  Biso   1.000  F
  F60      1.0000 0.22000  0.64580  0.16010  Biso   1.000  F
  F61      1.0000 0.22000  0.35420  0.66010  Biso   1.000  F
  F62      1.0000 0.28000  0.14580  0.16010  Biso   1.000  F
  F63      1.0000 0.72000  0.14580  0.33990  Biso   1.000  F
  F64      1.0000 0.78000  0.35420  0.83990  Biso   1.000  F
  F65      1.0000 0.74200  0.74030  0.42460  Biso   1.000  F
  F66      1.0000 0.75800  0.75970  0.92460  Biso   1.000  F
  F67      1.0000 0.24200  0.75970  0.57540  Biso   1.000  F
  F68      1.0000 0.25800  0.74030  0.07540  Biso   1.000  F
  F69      1.0000 0.25800  0.25970  0.57540  Biso   1.000  F
  F70      1.0000 0.24200  0.24030  0.07540  Biso   1.000  F
  F71      1.0000 0.75800  0.24030  0.42460  Biso   1.000  F
  F72      1.0000 0.74200  0.25970  0.92460  Biso   1.000  F
  F73      1.0000 0.60300  0.66290  0.47480  Biso   1.000  F
  F74      1.0000 0.89700  0.83710  0.97480  Biso   1.000  F
  F75      1.0000 0.10300  0.83710  0.52520  Biso   1.000  F
  F76      1.0000 0.39700  0.66290  0.02520  Biso   1.000  F
  F77      1.0000 0.39700  0.33710  0.52520  Biso   1.000  F
  F78      1.0000 0.10300  0.16290  0.02520  Biso   1.000  F
  F79      1.0000 0.89700  0.16290  0.47480  Biso   1.000  F
  F80      1.0000 0.60300  0.33710  0.97480  Biso   1.000  F
  F81      1.0000 0.55400  0.66290  0.32990  Biso   1.000  F
  F82      1.0000 0.94600  0.83710  0.82990  Biso   1.000  F
  F83      1.0000 0.05400  0.83710  0.67010  Biso   1.000  F
  F84      1.0000 0.44600  0.66290  0.17010  Biso   1.000  F
  F85      1.0000 0.44600  0.33710  0.67010  Biso   1.000  F
  F86      1.0000 0.05400  0.16290  0.17010  Biso   1.000  F
  F87      1.0000 0.94600  0.16290  0.32990  Biso   1.000  F
  F88      1.0000 0.55400  0.33710  0.82990  Biso   1.000  F
  F89      1.0000 0.78500  0.63660  0.45380  Biso   1.000  F
  F90      1.0000 0.71500  0.86340  0.95380  Biso   1.000  F
  F91      1.0000 0.28500  0.86340  0.54620  Biso   1.000  F
  F92      1.0000 0.21500  0.63660  0.04620  Biso   1.000  F
  F93      1.0000 0.21500  0.36340  0.54620  Biso   1.000  F
  F94      1.0000 0.28500  0.13660  0.04620  Biso   1.000  F
  F95      1.0000 0.71500  0.13660  0.45380  Biso   1.000  F
  F96      1.0000 0.78500  0.36340  0.95380  Biso   1.000  F
  F97      1.0000 0.58900  0.59850  0.38700  Biso   1.000  F
  F98      1.0000 0.91100  0.90150  0.88700  Biso   1.000  F
  F99      1.0000 0.08900  0.90150  0.61300  Biso   1.000  F
  F100     1.0000 0.41100  0.59850  0.11300  Biso   1.000  F
  F101     1.0000 0.41100  0.40150  0.61300  Biso   1.000  F
  F102     1.0000 0.08900  0.09850  0.11300  Biso   1.000  F
  F103     1.0000 0.91100  0.09850  0.38700  Biso   1.000  F
  F104     1.0000 0.58900  0.40150  0.88700  Biso   1.000  F
  F105     1.0000 0.72500  0.69230  0.31620  Biso   1.000  F
  F106     1.0000 0.77500  0.80770  0.81620  Biso   1.000  F
  F107     1.0000 0.22500  0.80770  0.68380  Biso   1.000  F
  F108     1.0000 0.27500  0.69230  0.18380  Biso   1.000  F
  F109     1.0000 0.27500  0.30770  0.68380  Biso   1.000  F
  F110     1.0000 0.22500  0.19230  0.18380  Biso   1.000  F
  F111     1.0000 0.77500  0.19230  0.31620  Biso   1.000  F
  F112     1.0000 0.72500  0.30770  0.81620  Biso   1.000  F
  F113     1.0000 0.63100  0.76600  0.39340  Biso   1.000  F
  F114     1.0000 0.86900  0.73400  0.89340  Biso   1.000  F
  F115     1.0000 0.13100  0.73400  0.60660  Biso   1.000  F
  F116     1.0000 0.36900  0.76600  0.10660  Biso   1.000  F
  F117     1.0000 0.36900  0.23400  0.60660  Biso   1.000  F
  F118     1.0000 0.13100  0.26600  0.10660  Biso   1.000  F
  F119     1.0000 0.86900  0.26600  0.39340  Biso   1.000  F
  F120     1.0000 0.63100  0.23400  0.89340  Biso   1.000  F
  F121     1.0000 0.52800  0.69620  0.44930  Biso   1.000  F
  F122     1.0000 0.97200  0.80380  0.94930  Biso   1.000  F
  F123     1.0000 0.02800  0.80380  0.55070  Biso   1.000  F
  F124     1.0000 0.47200  0.69620  0.05070  Biso   1.000  F
  F125     1.0000 0.47200  0.30380  0.55070  Biso   1.000  F
  F126     1.0000 0.02800  0.19620  0.05070  Biso   1.000  F
  F127     1.0000 0.97200  0.19620  0.44930  Biso   1.000  F
  F128     1.0000 0.52800  0.30380  0.94930  Biso   1.000  F
  F129     1.0000 0.53400  0.68610  0.33600  Biso   1.000  F
  F130     1.0000 0.96600  0.81390  0.83600  Biso   1.000  F
  F131     1.0000 0.03400  0.81390  0.66400  Biso   1.000  F
  F132     1.0000 0.46600  0.68610  0.16400  Biso   1.000  F
  F133     1.0000 0.46600  0.31390  0.66400  Biso   1.000  F
  F134     1.0000 0.03400  0.18610  0.16400  Biso   1.000  F
  F135     1.0000 0.96600  0.18610  0.33600  Biso   1.000  F
  F136     1.0000 0.53400  0.31390  0.83600  Biso   1.000  F
  F137     1.0000 0.76500  0.68760  0.45150  Biso   1.000  F
  F138     1.0000 0.73500  0.81240  0.95150  Biso   1.000  F
  F139     1.0000 0.26500  0.81240  0.54850  Biso   1.000  F
  F140     1.0000 0.23500  0.68760  0.04850  Biso   1.000  F
  F141     1.0000 0.23500  0.31240  0.54850  Biso   1.000  F
  F142     1.0000 0.26500  0.18760  0.04850  Biso   1.000  F
  F143     1.0000 0.73500  0.18760  0.45150  Biso   1.000  F
  F144     1.0000 0.76500  0.31240  0.95150  Biso   1.000  F
  O1       1.0000 0.68330  0.38450  0.33540  Biso   1.000  O
  O2       1.0000 0.81670  0.11550  0.83540  Biso   1.000  O
  O3       1.0000 0.18330  0.11550  0.66460  Biso   1.000  O
  O4       1.0000 0.31670  0.38450  0.16460  Biso   1.000  O
  O5       1.0000 0.31670  0.61550  0.66460  Biso   1.000  O
  O6       1.0000 0.18330  0.88450  0.16460  Biso   1.000  O
  O7       1.0000 0.81670  0.88450  0.33540  Biso   1.000  O
  O8       1.0000 0.68330  0.61550  0.83540  Biso   1.000  O
  O9       1.0000 0.00000  0.31590  0.25000  Biso   1.000  O
  O10      1.0000 0.50000  0.18410  0.75000  Biso   1.000  O
  O11      1.0000 0.00000  0.68410  0.75000  Biso   1.000  O
  O12      1.0000 0.50000  0.81590  0.25000  Biso   1.000  O
  O13      1.0000 0.91000  0.44700  0.29940  Biso   1.000  O
  O14      1.0000 0.59000  0.05300  0.79940  Biso   1.000  O
  O15      1.0000 0.41000  0.05300  0.70060  Biso   1.000  O
  O16      1.0000 0.09000  0.44700  0.20060  Biso   1.000  O
  O17      1.0000 0.09000  0.55300  0.70060  Biso   1.000  O
  O18      1.0000 0.41000  0.94700  0.20060  Biso   1.000  O
  O19      1.0000 0.59000  0.94700  0.29940  Biso   1.000  O
  O20      1.0000 0.91000  0.55300  0.79940  Biso   1.000  O
  O21      1.0000 0.84500  0.49800  0.37630  Biso   1.000  O
  O22      1.0000 0.65500  0.00200  0.87630  Biso   1.000  O
  O23      1.0000 0.34500  0.00200  0.62370  Biso   1.000  O
  O24      1.0000 0.15500  0.49800  0.12370  Biso   1.000  O
  O25      1.0000 0.15500  0.50200  0.62370  Biso   1.000  O
  O26      1.0000 0.34500  0.99800  0.12370  Biso   1.000  O
  O27      1.0000 0.65500  0.99800  0.37630  Biso   1.000  O
  O28      1.0000 0.84500  0.50200  0.87630  Biso   1.000  O
  O29      1.0000 0.96800  0.48500  0.37800  Biso   1.000  O
  O30      1.0000 0.53200  0.01500  0.87800  Biso   1.000  O
  O31      1.0000 0.46800  0.01500  0.62200  Biso   1.000  O
  O32      1.0000 0.03200  0.48500  0.12200  Biso   1.000  O
  O33      1.0000 0.03200  0.51500  0.62200  Biso   1.000  O
  O34      1.0000 0.46800  0.98500  0.12200  Biso   1.000  O
  O35      1.0000 0.53200  0.98500  0.37800  Biso   1.000  O
  O36      1.0000 0.96800  0.51500  0.87800  Biso   1.000  O
  N1       1.0000 0.41990  0.45650  0.31650  Biso   1.000  N
  N2       1.0000 0.08010  0.04350  0.81650  Biso   1.000  N
  N3       1.0000 0.91990  0.04350  0.68350  Biso   1.000  N
  N4       1.0000 0.58010  0.45650  0.18350  Biso   1.000  N
  N5       1.0000 0.58010  0.54350  0.68350  Biso   1.000  N
  N6       1.0000 0.91990  0.95650  0.18350  Biso   1.000  N
  N7       1.0000 0.08010  0.95650  0.31650  Biso   1.000  N
  N8       1.0000 0.41990  0.54350  0.81650  Biso   1.000  N
  N9       1.0000 0.07820  0.80050  0.31690  Biso   1.000  N
  N10      1.0000 0.42180  0.69950  0.81690  Biso   1.000  N
  N11      1.0000 0.57820  0.69950  0.68310  Biso   1.000  N
  N12      1.0000 0.92180  0.80050  0.18310  Biso   1.000  N
  N13      1.0000 0.92180  0.19950  0.68310  Biso   1.000  N
  N14      1.0000 0.57820  0.30050  0.18310  Biso   1.000  N
  N15      1.0000 0.42180  0.30050  0.31690  Biso   1.000  N
  N16      1.0000 0.07820  0.19950  0.81690  Biso   1.000  N
  C1       1.0000 0.36480  0.51460  0.28480  Biso   1.000  C
  C2       1.0000 0.13520  0.98540  0.78480  Biso   1.000  C
  C3       1.0000 0.86480  0.98540  0.71520  Biso   1.000  C
  C4       1.0000 0.63520  0.51460  0.21520  Biso   1.000  C
  C5       1.0000 0.63520  0.48540  0.71520  Biso   1.000  C
  C6       1.0000 0.86480  0.01460  0.21520  Biso   1.000  C
  C7       1.0000 0.13520  0.01460  0.28480  Biso   1.000  C
  C8       1.0000 0.36480  0.48540  0.78480  Biso   1.000  C
  H1       1.0000 0.36600  0.51900  0.22960  Biso   1.000  H
  H2       1.0000 0.13400  0.98100  0.72960  Biso   1.000  H
  H3       1.0000 0.86600  0.98100  0.77040  Biso   1.000  H
  H4       1.0000 0.63400  0.51900  0.27040  Biso   1.000  H
  H5       1.0000 0.63400  0.48100  0.77040  Biso   1.000  H
  H6       1.0000 0.86600  0.01900  0.27040  Biso   1.000  H
  H7       1.0000 0.13400  0.01900  0.22960  Biso   1.000  H
  H8       1.0000 0.36600  0.48100  0.72960  Biso   1.000  H
  C9       1.0000 0.30810  0.56710  0.32580  Biso   1.000  C
  C10      1.0000 0.19190  0.93290  0.82580  Biso   1.000  C
  C11      1.0000 0.80810  0.93290  0.67420  Biso   1.000  C
  C12      1.0000 0.69190  0.56710  0.17420  Biso   1.000  C
  C13      1.0000 0.69190  0.43290  0.67420  Biso   1.000  C
  C14      1.0000 0.80810  0.06710  0.17420  Biso   1.000  C
  C15      1.0000 0.19190  0.06710  0.32580  Biso   1.000  C
  C16      1.0000 0.30810  0.43290  0.82580  Biso   1.000  C
  H9       1.0000 0.27040  0.60690  0.29980  Biso   1.000  H
  H10      1.0000 0.22960  0.89310  0.79980  Biso   1.000  H
  H11      1.0000 0.77040  0.89310  0.70020  Biso   1.000  H
  H12      1.0000 0.72960  0.60690  0.20020  Biso   1.000  H
  H13      1.0000 0.72960  0.39310  0.70020  Biso   1.000  H
  H14      1.0000 0.77040  0.10690  0.20020  Biso   1.000  H
  H15      1.0000 0.22960  0.10690  0.29980  Biso   1.000  H
  H16      1.0000 0.27040  0.39310  0.79980  Biso   1.000  H
  C17      1.0000 0.30540  0.56220  0.40860  Biso   1.000  C
  C18      1.0000 0.19460  0.93780  0.90860  Biso   1.000  C
  C19      1.0000 0.80540  0.93780  0.59140  Biso   1.000  C
  C20      1.0000 0.69460  0.56220  0.09140  Biso   1.000  C
  C21      1.0000 0.69460  0.43780  0.59140  Biso   1.000  C
  C22      1.0000 0.80540  0.06220  0.09140  Biso   1.000  C
  C23      1.0000 0.19460  0.06220  0.40860  Biso   1.000  C
  C24      1.0000 0.30540  0.43780  0.90860  Biso   1.000  C
  C25      1.0000 0.36210  0.50250  0.44160  Biso   1.000  C
  C26      1.0000 0.13790  0.99750  0.94160  Biso   1.000  C
  C27      1.0000 0.86210  0.99750  0.55840  Biso   1.000  C
  C28      1.0000 0.63790  0.50250  0.05840  Biso   1.000  C
  C29      1.0000 0.63790  0.49750  0.55840  Biso   1.000  C
  C30      1.0000 0.86210  0.00250  0.05840  Biso   1.000  C
  C31      1.0000 0.13790  0.00250  0.44160  Biso   1.000  C
  C32      1.0000 0.36210  0.49750  0.94160  Biso   1.000  C
  H17      1.0000 0.36270  0.49650  0.49660  Biso   1.000  H
  H18      1.0000 0.13730  0.00350  0.99660  Biso   1.000  H
  H19      1.0000 0.86270  0.00350  0.50340  Biso   1.000  H
  H20      1.0000 0.63730  0.49650  0.00340  Biso   1.000  H
  H21      1.0000 0.63730  0.50350  0.50340  Biso   1.000  H
  H22      1.0000 0.86270  0.99650  0.00340  Biso   1.000  H
  H23      1.0000 0.13730  0.99650  0.49660  Biso   1.000  H
  H24      1.0000 0.36270  0.50350  0.99660  Biso   1.000  H
  C33      1.0000 0.41750  0.45190  0.39470  Biso   1.000  C
  C34      1.0000 0.08250  0.04810  0.89470  Biso   1.000  C
  C35      1.0000 0.91750  0.04810  0.60530  Biso   1.000  C
  C36      1.0000 0.58250  0.45190  0.10530  Biso   1.000  C
  C37      1.0000 0.58250  0.54810  0.60530  Biso   1.000  C
  C38      1.0000 0.91750  0.95190  0.10530  Biso   1.000  C
  C39      1.0000 0.08250  0.95190  0.39470  Biso   1.000  C
  C40      1.0000 0.41750  0.54810  0.89470  Biso   1.000  C
  H25      1.0000 0.45630  0.41150  0.41870  Biso   1.000  H
  H26      1.0000 0.04370  0.08850  0.91870  Biso   1.000  H
  H27      1.0000 0.95630  0.08850  0.58130  Biso   1.000  H
  H28      1.0000 0.54370  0.41150  0.08130  Biso   1.000  H
  H29      1.0000 0.54370  0.58850  0.58130  Biso   1.000  H
  H30      1.0000 0.95630  0.91150  0.08130  Biso   1.000  H
  H31      1.0000 0.04370  0.91150  0.41870  Biso   1.000  H
  H32      1.0000 0.45630  0.58850  0.91870  Biso   1.000  H
  C41      1.0000 0.19840  0.79640  0.32770  Biso   1.000  C
  C42      1.0000 0.30160  0.70360  0.82770  Biso   1.000  C
  C43      1.0000 0.69840  0.70360  0.67230  Biso   1.000  C
  C44      1.0000 0.80160  0.79640  0.17230  Biso   1.000  C
  C45      1.0000 0.80160  0.20360  0.67230  Biso   1.000  C
  C46      1.0000 0.69840  0.29640  0.17230  Biso   1.000  C
  C47      1.0000 0.30160  0.29640  0.32770  Biso   1.000  C
  C48      1.0000 0.19840  0.20360  0.82770  Biso   1.000  C
  H33      1.0000 0.24950  0.83160  0.30340  Biso   1.000  H
  H34      1.0000 0.25050  0.66840  0.80340  Biso   1.000  H
  H35      1.0000 0.74950  0.66840  0.69660  Biso   1.000  H
  H36      1.0000 0.75050  0.83160  0.19660  Biso   1.000  H
  H37      1.0000 0.75050  0.16840  0.69660  Biso   1.000  H
  H38      1.0000 0.74950  0.33160  0.19660  Biso   1.000  H
  H39      1.0000 0.25050  0.33160  0.30340  Biso   1.000  H
  H40      1.0000 0.24950  0.16840  0.80340  Biso   1.000  H
  C49      1.0000 0.25380  0.74280  0.37310  Biso   1.000  C
  C50      1.0000 0.24620  0.75720  0.87310  Biso   1.000  C
  C51      1.0000 0.75380  0.75720  0.62690  Biso   1.000  C
  C52      1.0000 0.74620  0.74280  0.12690  Biso   1.000  C
  C53      1.0000 0.74620  0.25720  0.62690  Biso   1.000  C
  C54      1.0000 0.75380  0.24280  0.12690  Biso   1.000  C
  C55      1.0000 0.24620  0.24280  0.37310  Biso   1.000  C
  C56      1.0000 0.25380  0.25720  0.87310  Biso   1.000  C
  H41      1.0000 0.34060  0.74070  0.37930  Biso   1.000  H
  H42      1.0000 0.15940  0.75930  0.87930  Biso   1.000  H
  H43      1.0000 0.84060  0.75930  0.62070  Biso   1.000  H
  H44      1.0000 0.65940  0.74070  0.12070  Biso   1.000  H
  H45      1.0000 0.65940  0.25930  0.62070  Biso   1.000  H
  H46      1.0000 0.84060  0.24070  0.12070  Biso   1.000  H
  H47      1.0000 0.15940  0.24070  0.37930  Biso   1.000  H
  H48      1.0000 0.34060  0.25930  0.87930  Biso   1.000  H
  C57      1.0000 0.17670  0.69230  0.40910  Biso   1.000  C
  C58      1.0000 0.32330  0.80770  0.90910  Biso   1.000  C
  C59      1.0000 0.67670  0.80770  0.59090  Biso   1.000  C
  C60      1.0000 0.82330  0.69230  0.09090  Biso   1.000  C
  C61      1.0000 0.82330  0.30770  0.59090  Biso   1.000  C
  C62      1.0000 0.67670  0.19230  0.09090  Biso   1.000  C
  C63      1.0000 0.32330  0.19230  0.40910  Biso   1.000  C
  C64      1.0000 0.17670  0.30770  0.90910  Biso   1.000  C
  C65      1.0000 0.05310  0.69660  0.39740  Biso   1.000  C
  C66      1.0000 0.44690  0.80340  0.89740  Biso   1.000  C
  C67      1.0000 0.55310  0.80340  0.60260  Biso   1.000  C
  C68      1.0000 0.94690  0.69660  0.10260  Biso   1.000  C
  C69      1.0000 0.94690  0.30340  0.60260  Biso   1.000  C
  C70      1.0000 0.55310  0.19660  0.10260  Biso   1.000  C
  C71      1.0000 0.44690  0.19660  0.39740  Biso   1.000  C
  C72      1.0000 0.05310  0.30340  0.89740  Biso   1.000  C
  H49      1.0000 0.99910  0.66270  0.42120  Biso   1.000  H
  H50      1.0000 0.50090  0.83730  0.92120  Biso   1.000  H
  H51      1.0000 0.49910  0.83730  0.57880  Biso   1.000  H
  H52      1.0000 0.00090  0.66270  0.07880  Biso   1.000  H
  H53      1.0000 0.00090  0.33730  0.57880  Biso   1.000  H
  H54      1.0000 0.49910  0.16270  0.07880  Biso   1.000  H
  H55      1.0000 0.50090  0.16270  0.42120  Biso   1.000  H
  H56      1.0000 0.99910  0.33730  0.92120  Biso   1.000  H
  C73      1.0000 0.00730  0.75150  0.35020  Biso   1.000  C
  C74      1.0000 0.49270  0.74850  0.85020  Biso   1.000  C
  C75      1.0000 0.50730  0.74850  0.64980  Biso   1.000  C
  C76      1.0000 0.99270  0.75150  0.14980  Biso   1.000  C
  C77      1.0000 0.99270  0.24850  0.64980  Biso   1.000  C
  C78      1.0000 0.50730  0.25150  0.14980  Biso   1.000  C
  C79      1.0000 0.49270  0.25150  0.35020  Biso   1.000  C
  C80      1.0000 0.00730  0.24850  0.85020  Biso   1.000  C
  H57      1.0000 0.92100  0.75390  0.34160  Biso   1.000  H
  H58      1.0000 0.57900  0.74610  0.84160  Biso   1.000  H
  H59      1.0000 0.42100  0.74610  0.65840  Biso   1.000  H
  H60      1.0000 0.07900  0.75390  0.15840  Biso   1.000  H
  H61      1.0000 0.07900  0.24610  0.65840  Biso   1.000  H
  H62      1.0000 0.42100  0.25390  0.15840  Biso   1.000  H
  H63      1.0000 0.57900  0.25390  0.34160  Biso   1.000  H
  H64      1.0000 0.92100  0.24610  0.84160  Biso   1.000  H
