data_image0
_cell_length_a       11.174
_cell_length_b       15.284
_cell_length_c       22.331
_cell_angle_alpha    90
_cell_angle_beta     93.629
_cell_angle_gamma    90

_symmetry_space_group_name_H-M    "P 1"
_symmetry_int_tables_number       1

loop_
  _symmetry_equiv_pos_as_xyz
  'x, y, z'

loop_
  _atom_site_label
  _atom_site_occupancy
  _atom_site_fract_x
  _atom_site_fract_y
  _atom_site_fract_z
  _atom_site_thermal_displace_type
  _atom_site_B_iso_or_equiv
  _atom_site_type_symbol
  Cu1      1.0000 0.19758  0.26796  0.74729  Biso   1.000  Cu
  Cu2      1.0000 0.19758  0.23204  0.24729  Biso   1.000  Cu
  Cu3      1.0000 0.80242  0.73204  0.25271  Biso   1.000  Cu
  Cu4      1.0000 0.80242  0.76796  0.75271  Biso   1.000  Cu
  O1       1.0000 0.28780  0.80290  0.54086  Biso   1.000  O
  O2       1.0000 0.28780  0.69710  0.04086  Biso   1.000  O
  O3       1.0000 0.71220  0.19710  0.45914  Biso   1.000  O
  O4       1.0000 0.71220  0.30290  0.95914  Biso   1.000  O
  N1       1.0000 0.38050  0.27400  0.75020  Biso   1.000  N
  N2       1.0000 0.38050  0.22600  0.25020  Biso   1.000  N
  N3       1.0000 0.61950  0.72600  0.24980  Biso   1.000  N
  N4       1.0000 0.61950  0.77400  0.74980  Biso   1.000  N
  N5       1.0000 0.01400  0.27490  0.74348  Biso   1.000  N
  N6       1.0000 0.01400  0.22510  0.24348  Biso   1.000  N
  N7       1.0000 0.98600  0.72510  0.25652  Biso   1.000  N
  N8       1.0000 0.98600  0.77490  0.75652  Biso   1.000  N
  N9       1.0000 0.19710  0.26470  0.65649  Biso   1.000  N
  N10      1.0000 0.19710  0.23530  0.15649  Biso   1.000  N
  N11      1.0000 0.80290  0.73530  0.34351  Biso   1.000  N
  N12      1.0000 0.80290  0.76470  0.84351  Biso   1.000  N
  N13      1.0000 0.20040  0.23880  0.33839  Biso   1.000  N
  N14      1.0000 0.20040  0.26120  0.83839  Biso   1.000  N
  N15      1.0000 0.79960  0.76120  0.66161  Biso   1.000  N
  N16      1.0000 0.79960  0.73880  0.16161  Biso   1.000  N
  N17      1.0000 0.12960  0.79780  0.47570  Biso   1.000  N
  N18      1.0000 0.12960  0.70220  0.97570  Biso   1.000  N
  N19      1.0000 0.87040  0.20220  0.52430  Biso   1.000  N
  N20      1.0000 0.87040  0.29780  0.02430  Biso   1.000  N
  N21      1.0000 0.21370  0.73580  0.45890  Biso   1.000  N
  N22      1.0000 0.21370  0.76420  0.95890  Biso   1.000  N
  N23      1.0000 0.78630  0.26420  0.54110  Biso   1.000  N
  N24      1.0000 0.78630  0.23580  0.04110  Biso   1.000  N
  N25      1.0000 0.47130  0.66480  0.55630  Biso   1.000  N
  N26      1.0000 0.47130  0.83520  0.05630  Biso   1.000  N
  N27      1.0000 0.52870  0.33520  0.44370  Biso   1.000  N
  N28      1.0000 0.52870  0.16480  0.94370  Biso   1.000  N
  N29      1.0000 0.99820  0.91970  0.54750  Biso   1.000  N
  N30      1.0000 0.99820  0.58030  0.04750  Biso   1.000  N
  N31      1.0000 0.00180  0.08030  0.45250  Biso   1.000  N
  N32      1.0000 0.00180  0.41970  0.95250  Biso   1.000  N
  C1       1.0000 0.43780  0.34050  0.72530  Biso   1.000  C
  C2       1.0000 0.43780  0.15950  0.22530  Biso   1.000  C
  C3       1.0000 0.56220  0.65950  0.27470  Biso   1.000  C
  C4       1.0000 0.56220  0.84050  0.77470  Biso   1.000  C
  H1       1.0000 0.39190  0.38600  0.70830  Biso   1.000  H
  H2       1.0000 0.39190  0.11400  0.20830  Biso   1.000  H
  H3       1.0000 0.60810  0.61400  0.29170  Biso   1.000  H
  H4       1.0000 0.60810  0.88600  0.79170  Biso   1.000  H
  C5       1.0000 0.56050  0.34550  0.72360  Biso   1.000  C
  C6       1.0000 0.56050  0.15450  0.22360  Biso   1.000  C
  C7       1.0000 0.43950  0.65450  0.27640  Biso   1.000  C
  C8       1.0000 0.43950  0.84550  0.77640  Biso   1.000  C
  H5       1.0000 0.59610  0.39440  0.70740  Biso   1.000  H
  H6       1.0000 0.59610  0.10560  0.20740  Biso   1.000  H
  H7       1.0000 0.40390  0.60560  0.29260  Biso   1.000  H
  H8       1.0000 0.40390  0.89440  0.79260  Biso   1.000  H
  C9       1.0000 0.63060  0.27670  0.74610  Biso   1.000  C
  C10      1.0000 0.63060  0.22330  0.24610  Biso   1.000  C
  C11      1.0000 0.36940  0.72330  0.25390  Biso   1.000  C
  C12      1.0000 0.36940  0.77670  0.75390  Biso   1.000  C
  C13      1.0000 0.57110  0.20660  0.77190  Biso   1.000  C
  C14      1.0000 0.57110  0.29340  0.27190  Biso   1.000  C
  C15      1.0000 0.42890  0.79340  0.22810  Biso   1.000  C
  C16      1.0000 0.42890  0.70660  0.72810  Biso   1.000  C
  H9       1.0000 0.61470  0.15930  0.78780  Biso   1.000  H
  H10      1.0000 0.61470  0.34070  0.28780  Biso   1.000  H
  H11      1.0000 0.38530  0.84070  0.21220  Biso   1.000  H
  H12      1.0000 0.38530  0.65930  0.71220  Biso   1.000  H
  C17      1.0000 0.44830  0.20790  0.77350  Biso   1.000  C
  C18      1.0000 0.44830  0.29210  0.27350  Biso   1.000  C
  C19      1.0000 0.55170  0.79210  0.22650  Biso   1.000  C
  C20      1.0000 0.55170  0.70790  0.72650  Biso   1.000  C
  H13      1.0000 0.41060  0.16130  0.79140  Biso   1.000  H
  H14      1.0000 0.41060  0.33870  0.29140  Biso   1.000  H
  H15      1.0000 0.58940  0.83870  0.20860  Biso   1.000  H
  H16      1.0000 0.58940  0.66130  0.70860  Biso   1.000  H
  C21      1.0000 0.76290  0.27570  0.74320  Biso   1.000  C
  C22      1.0000 0.76290  0.22430  0.24320  Biso   1.000  C
  C23      1.0000 0.23710  0.72430  0.25680  Biso   1.000  C
  C24      1.0000 0.23710  0.77570  0.75680  Biso   1.000  C
  C25      1.0000 0.82960  0.35050  0.75360  Biso   1.000  C
  C26      1.0000 0.82960  0.14950  0.25360  Biso   1.000  C
  C27      1.0000 0.17040  0.64950  0.24640  Biso   1.000  C
  C28      1.0000 0.17040  0.85050  0.74640  Biso   1.000  C
  H17      1.0000 0.79140  0.40340  0.76010  Biso   1.000  H
  H18      1.0000 0.79140  0.09660  0.26010  Biso   1.000  H
  H19      1.0000 0.20860  0.59660  0.23990  Biso   1.000  H
  H20      1.0000 0.20860  0.90340  0.73990  Biso   1.000  H
  C29      1.0000 0.95380  0.34710  0.75440  Biso   1.000  C
  C30      1.0000 0.95380  0.15290  0.25440  Biso   1.000  C
  C31      1.0000 0.04620  0.65290  0.24560  Biso   1.000  C
  C32      1.0000 0.04620  0.84710  0.74560  Biso   1.000  C
  H21      1.0000 0.99680  0.39810  0.76310  Biso   1.000  H
  H22      1.0000 0.99680  0.10190  0.26310  Biso   1.000  H
  H23      1.0000 0.00320  0.60190  0.23690  Biso   1.000  H
  H24      1.0000 0.00320  0.89810  0.73690  Biso   1.000  H
  C33      1.0000 0.94890  0.20330  0.73280  Biso   1.000  C
  C34      1.0000 0.94890  0.29670  0.23280  Biso   1.000  C
  C35      1.0000 0.05110  0.79670  0.26720  Biso   1.000  C
  C36      1.0000 0.05110  0.70330  0.76720  Biso   1.000  C
  H25      1.0000 0.98910  0.15190  0.72450  Biso   1.000  H
  H26      1.0000 0.98910  0.34810  0.22450  Biso   1.000  H
  H27      1.0000 0.01090  0.84810  0.27550  Biso   1.000  H
  H28      1.0000 0.01090  0.65190  0.77550  Biso   1.000  H
  C37      1.0000 0.82450  0.20000  0.73320  Biso   1.000  C
  C38      1.0000 0.82450  0.30000  0.23320  Biso   1.000  C
  C39      1.0000 0.17550  0.80000  0.26680  Biso   1.000  C
  C40      1.0000 0.17550  0.70000  0.76680  Biso   1.000  C
  H29      1.0000 0.78380  0.14740  0.72670  Biso   1.000  H
  H30      1.0000 0.78380  0.35260  0.22670  Biso   1.000  H
  H31      1.0000 0.21620  0.85260  0.27330  Biso   1.000  H
  H32      1.0000 0.21620  0.64740  0.77330  Biso   1.000  H
  C41      1.0000 0.12850  0.31610  0.62050  Biso   1.000  C
  C42      1.0000 0.12850  0.18390  0.12050  Biso   1.000  C
  C43      1.0000 0.87150  0.68390  0.37950  Biso   1.000  C
  C44      1.0000 0.87150  0.81610  0.87950  Biso   1.000  C
  H33      1.0000 0.07830  0.35590  0.63800  Biso   1.000  H
  H34      1.0000 0.07830  0.14410  0.13800  Biso   1.000  H
  H35      1.0000 0.92170  0.64410  0.36200  Biso   1.000  H
  H36      1.0000 0.92170  0.85590  0.86200  Biso   1.000  H
  C45      1.0000 0.12750  0.31370  0.55890  Biso   1.000  C
  C46      1.0000 0.12750  0.18630  0.05890  Biso   1.000  C
  C47      1.0000 0.87250  0.68630  0.44110  Biso   1.000  C
  C48      1.0000 0.87250  0.81370  0.94110  Biso   1.000  C
  H37      1.0000 0.07830  0.35170  0.53600  Biso   1.000  H
  H38      1.0000 0.07830  0.14830  0.03600  Biso   1.000  H
  H39      1.0000 0.92170  0.64830  0.46400  Biso   1.000  H
  H40      1.0000 0.92170  0.85170  0.96400  Biso   1.000  H
  C49      1.0000 0.20010  0.25450  0.53090  Biso   1.000  C
  C50      1.0000 0.20010  0.24550  0.03090  Biso   1.000  C
  C51      1.0000 0.79990  0.74550  0.46910  Biso   1.000  C
  C52      1.0000 0.79990  0.75450  0.96910  Biso   1.000  C
  C53      1.0000 0.27120  0.20080  0.56810  Biso   1.000  C
  C54      1.0000 0.27120  0.29920  0.06810  Biso   1.000  C
  C55      1.0000 0.72880  0.79920  0.43190  Biso   1.000  C
  C56      1.0000 0.72880  0.70080  0.93190  Biso   1.000  C
  H41      1.0000 0.32140  0.16000  0.55160  Biso   1.000  H
  H42      1.0000 0.32140  0.34000  0.05160  Biso   1.000  H
  H43      1.0000 0.67860  0.84000  0.44840  Biso   1.000  H
  H44      1.0000 0.67860  0.66000  0.94840  Biso   1.000  H
  C57      1.0000 0.26800  0.20760  0.62930  Biso   1.000  C
  C58      1.0000 0.26800  0.29240  0.12930  Biso   1.000  C
  C59      1.0000 0.73200  0.79240  0.37070  Biso   1.000  C
  C60      1.0000 0.73200  0.70760  0.87070  Biso   1.000  C
  H45      1.0000 0.31730  0.17090  0.65320  Biso   1.000  H
  H46      1.0000 0.31730  0.32910  0.15320  Biso   1.000  H
  H47      1.0000 0.68270  0.82910  0.34680  Biso   1.000  H
  H48      1.0000 0.68270  0.67090  0.84680  Biso   1.000  H
  C61      1.0000 0.20130  0.24940  0.46430  Biso   1.000  C
  C62      1.0000 0.20130  0.25060  0.96430  Biso   1.000  C
  C63      1.0000 0.79870  0.75060  0.53570  Biso   1.000  C
  C64      1.0000 0.79870  0.74940  0.03570  Biso   1.000  C
  C65      1.0000 0.12670  0.30040  0.42700  Biso   1.000  C
  C66      1.0000 0.12670  0.19960  0.92700  Biso   1.000  C
  C67      1.0000 0.87330  0.69960  0.57300  Biso   1.000  C
  C68      1.0000 0.87330  0.80040  0.07300  Biso   1.000  C
  H49      1.0000 0.07450  0.33970  0.44350  Biso   1.000  H
  H50      1.0000 0.07450  0.16030  0.94350  Biso   1.000  H
  H51      1.0000 0.92550  0.66030  0.55650  Biso   1.000  H
  H52      1.0000 0.92550  0.83970  0.05650  Biso   1.000  H
  C69      1.0000 0.12890  0.29360  0.36540  Biso   1.000  C
  C70      1.0000 0.12890  0.20640  0.86540  Biso   1.000  C
  C71      1.0000 0.87110  0.70640  0.63460  Biso   1.000  C
  C72      1.0000 0.87110  0.79360  0.13460  Biso   1.000  C
  H53      1.0000 0.07770  0.32920  0.34160  Biso   1.000  H
  H54      1.0000 0.07770  0.17080  0.84160  Biso   1.000  H
  H55      1.0000 0.92230  0.67080  0.65840  Biso   1.000  H
  H56      1.0000 0.92230  0.82920  0.15840  Biso   1.000  H
  C73      1.0000 0.27420  0.18890  0.37440  Biso   1.000  C
  C74      1.0000 0.27420  0.31110  0.87440  Biso   1.000  C
  C75      1.0000 0.72580  0.81110  0.62560  Biso   1.000  C
  C76      1.0000 0.72580  0.68890  0.12560  Biso   1.000  C
  H57      1.0000 0.32600  0.15060  0.35670  Biso   1.000  H
  H58      1.0000 0.32600  0.34940  0.85670  Biso   1.000  H
  H59      1.0000 0.67400  0.84940  0.64330  Biso   1.000  H
  H60      1.0000 0.67400  0.65060  0.14330  Biso   1.000  H
  C77      1.0000 0.27650  0.19190  0.43560  Biso   1.000  C
  C78      1.0000 0.27650  0.30810  0.93560  Biso   1.000  C
  C79      1.0000 0.72350  0.80810  0.56440  Biso   1.000  C
  C80      1.0000 0.72350  0.69190  0.06440  Biso   1.000  C
  H61      1.0000 0.32830  0.15550  0.45830  Biso   1.000  H
  H62      1.0000 0.32830  0.34450  0.95830  Biso   1.000  H
  H63      1.0000 0.67170  0.84450  0.54170  Biso   1.000  H
  H64      1.0000 0.67170  0.65550  0.04170  Biso   1.000  H
  C81      1.0000 0.56610  0.61130  0.55940  Biso   1.000  C
  C82      1.0000 0.56610  0.88870  0.05940  Biso   1.000  C
  C83      1.0000 0.43390  0.38870  0.44060  Biso   1.000  C
  C84      1.0000 0.43390  0.11130  0.94060  Biso   1.000  C
  H65      1.0000 0.60350  0.59590  0.59630  Biso   1.000  H
  H66      1.0000 0.60350  0.90410  0.09630  Biso   1.000  H
  H67      1.0000 0.39650  0.40410  0.40370  Biso   1.000  H
  H68      1.0000 0.39650  0.09590  0.90370  Biso   1.000  H
  C85      1.0000 0.60530  0.58090  0.50930  Biso   1.000  C
  C86      1.0000 0.60530  0.91910  0.00930  Biso   1.000  C
  C87      1.0000 0.39470  0.41910  0.49070  Biso   1.000  C
  C88      1.0000 0.39470  0.08090  0.99070  Biso   1.000  C
  H69      1.0000 0.67080  0.54320  0.51170  Biso   1.000  H
  H70      1.0000 0.67080  0.95680  0.01170  Biso   1.000  H
  H71      1.0000 0.32920  0.45680  0.48830  Biso   1.000  H
  H72      1.0000 0.32920  0.04320  0.98830  Biso   1.000  H
  C89      1.0000 0.55440  0.60180  0.45310  Biso   1.000  C
  C90      1.0000 0.55440  0.89820  0.95310  Biso   1.000  C
  C91      1.0000 0.44560  0.39820  0.54690  Biso   1.000  C
  C92      1.0000 0.44560  0.10180  0.04690  Biso   1.000  C
  H73      1.0000 0.58590  0.57940  0.41880  Biso   1.000  H
  H74      1.0000 0.58590  0.92060  0.91880  Biso   1.000  H
  H75      1.0000 0.41410  0.42060  0.58120  Biso   1.000  H
  H76      1.0000 0.41410  0.07940  0.08120  Biso   1.000  H
  C93      1.0000 0.45670  0.65600  0.44900  Biso   1.000  C
  C94      1.0000 0.45670  0.84400  0.94900  Biso   1.000  C
  C95      1.0000 0.54330  0.34400  0.55100  Biso   1.000  C
  C96      1.0000 0.54330  0.15600  0.05100  Biso   1.000  C
  H77      1.0000 0.42050  0.67070  0.41170  Biso   1.000  H
  H78      1.0000 0.42050  0.82930  0.91170  Biso   1.000  H
  H79      1.0000 0.57950  0.32930  0.58830  Biso   1.000  H
  H80      1.0000 0.57950  0.17070  0.08830  Biso   1.000  H
  C97      1.0000 0.41300  0.68830  0.50070  Biso   1.000  C
  C98      1.0000 0.41300  0.81170  0.00070  Biso   1.000  C
  C99      1.0000 0.58700  0.31170  0.49930  Biso   1.000  C
  C100     1.0000 0.58700  0.18830  0.99930  Biso   1.000  C
  C101     1.0000 0.30450  0.74200  0.49760  Biso   1.000  C
  C102     1.0000 0.30450  0.75800  0.99760  Biso   1.000  C
  C103     1.0000 0.69550  0.25800  0.50240  Biso   1.000  C
  C104     1.0000 0.69550  0.24200  0.00240  Biso   1.000  C
  C105     1.0000 0.17560  0.83500  0.52360  Biso   1.000  C
  C106     1.0000 0.17560  0.66500  0.02360  Biso   1.000  C
  C107     1.0000 0.82440  0.16500  0.47640  Biso   1.000  C
  C108     1.0000 0.82440  0.33500  0.97640  Biso   1.000  C
  C109     1.0000 0.12240  0.90140  0.56000  Biso   1.000  C
  C110     1.0000 0.12240  0.59860  0.06000  Biso   1.000  C
  C111     1.0000 0.87760  0.09860  0.44000  Biso   1.000  C
  C112     1.0000 0.87760  0.40140  0.94000  Biso   1.000  C
  C113     1.0000 0.18270  0.94890  0.60530  Biso   1.000  C
  C114     1.0000 0.18270  0.55110  0.10530  Biso   1.000  C
  C115     1.0000 0.81730  0.05110  0.39470  Biso   1.000  C
  C116     1.0000 0.81730  0.44890  0.89470  Biso   1.000  C
  H81      1.0000 0.26440  0.93900  0.61280  Biso   1.000  H
  H82      1.0000 0.26440  0.56100  0.11280  Biso   1.000  H
  H83      1.0000 0.73560  0.06100  0.38720  Biso   1.000  H
  H84      1.0000 0.73560  0.43900  0.88720  Biso   1.000  H
  C117     1.0000 0.13050  0.00730  0.63840  Biso   1.000  C
  C118     1.0000 0.13050  0.49270  0.13840  Biso   1.000  C
  C119     1.0000 0.86950  0.99270  0.36160  Biso   1.000  C
  C120     1.0000 0.86950  0.50730  0.86160  Biso   1.000  C
  H85      1.0000 0.17320  0.03580  0.66980  Biso   1.000  H
  H86      1.0000 0.17320  0.46420  0.16980  Biso   1.000  H
  H87      1.0000 0.82680  0.96420  0.33020  Biso   1.000  H
  H88      1.0000 0.82680  0.53580  0.83020  Biso   1.000  H
  C121     1.0000 0.01620  0.02400  0.62570  Biso   1.000  C
  C122     1.0000 0.01620  0.47600  0.12570  Biso   1.000  C
  C123     1.0000 0.98380  0.97600  0.37430  Biso   1.000  C
  C124     1.0000 0.98380  0.52400  0.87430  Biso   1.000  C
  H89      1.0000 0.98080  0.06770  0.64750  Biso   1.000  H
  H90      1.0000 0.98080  0.43230  0.14750  Biso   1.000  H
  H91      1.0000 0.01920  0.93230  0.35250  Biso   1.000  H
  H92      1.0000 0.01920  0.56770  0.85250  Biso   1.000  H
  C125     1.0000 0.94620  0.98200  0.58290  Biso   1.000  C
  C126     1.0000 0.94620  0.51800  0.08290  Biso   1.000  C
  C127     1.0000 0.05380  0.01800  0.41710  Biso   1.000  C
  C128     1.0000 0.05380  0.48200  0.91710  Biso   1.000  C
  H93      1.0000 0.86480  0.99460  0.57740  Biso   1.000  H
  H94      1.0000 0.86480  0.50540  0.07740  Biso   1.000  H
  H95      1.0000 0.13520  0.00540  0.42260  Biso   1.000  H
  H96      1.0000 0.13520  0.49460  0.92260  Biso   1.000  H
  Cl1      1.0000 0.16485  0.56827  0.61088  Biso   1.000  Cl
  Cl2      1.0000 0.16485  0.93173  0.11088  Biso   1.000  Cl
  Cl3      1.0000 0.83515  0.43173  0.38912  Biso   1.000  Cl
  Cl4      1.0000 0.83515  0.06827  0.88912  Biso   1.000  Cl
  O5       1.0000 0.07880  0.54260  0.65140  Biso   1.000  O
  O6       1.0000 0.07880  0.95740  0.15140  Biso   1.000  O
  O7       1.0000 0.92120  0.45740  0.34860  Biso   1.000  O
  O8       1.0000 0.92120  0.04260  0.84860  Biso   1.000  O
  O9       1.0000 0.27470  0.52870  0.63080  Biso   1.000  O
  O10      1.0000 0.27470  0.97130  0.13080  Biso   1.000  O
  O11      1.0000 0.72530  0.47130  0.36920  Biso   1.000  O
  O12      1.0000 0.72530  0.02870  0.86920  Biso   1.000  O
  O13      1.0000 0.12680  0.53740  0.55380  Biso   1.000  O
  O14      1.0000 0.12680  0.96260  0.05380  Biso   1.000  O
  O15      1.0000 0.87320  0.46260  0.44620  Biso   1.000  O
  O16      1.0000 0.87320  0.03740  0.94620  Biso   1.000  O
  O17      1.0000 0.17560  0.65990  0.61120  Biso   1.000  O
  O18      1.0000 0.17560  0.84010  0.11120  Biso   1.000  O
  O19      1.0000 0.82440  0.34010  0.38880  Biso   1.000  O
  O20      1.0000 0.82440  0.15990  0.88880  Biso   1.000  O
  Cl5      1.0000 0.44330  0.53950  0.86540  Biso   1.000  Cl
  Cl6      1.0000 0.44330  0.96050  0.36540  Biso   1.000  Cl
  Cl7      1.0000 0.55670  0.46050  0.13460  Biso   1.000  Cl
  Cl8      1.0000 0.55670  0.03950  0.63460  Biso   1.000  Cl
  O21      1.0000 0.33620  0.52980  0.83510  Biso   1.000  O
  O22      1.0000 0.33620  0.97020  0.33510  Biso   1.000  O
  O23      1.0000 0.66380  0.47020  0.16490  Biso   1.000  O
  O24      1.0000 0.66380  0.02980  0.66490  Biso   1.000  O
  O25      1.0000 0.46290  0.62580  0.88180  Biso   1.000  O
  O26      1.0000 0.46290  0.87420  0.38180  Biso   1.000  O
  O27      1.0000 0.53710  0.37420  0.11820  Biso   1.000  O
  O28      1.0000 0.53710  0.12580  0.61820  Biso   1.000  O
  O29      1.0000 0.48990  0.46070  0.88770  Biso   1.000  O
  O30      1.0000 0.48990  0.03930  0.38770  Biso   1.000  O
  O31      1.0000 0.51010  0.53930  0.11230  Biso   1.000  O
  O32      1.0000 0.51010  0.96070  0.61230  Biso   1.000  O
  O33      1.0000 0.53380  0.53780  0.82010  Biso   1.000  O
  O34      1.0000 0.53380  0.96220  0.32010  Biso   1.000  O
  O35      1.0000 0.46620  0.46220  0.17990  Biso   1.000  O
  O36      1.0000 0.46620  0.03780  0.67990  Biso   1.000  O
  O37      1.0000 0.30630  0.02220  0.84192  Biso   1.000  O
  O38      1.0000 0.30630  0.47780  0.34192  Biso   1.000  O
  O39      1.0000 0.69370  0.97780  0.15808  Biso   1.000  O
  O40      1.0000 0.69370  0.52220  0.65808  Biso   1.000  O
  O41      1.0000 0.14230  0.57080  0.40330  Biso   1.000  O
  O42      1.0000 0.14230  0.92920  0.90330  Biso   1.000  O
  O43      1.0000 0.85770  0.42920  0.59670  Biso   1.000  O
  O44      1.0000 0.85770  0.07080  0.09670  Biso   1.000  O
  O45      1.0000 0.19790  0.43690  0.75193  Biso   1.000  O
  O46      1.0000 0.19790  0.06310  0.25193  Biso   1.000  O
  O47      1.0000 0.80210  0.56310  0.24807  Biso   1.000  O
  O48      1.0000 0.80210  0.93690  0.74807  Biso   1.000  O
  O49      1.0000 0.35550  0.98580  0.47890  Biso   1.000  O
  O50      1.0000 0.35550  0.51420  0.97890  Biso   1.000  O
  O51      1.0000 0.64450  0.01420  0.52110  Biso   1.000  O
  O52      1.0000 0.64450  0.48580  0.02110  Biso   1.000  O
  O53      1.0000 0.19590  0.10820  0.74547  Biso   1.000  O
  O54      1.0000 0.19590  0.39180  0.24547  Biso   1.000  O
  O55      1.0000 0.80410  0.89180  0.25453  Biso   1.000  O
  O56      1.0000 0.80410  0.60820  0.75453  Biso   1.000  O
