data_image0
_cell_length_a       14.7082
_cell_length_b       15.9643
_cell_length_c       17.8289
_cell_angle_alpha    106.851
_cell_angle_beta     97.638
_cell_angle_gamma    117.56

_symmetry_space_group_name_H-M    "P 1"
_symmetry_int_tables_number       1

loop_
  _symmetry_equiv_pos_as_xyz
  'x, y, z'

loop_
  _atom_site_label
  _atom_site_occupancy
  _atom_site_fract_x
  _atom_site_fract_y
  _atom_site_fract_z
  _atom_site_thermal_displace_type
  _atom_site_B_iso_or_equiv
  _atom_site_type_symbol
  Cu1      1.0000 0.00000  0.00000  0.00000  Biso   1.000  Cu
  Cu2      1.0000 0.70170  0.89990  0.38451  Biso   1.000  Cu
  Cu3      1.0000 0.29830  0.10010  0.61549  Biso   1.000  Cu
  Cu4      1.0000 0.32760  0.05720  0.47057  Biso   1.000  Cu
  Cu5      1.0000 0.67240  0.94280  0.52943  Biso   1.000  Cu
  N1       1.0000 0.98970  0.87130  0.93110  Biso   1.000  N
  N2       1.0000 0.01030  0.12870  0.06890  Biso   1.000  N
  C1       1.0000 0.07390  0.85790  0.91790  Biso   1.000  C
  C2       1.0000 0.92610  0.14210  0.08210  Biso   1.000  C
  C3       1.0000 0.03320  0.75190  0.86850  Biso   1.000  C
  C4       1.0000 0.96680  0.24810  0.13150  Biso   1.000  C
  C5       1.0000 0.92480  0.69940  0.85210  Biso   1.000  C
  C6       1.0000 0.07520  0.30060  0.14790  Biso   1.000  C
  C7       1.0000 0.89650  0.77240  0.88940  Biso   1.000  C
  C8       1.0000 0.10350  0.22760  0.11060  Biso   1.000  C
  C9       1.0000 0.79150  0.75070  0.88440  Biso   1.000  C
  C10      1.0000 0.20850  0.24930  0.11560  Biso   1.000  C
  C11      1.0000 0.76620  0.82210  0.92080  Biso   1.000  C
  C12      1.0000 0.23380  0.17790  0.07920  Biso   1.000  C
  C13      1.0000 0.65840  0.80020  0.91290  Biso   1.000  C
  C14      1.0000 0.34160  0.19980  0.08710  Biso   1.000  C
  C15      1.0000 0.66590  0.88690  0.96170  Biso   1.000  C
  C16      1.0000 0.33410  0.11310  0.03830  Biso   1.000  C
  C17      1.0000 0.77850  0.96410  0.99760  Biso   1.000  C
  C18      1.0000 0.22150  0.03590  0.00240  Biso   1.000  C
  N3       1.0000 0.83980  0.92670  0.97150  Biso   1.000  N
  N4       1.0000 0.16020  0.07330  0.02850  Biso   1.000  N
  C19      1.0000 0.18210  0.93530  0.94850  Biso   1.000  C
  C20      1.0000 0.81790  0.06470  0.05150  Biso   1.000  C
  C21      1.0000 0.70100  0.64040  0.83870  Biso   1.000  C
  C22      1.0000 0.29900  0.35960  0.16130  Biso   1.000  C
  C23      1.0000 0.64310  0.58400  0.88180  Biso   1.000  C
  C24      1.0000 0.35690  0.41600  0.11820  Biso   1.000  C
  C25      1.0000 0.56200  0.48200  0.83770  Biso   1.000  C
  C26      1.0000 0.43800  0.51800  0.16230  Biso   1.000  C
  C27      1.0000 0.53200  0.43500  0.75340  Biso   1.000  C
  C28      1.0000 0.46800  0.56500  0.24660  Biso   1.000  C
  C29      1.0000 0.59200  0.48900  0.71280  Biso   1.000  C
  C30      1.0000 0.40800  0.51100  0.28720  Biso   1.000  C
  C31      1.0000 0.67600  0.59000  0.75440  Biso   1.000  C
  C32      1.0000 0.32400  0.41000  0.24560  Biso   1.000  C
  N5       1.0000 0.66590  0.63400  0.96750  Biso   1.000  N
  N6       1.0000 0.33410  0.36600  0.03250  Biso   1.000  N
  C33      1.0000 0.59540  0.64480  0.00090  Biso   1.000  C
  C34      1.0000 0.40460  0.35520  0.99910  Biso   1.000  C
  O1       1.0000 0.49950  0.60640  0.96010  Biso   1.000  O
  O2       1.0000 0.50050  0.39360  0.03990  Biso   1.000  O
  C35      1.0000 0.63280  0.71050  0.08990  Biso   1.000  C
  C36      1.0000 0.36720  0.28950  0.91010  Biso   1.000  C
  C37      1.0000 0.69980  0.70710  0.14920  Biso   1.000  C
  C38      1.0000 0.30020  0.29290  0.85080  Biso   1.000  C
  C39      1.0000 0.72630  0.76760  0.23290  Biso   1.000  C
  C40      1.0000 0.27370  0.23240  0.76710  Biso   1.000  C
  N7       1.0000 0.69500  0.83290  0.25670  Biso   1.000  N
  N8       1.0000 0.30500  0.16710  0.74330  Biso   1.000  N
  C41      1.0000 0.63200  0.83960  0.19960  Biso   1.000  C
  C42      1.0000 0.36800  0.16040  0.80040  Biso   1.000  C
  C43      1.0000 0.59900  0.77930  0.11690  Biso   1.000  C
  C44      1.0000 0.40100  0.22070  0.88310  Biso   1.000  C
  C45      1.0000 0.26050  0.90700  0.91920  Biso   1.000  C
  C46      1.0000 0.73950  0.09300  0.08080  Biso   1.000  C
  C47      1.0000 0.32730  0.89180  0.96920  Biso   1.000  C
  C48      1.0000 0.67270  0.10820  0.03080  Biso   1.000  C
  C49      1.0000 0.39410  0.85990  0.93820  Biso   1.000  C
  C50      1.0000 0.60590  0.14010  0.06180  Biso   1.000  C
  C51      1.0000 0.39510  0.84800  0.85780  Biso   1.000  C
  C52      1.0000 0.60490  0.15200  0.14220  Biso   1.000  C
  C53      1.0000 0.33510  0.86900  0.81210  Biso   1.000  C
  C54      1.0000 0.66490  0.13100  0.18790  Biso   1.000  C
  C55      1.0000 0.26600  0.89500  0.83940  Biso   1.000  C
  C56      1.0000 0.73400  0.10500  0.16060  Biso   1.000  C
  N9       1.0000 0.32240  0.90710  0.05070  Biso   1.000  N
  N10      1.0000 0.67760  0.09290  0.94930  Biso   1.000  N
  C57      1.0000 0.38760  0.90980  0.11460  Biso   1.000  C
  C58      1.0000 0.61240  0.09020  0.88540  Biso   1.000  C
  O3       1.0000 0.45230  0.88340  0.10710  Biso   1.000  O
  O4       1.0000 0.54770  0.11660  0.89290  Biso   1.000  O
  C59      1.0000 0.37140  0.94600  0.19600  Biso   1.000  C
  C60      1.0000 0.62860  0.05400  0.80400  Biso   1.000  C
  C61      1.0000 0.41230  0.92910  0.25760  Biso   1.000  C
  C62      1.0000 0.58770  0.07090  0.74240  Biso   1.000  C
  C63      1.0000 0.40200  0.96600  0.33600  Biso   1.000  C
  C64      1.0000 0.59800  0.03400  0.66400  Biso   1.000  C
  N11      1.0000 0.34930  0.01270  0.35140  Biso   1.000  N
  N12      1.0000 0.65070  0.98730  0.64860  Biso   1.000  N
  C65      1.0000 0.31300  0.03100  0.29160  Biso   1.000  C
  C66      1.0000 0.68700  0.96900  0.70840  Biso   1.000  C
  C67      1.0000 0.32100  0.00000  0.21290  Biso   1.000  C
  C68      1.0000 0.67900  0.00000  0.78710  Biso   1.000  C
  O5       1.0000 0.54140  0.81270  0.34950  Biso   1.000  O
  O6       1.0000 0.45860  0.18730  0.65050  Biso   1.000  O
  C69      1.0000 0.48500  0.80400  0.39640  Biso   1.000  C
  C70      1.0000 0.51500  0.19600  0.60360  Biso   1.000  C
  C71      1.0000 0.36000  0.73200  0.35700  Biso   1.000  C
  C72      1.0000 0.64000  0.26800  0.64300  Biso   1.000  C
  O7       1.0000 0.51750  0.84790  0.47320  Biso   1.000  O
  O8       1.0000 0.48250  0.15210  0.52680  Biso   1.000  O
  O9       1.0000 0.71430  0.79350  0.40760  Biso   1.000  O
  O10      1.0000 0.28570  0.20650  0.59240  Biso   1.000  O
  C73      1.0000 0.70100  0.77500  0.47050  Biso   1.000  C
  C74      1.0000 0.29900  0.22500  0.52950  Biso   1.000  C
  C75      1.0000 0.70700  0.68300  0.47500  Biso   1.000  C
  C76      1.0000 0.29300  0.31700  0.52500  Biso   1.000  C
  O11      1.0000 0.68270  0.82300  0.52850  Biso   1.000  O
  O12      1.0000 0.31730  0.17700  0.47150  Biso   1.000  O
  O13      1.0000 0.68960  0.01380  0.37820  Biso   1.000  O
  O14      1.0000 0.31040  0.98620  0.62180  Biso   1.000  O
  C77      1.0000 0.67900  0.06940  0.43920  Biso   1.000  C
  C78      1.0000 0.32100  0.93060  0.56080  Biso   1.000  C
  C79      1.0000 0.67800  0.16100  0.43500  Biso   1.000  C
  C80      1.0000 0.32200  0.83900  0.56500  Biso   1.000  C
  O15      1.0000 0.66800  0.05300  0.50300  Biso   1.000  O
  O16      1.0000 0.33200  0.94700  0.49700  Biso   1.000  O
  O17      1.0000 0.85730  0.00420  0.44970  Biso   1.000  O
  O18      1.0000 0.14270  0.99580  0.55030  Biso   1.000  O
  C81      1.0000 0.88600  0.04700  0.52700  Biso   1.000  C
  C82      1.0000 0.11400  0.95300  0.47300  Biso   1.000  C
  C83      1.0000 0.00700  0.12700  0.57400  Biso   1.000  C
  C84      1.0000 0.99300  0.87300  0.42600  Biso   1.000  C
  O19      1.0000 0.82940  0.03060  0.57310  Biso   1.000  O
  O20      1.0000 0.17060  0.96940  0.42690  Biso   1.000  O
  C85      1.0000 0.48600  0.69600  0.59100  Biso   1.000  C
  C86      1.0000 0.51400  0.30400  0.40900  Biso   1.000  C
  Cl1      1.0000 0.44900  0.74800  0.66730  Biso   1.000  Cl
  Cl2      1.0000 0.55100  0.25200  0.33270  Biso   1.000  Cl
  Cl3      1.0000 0.38300  0.58700  0.50970  Biso   1.000  Cl
  Cl4      1.0000 0.61700  0.41300  0.49030  Biso   1.000  Cl
  Cl5      1.0000 0.55900  0.65100  0.63800  Biso   1.000  Cl
  Cl6      1.0000 0.44100  0.34900  0.36200  Biso   1.000  Cl
  Cl7      1.0000 0.47300  0.58500  0.54000  Biso   1.000  Cl
  Cl8      1.0000 0.52700  0.41500  0.46000  Biso   1.000  Cl
  Cl9      1.0000 0.56000  0.72400  0.69000  Biso   1.000  Cl
  Cl10     1.0000 0.44000  0.27600  0.31000  Biso   1.000  Cl
  Cl11     1.0000 0.36500  0.68000  0.62200  Biso   1.000  Cl
  Cl12     1.0000 0.63500  0.32000  0.37800  Biso   1.000  Cl
  C87      1.0000 0.00700  0.23500  0.89600  Biso   1.000  C
  C88      1.0000 0.99300  0.76500  0.10400  Biso   1.000  C
  C89      1.0000 0.00600  0.13200  0.86400  Biso   1.000  C
  C90      1.0000 0.99400  0.86800  0.13600  Biso   1.000  C
  C91      1.0000 0.99600  0.25700  0.82100  Biso   1.000  C
  C92      1.0000 0.00400  0.74300  0.17900  Biso   1.000  C
  O21      1.0000 0.12690  0.31370  0.94800  Biso   1.000  O
  O22      1.0000 0.87310  0.68630  0.05200  Biso   1.000  O
  O23      1.0000 0.17500  0.51500  0.98600  Biso   1.000  O
  O24      1.0000 0.82500  0.48500  0.01400  Biso   1.000  O
  O25      1.0000 0.08100  0.67200  0.63900  Biso   1.000  O
  O26      1.0000 0.91900  0.32800  0.36100  Biso   1.000  O
  O27      1.0000 0.13200  0.41500  0.40100  Biso   1.000  O
  O28      1.0000 0.86800  0.58500  0.59900  Biso   1.000  O
  C93      1.0000 0.03100  0.06200  0.30200  Biso   1.000  C
  C94      1.0000 0.96900  0.93800  0.69800  Biso   1.000  C
  C95      1.0000 0.93120  0.04110  0.23530  Biso   1.000  C
  C96      1.0000 0.06880  0.95890  0.76470  Biso   1.000  C
  C97      1.0000 0.12460  0.14450  0.28860  Biso   1.000  C
  C98      1.0000 0.87540  0.85550  0.71140  Biso   1.000  C
  O29      1.0000 0.02300  0.12690  0.37590  Biso   1.000  O
  O30      1.0000 0.97700  0.87310  0.62410  Biso   1.000  O
  O31      1.0000 0.04000  0.38100  0.51100  Biso   1.000  O
  O32      1.0000 0.96000  0.61900  0.48900  Biso   1.000  O
  O33      1.0000 0.29300  0.53600  0.87900  Biso   1.000  O
  O34      1.0000 0.70700  0.46400  0.12100  Biso   1.000  O
  O35      1.0000 0.29100  0.49600  0.76200  Biso   1.000  O
  O36      1.0000 0.70900  0.50400  0.23800  Biso   1.000  O
  H1       1.0000 0.07480  0.72380  0.85060  Biso   1.000  H
  H2       1.0000 0.92520  0.27620  0.14940  Biso   1.000  H
  H3       1.0000 0.87640  0.62730  0.82150  Biso   1.000  H
  H4       1.0000 0.12360  0.37270  0.17850  Biso   1.000  H
  H5       1.0000 0.59350  0.73630  0.87940  Biso   1.000  H
  H6       1.0000 0.40650  0.26370  0.12060  Biso   1.000  H
  H7       1.0000 0.60760  0.89510  0.97040  Biso   1.000  H
  H8       1.0000 0.39240  0.10490  0.02960  Biso   1.000  H
  H9       1.0000 0.52450  0.44350  0.86680  Biso   1.000  H
  H10      1.0000 0.47550  0.55650  0.13320  Biso   1.000  H
  H11      1.0000 0.47170  0.36690  0.72400  Biso   1.000  H
  H12      1.0000 0.52830  0.63310  0.27600  Biso   1.000  H
  H13      1.0000 0.57490  0.45680  0.65480  Biso   1.000  H
  H14      1.0000 0.42510  0.54320  0.34520  Biso   1.000  H
  H15      1.0000 0.71790  0.62550  0.72510  Biso   1.000  H
  H16      1.0000 0.28210  0.37450  0.27490  Biso   1.000  H
  H17      1.0000 0.73600  0.66130  0.00290  Biso   1.000  H
  H18      1.0000 0.26400  0.33870  0.99710  Biso   1.000  H
  H19      1.0000 0.72780  0.66400  0.13350  Biso   1.000  H
  H20      1.0000 0.27220  0.33600  0.86650  Biso   1.000  H
  H21      1.0000 0.76830  0.76100  0.27350  Biso   1.000  H
  H22      1.0000 0.23170  0.23900  0.72650  Biso   1.000  H
  H23      1.0000 0.60970  0.88720  0.21690  Biso   1.000  H
  H24      1.0000 0.39030  0.11280  0.78310  Biso   1.000  H
  H25      1.0000 0.55320  0.78450  0.07800  Biso   1.000  H
  H26      1.0000 0.44680  0.21550  0.92200  Biso   1.000  H
  H27      1.0000 0.43770  0.84650  0.97120  Biso   1.000  H
  H28      1.0000 0.56230  0.15350  0.02880  Biso   1.000  H
  H29      1.0000 0.43890  0.82580  0.83550  Biso   1.000  H
  H30      1.0000 0.56110  0.17420  0.16450  Biso   1.000  H
  H31      1.0000 0.34070  0.86460  0.75880  Biso   1.000  H
  H32      1.0000 0.65930  0.13540  0.24120  Biso   1.000  H
  H33      1.0000 0.22140  0.90510  0.80410  Biso   1.000  H
  H34      1.0000 0.77860  0.09490  0.19590  Biso   1.000  H
  H35      1.0000 0.26590  0.91670  0.06230  Biso   1.000  H
  H36      1.0000 0.73410  0.08330  0.93770  Biso   1.000  H
  H37      1.0000 0.44810  0.89230  0.24840  Biso   1.000  H
  H38      1.0000 0.55190  0.10770  0.75160  Biso   1.000  H
  H39      1.0000 0.43520  0.95590  0.37960  Biso   1.000  H
  H40      1.0000 0.56480  0.04410  0.62040  Biso   1.000  H
  H41      1.0000 0.27850  0.06920  0.30270  Biso   1.000  H
  H42      1.0000 0.72150  0.93080  0.69730  Biso   1.000  H
  H43      1.0000 0.29200  0.01540  0.17160  Biso   1.000  H
  H44      1.0000 0.70800  0.98460  0.82840  Biso   1.000  H
  H45      1.0000 0.72140  0.65230  0.42810  Biso   1.000  H
  H46      1.0000 0.27860  0.34770  0.57190  Biso   1.000  H
  H47      1.0000 0.76270  0.70590  0.52370  Biso   1.000  H
  H48      1.0000 0.23730  0.29410  0.47630  Biso   1.000  H
  H49      1.0000 0.63970  0.63360  0.47740  Biso   1.000  H
  H50      1.0000 0.36030  0.36640  0.52260  Biso   1.000  H
  H51      1.0000 0.68660  0.16550  0.38480  Biso   1.000  H
  H52      1.0000 0.31340  0.83450  0.61520  Biso   1.000  H
  H53      1.0000 0.61100  0.15350  0.43910  Biso   1.000  H
  H54      1.0000 0.38900  0.84650  0.56090  Biso   1.000  H
  H55      1.0000 0.73540  0.22110  0.48020  Biso   1.000  H
  H56      1.0000 0.26460  0.77890  0.51980  Biso   1.000  H
  H57      1.0000 0.01690  0.15270  0.63170  Biso   1.000  H
  H58      1.0000 0.98310  0.84730  0.36830  Biso   1.000  H
  H59      1.0000 0.04700  0.09480  0.56330  Biso   1.000  H
  H60      1.0000 0.95300  0.90520  0.43670  Biso   1.000  H
  H61      1.0000 0.03040  0.18180  0.55640  Biso   1.000  H
  H62      1.0000 0.96960  0.81820  0.44360  Biso   1.000  H
  H63      1.0000 0.34200  0.70170  0.29890  Biso   1.000  H
  H64      1.0000 0.65800  0.29830  0.70110  Biso   1.000  H
  H65      1.0000 0.33470  0.67880  0.37750  Biso   1.000  H
  H66      1.0000 0.66530  0.32120  0.62250  Biso   1.000  H
  H67      1.0000 0.32680  0.77030  0.37150  Biso   1.000  H
  H68      1.0000 0.67320  0.22970  0.62850  Biso   1.000  H
