data_image0
_cell_length_a       12.2094
_cell_length_b       16.1597
_cell_length_c       17.6546
_cell_angle_alpha    76.557
_cell_angle_beta     73.767
_cell_angle_gamma    83.554

_symmetry_space_group_name_H-M    "P 1"
_symmetry_int_tables_number       1

loop_
  _symmetry_equiv_pos_as_xyz
  'x, y, z'

loop_
  _atom_site_label
  _atom_site_occupancy
  _atom_site_fract_x
  _atom_site_fract_y
  _atom_site_fract_z
  _atom_site_thermal_displace_type
  _atom_site_B_iso_or_equiv
  _atom_site_type_symbol
  Cu1      1.0000 0.00000  0.00000  0.50000  Biso   1.000  Cu
  Cu2      1.0000 0.05000  0.45989  0.44217  Biso   1.000  Cu
  Cu3      1.0000 0.95000  0.54011  0.55783  Biso   1.000  Cu
  Cu4      1.0000 0.04589  0.57023  0.95413  Biso   1.000  Cu
  Cu5      1.0000 0.95411  0.42977  0.04587  Biso   1.000  Cu
  N1       1.0000 0.16680  0.02210  0.46270  Biso   1.000  N
  N2       1.0000 0.83320  0.97790  0.53730  Biso   1.000  N
  C1       1.0000 0.22990  0.04850  0.50600  Biso   1.000  C
  C2       1.0000 0.77010  0.95150  0.49400  Biso   1.000  C
  C3       1.0000 0.34800  0.05190  0.46300  Biso   1.000  C
  C4       1.0000 0.65200  0.94810  0.53700  Biso   1.000  C
  C5       1.0000 0.35660  0.02750  0.39370  Biso   1.000  C
  C6       1.0000 0.64340  0.97250  0.60630  Biso   1.000  C
  C7       1.0000 0.24200  0.01020  0.39250  Biso   1.000  C
  C8       1.0000 0.75800  0.98980  0.60750  Biso   1.000  C
  C9       1.0000 0.21450  0.98820  0.32860  Biso   1.000  C
  C10      1.0000 0.78550  0.01180  0.67140  Biso   1.000  C
  C11      1.0000 0.10670  0.96900  0.33070  Biso   1.000  C
  C12      1.0000 0.89330  0.03100  0.66930  Biso   1.000  C
  C13      1.0000 0.07650  0.94890  0.26440  Biso   1.000  C
  C14      1.0000 0.92350  0.05110  0.73560  Biso   1.000  C
  C15      1.0000 0.96620  0.92850  0.29040  Biso   1.000  C
  C16      1.0000 0.03380  0.07150  0.70960  Biso   1.000  C
  C17      1.0000 0.92530  0.94080  0.37200  Biso   1.000  C
  C18      1.0000 0.07470  0.05920  0.62800  Biso   1.000  C
  N3       1.0000 0.01260  0.96630  0.39590  Biso   1.000  N
  N4       1.0000 0.98740  0.03370  0.60410  Biso   1.000  N
  C19      1.0000 0.30900  0.98430  0.25280  Biso   1.000  C
  C20      1.0000 0.69100  0.01570  0.74720  Biso   1.000  C
  C21      1.0000 0.34360  0.90590  0.23010  Biso   1.000  C
  C22      1.0000 0.65640  0.09410  0.76990  Biso   1.000  C
  C23      1.0000 0.42980  0.89870  0.16180  Biso   1.000  C
  C24      1.0000 0.57020  0.10130  0.83820  Biso   1.000  C
  C25      1.0000 0.48320  0.97250  0.11340  Biso   1.000  C
  C26      1.0000 0.51680  0.02750  0.88660  Biso   1.000  C
  C27      1.0000 0.45110  0.05040  0.13340  Biso   1.000  C
  C28      1.0000 0.54890  0.94960  0.86660  Biso   1.000  C
  C29      1.0000 0.36440  0.05630  0.20320  Biso   1.000  C
  C30      1.0000 0.63560  0.94370  0.79680  Biso   1.000  C
  N5       1.0000 0.33370  0.13710  0.22480  Biso   1.000  N
  N6       1.0000 0.66630  0.86290  0.77520  Biso   1.000  N
  C31      1.0000 0.23130  0.17780  0.22680  Biso   1.000  C
  C32      1.0000 0.76870  0.82220  0.77320  Biso   1.000  C
  O1       1.0000 0.16120  0.15800  0.19710  Biso   1.000  O
  O2       1.0000 0.83880  0.84200  0.80290  Biso   1.000  O
  C33      1.0000 0.20410  0.25020  0.27020  Biso   1.000  C
  C34      1.0000 0.79590  0.74980  0.72980  Biso   1.000  C
  C35      1.0000 0.23620  0.24860  0.33720  Biso   1.000  C
  C36      1.0000 0.76380  0.75140  0.66280  Biso   1.000  C
  C37      1.0000 0.19980  0.31260  0.37920  Biso   1.000  C
  C38      1.0000 0.80020  0.68740  0.62080  Biso   1.000  C
  N7       1.0000 0.12990  0.38060  0.35730  Biso   1.000  N
  N8       1.0000 0.87010  0.61940  0.64270  Biso   1.000  N
  C39      1.0000 0.09970  0.38180  0.28890  Biso   1.000  C
  C40      1.0000 0.90030  0.61820  0.71110  Biso   1.000  C
  C41      1.0000 0.13400  0.31950  0.24530  Biso   1.000  C
  C42      1.0000 0.86600  0.68050  0.75470  Biso   1.000  C
  C43      1.0000 0.18760  0.06740  0.58230  Biso   1.000  C
  C44      1.0000 0.81240  0.93260  0.41770  Biso   1.000  C
  C45      1.0000 0.26930  0.09970  0.61670  Biso   1.000  C
  C46      1.0000 0.73070  0.90030  0.38330  Biso   1.000  C
  C47      1.0000 0.30340  0.18260  0.58860  Biso   1.000  C
  C48      1.0000 0.69660  0.81740  0.41140  Biso   1.000  C
  C49      1.0000 0.38090  0.21200  0.61900  Biso   1.000  C
  C50      1.0000 0.61910  0.78800  0.38100  Biso   1.000  C
  C51      1.0000 0.42260  0.15940  0.67860  Biso   1.000  C
  C52      1.0000 0.57740  0.84060  0.32140  Biso   1.000  C
  C53      1.0000 0.39060  0.07780  0.70820  Biso   1.000  C
  C54      1.0000 0.60940  0.92220  0.29180  Biso   1.000  C
  C55      1.0000 0.31530  0.04660  0.67660  Biso   1.000  C
  C56      1.0000 0.68470  0.95340  0.32340  Biso   1.000  C
  N9       1.0000 0.27580  0.96330  0.70690  Biso   1.000  N
  N10      1.0000 0.72420  0.03670  0.29310  Biso   1.000  N
  C57      1.0000 0.33190  0.89330  0.74080  Biso   1.000  C
  C58      1.0000 0.66810  0.10670  0.25920  Biso   1.000  C
  O3       1.0000 0.42920  0.89040  0.74440  Biso   1.000  O
  O4       1.0000 0.57080  0.10960  0.25560  Biso   1.000  O
  C59      1.0000 0.25950  0.81630  0.77980  Biso   1.000  C
  C60      1.0000 0.74050  0.18370  0.22020  Biso   1.000  C
  C61      1.0000 0.14100  0.82300  0.80310  Biso   1.000  C
  C62      1.0000 0.85900  0.17700  0.19690  Biso   1.000  C
  C63      1.0000 0.08460  0.74920  0.84710  Biso   1.000  C
  C64      1.0000 0.91540  0.25080  0.15290  Biso   1.000  C
  N11      1.0000 0.13500  0.67570  0.87080  Biso   1.000  N
  N12      1.0000 0.86500  0.32430  0.12920  Biso   1.000  N
  C65      1.0000 0.25170  0.67000  0.84310  Biso   1.000  C
  C66      1.0000 0.74830  0.33000  0.15690  Biso   1.000  C
  C67      1.0000 0.31320  0.73930  0.79940  Biso   1.000  C
  C68      1.0000 0.68680  0.26070  0.20060  Biso   1.000  C
  O5       1.0000 0.17870  0.44510  0.49110  Biso   1.000  O
  O6       1.0000 0.82130  0.55490  0.50890  Biso   1.000  O
  O7       1.0000 0.98190  0.36010  0.52360  Biso   1.000  O
  O8       1.0000 0.01810  0.63990  0.47640  Biso   1.000  O
  O9       1.0000 0.89440  0.42970  0.62430  Biso   1.000  O
  O10      1.0000 0.10560  0.57030  0.37570  Biso   1.000  O
  C69      1.0000 0.92400  0.36290  0.59280  Biso   1.000  C
  C70      1.0000 0.07600  0.63710  0.40720  Biso   1.000  C
  C71      1.0000 0.88500  0.28110  0.64970  Biso   1.000  C
  C72      1.0000 0.11500  0.71890  0.35030  Biso   1.000  C
  O11      1.0000 0.09170  0.51280  0.58930  Biso   1.000  O
  O12      1.0000 0.90830  0.48720  0.41070  Biso   1.000  O
  C73      1.0000 0.17800  0.47150  0.55250  Biso   1.000  C
  C74      1.0000 0.82200  0.52850  0.44750  Biso   1.000  C
  C75      1.0000 0.28000  0.45350  0.58390  Biso   1.000  C
  C76      1.0000 0.72000  0.54650  0.41610  Biso   1.000  C
  O13      1.0000 0.07370  0.50160  0.87090  Biso   1.000  O
  O14      1.0000 0.92630  0.49840  0.12910  Biso   1.000  O
  O15      1.0000 0.18450  0.51620  0.98610  Biso   1.000  O
  O16      1.0000 0.81550  0.48380  0.01390  Biso   1.000  O
  O17      1.0000 0.00090  0.38030  0.94680  Biso   1.000  O
  O18      1.0000 0.99910  0.61970  0.05320  Biso   1.000  O
  C77      1.0000 0.05060  0.42640  0.88070  Biso   1.000  C
  C78      1.0000 0.94940  0.57360  0.11930  Biso   1.000  C
  C79      1.0000 0.08840  0.38610  0.80820  Biso   1.000  C
  C80      1.0000 0.91160  0.61390  0.19180  Biso   1.000  C
  O19      1.0000 0.10820  0.39410  0.05950  Biso   1.000  O
  O20      1.0000 0.89180  0.60590  0.94050  Biso   1.000  O
  C81      1.0000 0.19050  0.44270  0.02800  Biso   1.000  C
  C82      1.0000 0.80950  0.55730  0.97200  Biso   1.000  C
  C83      1.0000 0.30330  0.41010  0.04170  Biso   1.000  C
  C84      1.0000 0.69670  0.58990  0.95830  Biso   1.000  C
  C85      1.0000 0.42100  0.48100  0.29800  Biso   1.000  C
  C86      1.0000 0.57900  0.51900  0.70200  Biso   1.000  C
  C87      1.0000 0.47500  0.55800  0.24050  Biso   1.000  C
  C88      1.0000 0.52500  0.44200  0.75950  Biso   1.000  C
  Cl1      1.0000 0.49120  0.41300  0.36690  Biso   1.000  Cl
  Cl2      1.0000 0.50880  0.58700  0.63310  Biso   1.000  Cl
  Cl3      1.0000 0.42600  0.41850  0.21670  Biso   1.000  Cl
  Cl4      1.0000 0.57400  0.58150  0.78330  Biso   1.000  Cl
  Cl5      1.0000 0.45300  0.62110  0.32140  Biso   1.000  Cl
  Cl6      1.0000 0.54700  0.37890  0.67860  Biso   1.000  Cl
  Cl7      1.0000 0.61920  0.54250  0.20100  Biso   1.000  Cl
  Cl8      1.0000 0.38080  0.45750  0.79900  Biso   1.000  Cl
  C89      1.0000 0.27100  0.65410  0.06710  Biso   1.000  C
  C90      1.0000 0.72900  0.34590  0.93290  Biso   1.000  C
  C91      1.0000 0.21400  0.74100  0.06280  Biso   1.000  C
  C92      1.0000 0.78600  0.25900  0.93720  Biso   1.000  C
  Cl9      1.0000 0.41460  0.65580  0.04970  Biso   1.000  Cl
  Cl10     1.0000 0.58540  0.34420  0.95030  Biso   1.000  Cl
  Cl11     1.0000 0.21110  0.59130  0.16400  Biso   1.000  Cl
  Cl12     1.0000 0.78890  0.40870  0.83600  Biso   1.000  Cl
  Cl13     1.0000 0.27960  0.80730  0.96870  Biso   1.000  Cl
  Cl14     1.0000 0.72040  0.19270  0.03130  Biso   1.000  Cl
  Cl15     1.0000 0.19250  0.79200  0.13630  Biso   1.000  Cl
  Cl16     1.0000 0.80750  0.20800  0.86370  Biso   1.000  Cl
  C93      1.0000 0.16800  0.18250  0.96140  Biso   1.000  C
  C94      1.0000 0.83200  0.81750  0.03860  Biso   1.000  C
  C95      1.0000 0.16300  0.12040  0.02950  Biso   1.000  C
  C96      1.0000 0.83700  0.87960  0.97050  Biso   1.000  C
  Cl17     1.0000 0.32480  0.20020  0.98240  Biso   1.000  Cl
  Cl18     1.0000 0.67520  0.79980  0.01760  Biso   1.000  Cl
  Cl19     1.0000 0.20820  0.15660  0.86610  Biso   1.000  Cl
  Cl20     1.0000 0.79180  0.84340  0.13390  Biso   1.000  Cl
  Cl21     1.0000 0.22640  0.01880  0.03040  Biso   1.000  Cl
  Cl22     1.0000 0.77360  0.98120  0.96960  Biso   1.000  Cl
  Cl23     1.0000 0.00020  0.10620  0.01850  Biso   1.000  Cl
  Cl24     1.0000 0.99980  0.89380  0.98150  Biso   1.000  Cl
  C97      1.0000 0.83800  0.26400  0.42460  Biso   1.000  C
  C98      1.0000 0.16200  0.73600  0.57540  Biso   1.000  C
  C99      1.0000 0.75100  0.21300  0.49600  Biso   1.000  C
  C100     1.0000 0.24900  0.78700  0.50400  Biso   1.000  C
  Cl25     1.0000 0.80570  0.33820  0.33450  Biso   1.000  Cl
  Cl26     1.0000 0.19430  0.66180  0.66550  Biso   1.000  Cl
  Cl27     1.0000 0.92930  0.17190  0.38480  Biso   1.000  Cl
  Cl28     1.0000 0.07070  0.82810  0.61520  Biso   1.000  Cl
  Cl29     1.0000 0.67280  0.31530  0.52260  Biso   1.000  Cl
  Cl30     1.0000 0.32720  0.68470  0.47740  Biso   1.000  Cl
  Cl31     1.0000 0.65800  0.17540  0.43890  Biso   1.000  Cl
  Cl32     1.0000 0.34200  0.82460  0.56110  Biso   1.000  Cl
  H1       1.0000 0.40830  0.06800  0.48010  Biso   1.000  H
  H2       1.0000 0.59170  0.93200  0.51990  Biso   1.000  H
  H3       1.0000 0.42500  0.02250  0.35270  Biso   1.000  H
  H4       1.0000 0.57500  0.97750  0.64730  Biso   1.000  H
  H5       1.0000 0.12520  0.94980  0.21180  Biso   1.000  H
  H6       1.0000 0.87480  0.05020  0.78820  Biso   1.000  H
  H7       1.0000 0.92360  0.90970  0.26070  Biso   1.000  H
  H8       1.0000 0.07640  0.09030  0.73930  Biso   1.000  H
  H9       1.0000 0.30660  0.85620  0.26280  Biso   1.000  H
  H10      1.0000 0.69340  0.14380  0.73720  Biso   1.000  H
  H11      1.0000 0.45250  0.84480  0.14780  Biso   1.000  H
  H12      1.0000 0.54750  0.15520  0.85220  Biso   1.000  H
  H13      1.0000 0.54260  0.96840  0.06610  Biso   1.000  H
  H14      1.0000 0.45740  0.03160  0.93390  Biso   1.000  H
  H15      1.0000 0.48760  0.10000  0.09990  Biso   1.000  H
  H16      1.0000 0.51240  0.90000  0.90010  Biso   1.000  H
  H17      1.0000 0.38900  0.16360  0.23860  Biso   1.000  H
  H18      1.0000 0.61100  0.83640  0.76140  Biso   1.000  H
  H19      1.0000 0.28460  0.20280  0.35580  Biso   1.000  H
  H20      1.0000 0.71540  0.79720  0.64420  Biso   1.000  H
  H21      1.0000 0.22470  0.30930  0.42630  Biso   1.000  H
  H22      1.0000 0.77530  0.69070  0.57370  Biso   1.000  H
  H23      1.0000 0.05230  0.42830  0.27030  Biso   1.000  H
  H24      1.0000 0.94770  0.57170  0.72970  Biso   1.000  H
  H25      1.0000 0.11000  0.32330  0.19780  Biso   1.000  H
  H26      1.0000 0.89000  0.67670  0.80220  Biso   1.000  H
  H27      1.0000 0.27340  0.21960  0.54810  Biso   1.000  H
  H28      1.0000 0.72660  0.78040  0.45190  Biso   1.000  H
  H29      1.0000 0.40510  0.26860  0.59860  Biso   1.000  H
  H30      1.0000 0.59490  0.73140  0.40140  Biso   1.000  H
  H31      1.0000 0.47500  0.18040  0.69960  Biso   1.000  H
  H32      1.0000 0.52500  0.81960  0.30040  Biso   1.000  H
  H33      1.0000 0.41940  0.04240  0.75010  Biso   1.000  H
  H34      1.0000 0.58060  0.95760  0.24990  Biso   1.000  H
  H35      1.0000 0.20170  0.95530  0.70320  Biso   1.000  H
  H36      1.0000 0.79830  0.04470  0.29680  Biso   1.000  H
  H37      1.0000 0.10000  0.87540  0.78970  Biso   1.000  H
  H38      1.0000 0.90000  0.12460  0.21030  Biso   1.000  H
  H39      1.0000 0.00350  0.75280  0.86090  Biso   1.000  H
  H40      1.0000 0.99650  0.24720  0.13910  Biso   1.000  H
  H41      1.0000 0.29110  0.61640  0.85460  Biso   1.000  H
  H42      1.0000 0.70890  0.38360  0.14540  Biso   1.000  H
  H43      1.0000 0.39410  0.73340  0.78260  Biso   1.000  H
  H44      1.0000 0.60590  0.26660  0.21740  Biso   1.000  H
  H45      1.0000 0.84180  0.29250  0.70030  Biso   1.000  H
  H46      1.0000 0.15820  0.70750  0.29970  Biso   1.000  H
  H47      1.0000 0.83860  0.25440  0.62810  Biso   1.000  H
  H48      1.0000 0.16140  0.74560  0.37190  Biso   1.000  H
  H49      1.0000 0.94940  0.24440  0.65670  Biso   1.000  H
  H50      1.0000 0.05060  0.75560  0.34330  Biso   1.000  H
  H51      1.0000 0.26800  0.47710  0.63040  Biso   1.000  H
  H52      1.0000 0.73200  0.52290  0.36960  Biso   1.000  H
  H53      1.0000 0.29470  0.39360  0.59800  Biso   1.000  H
  H54      1.0000 0.70530  0.60640  0.40200  Biso   1.000  H
  H55      1.0000 0.34440  0.47820  0.54360  Biso   1.000  H
  H56      1.0000 0.65560  0.52180  0.45640  Biso   1.000  H
  H57      1.0000 0.06600  0.32890  0.82320  Biso   1.000  H
  H58      1.0000 0.93400  0.67110  0.17680  Biso   1.000  H
  H59      1.0000 0.05390  0.41710  0.76740  Biso   1.000  H
  H60      1.0000 0.94610  0.58290  0.23260  Biso   1.000  H
  H61      1.0000 0.16910  0.38690  0.78830  Biso   1.000  H
  H62      1.0000 0.83090  0.61310  0.21170  Biso   1.000  H
  H63      1.0000 0.29720  0.35410  0.07400  Biso   1.000  H
  H64      1.0000 0.70280  0.64590  0.92600  Biso   1.000  H
  H65      1.0000 0.35730  0.40910  0.99130  Biso   1.000  H
  H66      1.0000 0.64270  0.59090  0.00870  Biso   1.000  H
  H67      1.0000 0.32780  0.44630  0.06850  Biso   1.000  H
  H68      1.0000 0.67220  0.55370  0.93150  Biso   1.000  H
