data_image0
_cell_length_a       10.168
_cell_length_b       11.347
_cell_length_c       14.74
_cell_angle_alpha    109.963
_cell_angle_beta     93.334
_cell_angle_gamma    113.47

_symmetry_space_group_name_H-M    "P 1"
_symmetry_int_tables_number       1

loop_
  _symmetry_equiv_pos_as_xyz
  'x, y, z'

loop_
  _atom_site_label
  _atom_site_occupancy
  _atom_site_fract_x
  _atom_site_fract_y
  _atom_site_fract_z
  _atom_site_thermal_displace_type
  _atom_site_B_iso_or_equiv
  _atom_site_type_symbol
  Cu1      1.0000 0.85992  0.69001  0.77256  Biso   1.000  Cu
  Cu2      1.0000 0.14008  0.30999  0.22744  Biso   1.000  Cu
  O1       1.0000 0.69500  0.51180  0.74170  Biso   1.000  O
  O2       1.0000 0.30500  0.48820  0.25830  Biso   1.000  O
  H1       1.0000 0.69000  0.50000  0.79800  Biso   1.000  H
  H2       1.0000 0.31000  0.50000  0.20200  Biso   1.000  H
  Cu3      1.0000 0.76081  0.36847  0.69834  Biso   1.000  Cu
  Cu4      1.0000 0.23919  0.63153  0.30166  Biso   1.000  Cu
  N1       1.0000 0.02720  0.88180  0.81480  Biso   1.000  N
  N2       1.0000 0.97280  0.11820  0.18520  Biso   1.000  N
  C1       1.0000 0.16360  0.90810  0.80240  Biso   1.000  C
  C2       1.0000 0.83640  0.09190  0.19760  Biso   1.000  C
  H3       1.0000 0.18170  0.83420  0.76430  Biso   1.000  H
  H4       1.0000 0.81830  0.16580  0.23570  Biso   1.000  H
  C3       1.0000 0.27780  0.04060  0.84410  Biso   1.000  C
  C4       1.0000 0.72220  0.95940  0.15590  Biso   1.000  C
  H5       1.0000 0.37190  0.05590  0.83460  Biso   1.000  H
  H6       1.0000 0.62810  0.94410  0.16540  Biso   1.000  H
  C5       1.0000 0.25170  0.15210  0.90100  Biso   1.000  C
  C6       1.0000 0.74830  0.84790  0.09900  Biso   1.000  C
  H7       1.0000 0.32740  0.24290  0.92960  Biso   1.000  H
  H8       1.0000 0.67260  0.75710  0.07040  Biso   1.000  H
  C7       1.0000 0.11140  0.12460  0.91350  Biso   1.000  C
  C8       1.0000 0.88860  0.87540  0.08650  Biso   1.000  C
  H9       1.0000 0.09160  0.19700  0.95200  Biso   1.000  H
  H10      1.0000 0.90840  0.80300  0.04800  Biso   1.000  H
  C9       1.0000 0.99800  0.98810  0.86870  Biso   1.000  C
  C10      1.0000 0.00200  0.01190  0.13130  Biso   1.000  C
  C11      1.0000 0.84600  0.94650  0.87860  Biso   1.000  C
  C12      1.0000 0.15400  0.05350  0.12140  Biso   1.000  C
  C13      1.0000 0.79050  0.03950  0.92440  Biso   1.000  C
  C14      1.0000 0.20950  0.96050  0.07560  Biso   1.000  C
  H11      1.0000 0.85220  0.13520  0.95390  Biso   1.000  H
  H12      1.0000 0.14780  0.86480  0.04610  Biso   1.000  H
  C15      1.0000 0.64330  0.98930  0.92590  Biso   1.000  C
  C16      1.0000 0.35670  0.01070  0.07410  Biso   1.000  C
  H13      1.0000 0.60540  0.05110  0.95670  Biso   1.000  H
  H14      1.0000 0.39460  0.94890  0.04330  Biso   1.000  H
  C17      1.0000 0.55300  0.84880  0.88200  Biso   1.000  C
  C18      1.0000 0.44700  0.15120  0.11800  Biso   1.000  C
  H15      1.0000 0.45350  0.81350  0.88260  Biso   1.000  H
  H16      1.0000 0.54650  0.18650  0.11740  Biso   1.000  H
  C19      1.0000 0.61380  0.75970  0.83640  Biso   1.000  C
  C20      1.0000 0.38620  0.24030  0.16360  Biso   1.000  C
  H17      1.0000 0.55370  0.66370  0.80700  Biso   1.000  H
  H18      1.0000 0.44630  0.33630  0.19300  Biso   1.000  H
  N3       1.0000 0.75660  0.80830  0.83340  Biso   1.000  N
  N4       1.0000 0.24340  0.19170  0.16660  Biso   1.000  N
  O3       1.0000 0.94760  0.59510  0.66850  Biso   1.000  O
  O4       1.0000 0.05240  0.40490  0.33150  Biso   1.000  O
  C21      1.0000 0.91820  0.60990  0.58900  Biso   1.000  C
  C22      1.0000 0.08180  0.39010  0.41100  Biso   1.000  C
  O5       1.0000 0.84550  0.67180  0.57720  Biso   1.000  O
  O6       1.0000 0.15450  0.32820  0.42280  Biso   1.000  O
  C23      1.0000 0.97180  0.54310  0.50190  Biso   1.000  C
  C24      1.0000 0.02820  0.45690  0.49810  Biso   1.000  C
  H19      1.0000 0.96420  0.56470  0.44700  Biso   1.000  H
  H20      1.0000 0.03580  0.43530  0.55300  Biso   1.000  H
  O7       1.0000 0.97350  0.66800  0.89260  Biso   1.000  O
  O8       1.0000 0.02650  0.33200  0.10740  Biso   1.000  O
  O9       1.0000 0.89720  0.43470  0.82230  Biso   1.000  O
  O10      1.0000 0.10280  0.56530  0.17770  Biso   1.000  O
  C25      1.0000 0.95780  0.55530  0.89650  Biso   1.000  C
  C26      1.0000 0.04220  0.44470  0.10350  Biso   1.000  C
  C27      1.0000 0.01080  0.55700  0.99300  Biso   1.000  C
  C28      1.0000 0.98920  0.44300  0.00700  Biso   1.000  C
  H21      1.0000 0.06180  0.64310  0.04620  Biso   1.000  H
  H22      1.0000 0.93820  0.35690  0.95380  Biso   1.000  H
  N5       1.0000 0.81930  0.21240  0.63780  Biso   1.000  N
  N6       1.0000 0.18070  0.78760  0.36220  Biso   1.000  N
  C29      1.0000 0.91080  0.18490  0.68660  Biso   1.000  C
  C30      1.0000 0.08920  0.81510  0.31340  Biso   1.000  C
  H23      1.0000 0.96280  0.24760  0.75090  Biso   1.000  H
  H24      1.0000 0.03720  0.75240  0.24910  Biso   1.000  H
  C31      1.0000 0.93030  0.06380  0.64320  Biso   1.000  C
  C32      1.0000 0.06970  0.93620  0.35680  Biso   1.000  C
  H25      1.0000 0.99310  0.04500  0.67820  Biso   1.000  H
  H26      1.0000 0.00690  0.95500  0.32180  Biso   1.000  H
  C33      1.0000 0.85390  0.97360  0.54750  Biso   1.000  C
  C34      1.0000 0.14610  0.02640  0.45250  Biso   1.000  C
  H27      1.0000 0.86320  0.89170  0.51690  Biso   1.000  H
  H28      1.0000 0.13680  0.10830  0.48310  Biso   1.000  H
  C35      1.0000 0.76370  0.00580  0.49740  Biso   1.000  C
  C36      1.0000 0.23630  0.99420  0.50260  Biso   1.000  C
  H29      1.0000 0.71370  0.94610  0.43220  Biso   1.000  H
  H30      1.0000 0.28630  0.05390  0.56780  Biso   1.000  H
  C37      1.0000 0.74620  0.12680  0.54300  Biso   1.000  C
  C38      1.0000 0.25380  0.87320  0.45700  Biso   1.000  C
  C39      1.0000 0.65000  0.16810  0.49590  Biso   1.000  C
  C40      1.0000 0.35000  0.83190  0.50410  Biso   1.000  C
  C41      1.0000 0.56910  0.09680  0.40090  Biso   1.000  C
  C42      1.0000 0.43090  0.90320  0.59910  Biso   1.000  C
  H31      1.0000 0.57110  0.01480  0.35990  Biso   1.000  H
  H32      1.0000 0.42890  0.98520  0.64010  Biso   1.000  H
  C43      1.0000 0.48130  0.15020  0.36530  Biso   1.000  C
  C44      1.0000 0.51870  0.84980  0.63470  Biso   1.000  C
  H33      1.0000 0.42920  0.10630  0.29970  Biso   1.000  H
  H34      1.0000 0.57080  0.89370  0.70030  Biso   1.000  H
  C45      1.0000 0.47510  0.26390  0.42760  Biso   1.000  C
  C46      1.0000 0.52490  0.73610  0.57240  Biso   1.000  C
  H35      1.0000 0.41620  0.29840  0.40590  Biso   1.000  H
  H36      1.0000 0.58380  0.70160  0.59410  Biso   1.000  H
  C47      1.0000 0.55600  0.33110  0.52470  Biso   1.000  C
  C48      1.0000 0.44400  0.66890  0.47530  Biso   1.000  C
  H37      1.0000 0.55110  0.41080  0.56710  Biso   1.000  H
  H38      1.0000 0.44890  0.58920  0.43290  Biso   1.000  H
  N7       1.0000 0.64220  0.28300  0.55890  Biso   1.000  N
  N8       1.0000 0.35780  0.71700  0.44110  Biso   1.000  N
  O11      1.0000 0.57040  0.23020  0.76130  Biso   1.000  O
  O12      1.0000 0.42960  0.76980  0.23870  Biso   1.000  O
  H39      1.0000 0.60400  0.27100  0.82850  Biso   1.000  H
  H40      1.0000 0.39600  0.72900  0.17150  Biso   1.000  H
  H41      1.0000 0.48800  0.24000  0.75800  Biso   1.000  H
  H42      1.0000 0.51200  0.76000  0.24200  Biso   1.000  H
  O13      1.0000 0.78390  0.40830  0.24390  Biso   1.000  O
  O14      1.0000 0.21610  0.59170  0.75610  Biso   1.000  O
  O15      1.0000 0.33300  0.28230  0.73000  Biso   1.000  O
  O16      1.0000 0.66700  0.71770  0.27000  Biso   1.000  O
  H43      1.0000 0.32600  0.34200  0.79300  Biso   1.000  H
  H44      1.0000 0.67400  0.65800  0.20700  Biso   1.000  H
  H45      1.0000 0.33800  0.31900  0.68900  Biso   1.000  H
  H46      1.0000 0.66200  0.68100  0.31100  Biso   1.000  H
  O17      1.0000 0.68360  0.57190  0.38400  Biso   1.000  O
  O18      1.0000 0.31640  0.42810  0.61600  Biso   1.000  O
  H47      1.0000 0.76100  0.62500  0.43900  Biso   1.000  H
  H48      1.0000 0.23900  0.37500  0.56100  Biso   1.000  H
  H49      1.0000 0.70400  0.50200  0.34900  Biso   1.000  H
  H50      1.0000 0.29600  0.49800  0.65100  Biso   1.000  H
  N9       1.0000 0.66580  0.44710  0.01500  Biso   1.000  N
  N10      1.0000 0.33420  0.55290  0.98500  Biso   1.000  N
  O19      1.0000 0.63240  0.31770  0.97430  Biso   1.000  O
  O20      1.0000 0.36760  0.68230  0.02570  Biso   1.000  O
  O21      1.0000 0.70990  0.51420  0.10840  Biso   1.000  O
  O22      1.0000 0.29010  0.48580  0.89160  Biso   1.000  O
  O23      1.0000 0.65740  0.50860  0.96250  Biso   1.000  O
  O24      1.0000 0.34260  0.49140  0.03750  Biso   1.000  O
