data_image0
_cell_length_a       14.701
_cell_length_b       14.899
_cell_length_c       26.9
_cell_angle_alpha    90
_cell_angle_beta     90
_cell_angle_gamma    90

_symmetry_space_group_name_H-M    "P 1"
_symmetry_int_tables_number       1

loop_
  _symmetry_equiv_pos_as_xyz
  'x, y, z'

loop_
  _atom_site_label
  _atom_site_occupancy
  _atom_site_fract_x
  _atom_site_fract_y
  _atom_site_fract_z
  _atom_site_thermal_displace_type
  _atom_site_B_iso_or_equiv
  _atom_site_type_symbol
  Cu1      1.0000 0.25248  0.32513  0.49911  Biso   1.000  Cu
  Cu2      1.0000 0.25248  0.17487  0.99911  Biso   1.000  Cu
  Cu3      1.0000 0.24752  0.82513  0.49911  Biso   1.000  Cu
  Cu4      1.0000 0.75248  0.32513  0.00089  Biso   1.000  Cu
  Cu5      1.0000 0.74752  0.67487  0.50089  Biso   1.000  Cu
  Cu6      1.0000 0.74752  0.82513  0.00089  Biso   1.000  Cu
  Cu7      1.0000 0.75248  0.17487  0.50089  Biso   1.000  Cu
  Cu8      1.0000 0.24752  0.67487  0.99911  Biso   1.000  Cu
  N1       1.0000 0.29800  0.23120  0.54813  Biso   1.000  N
  N2       1.0000 0.29800  0.26880  0.04813  Biso   1.000  N
  N3       1.0000 0.20200  0.73120  0.54813  Biso   1.000  N
  N4       1.0000 0.79800  0.23120  0.95187  Biso   1.000  N
  N5       1.0000 0.70200  0.76880  0.45187  Biso   1.000  N
  N6       1.0000 0.70200  0.73120  0.95187  Biso   1.000  N
  N7       1.0000 0.79800  0.26880  0.45187  Biso   1.000  N
  N8       1.0000 0.20200  0.76880  0.04813  Biso   1.000  N
  C1       1.0000 0.39840  0.22710  0.55160  Biso   1.000  C
  C2       1.0000 0.39840  0.27290  0.05160  Biso   1.000  C
  C3       1.0000 0.10160  0.72710  0.55160  Biso   1.000  C
  C4       1.0000 0.89840  0.22710  0.94840  Biso   1.000  C
  C5       1.0000 0.60160  0.77290  0.44840  Biso   1.000  C
  C6       1.0000 0.60160  0.72710  0.94840  Biso   1.000  C
  C7       1.0000 0.89840  0.27290  0.44840  Biso   1.000  C
  C8       1.0000 0.10160  0.77290  0.05160  Biso   1.000  C
  H1       1.0000 0.42350  0.21580  0.51930  Biso   1.000  H
  H2       1.0000 0.42350  0.28420  0.01930  Biso   1.000  H
  H3       1.0000 0.07650  0.71580  0.51930  Biso   1.000  H
  H4       1.0000 0.92350  0.21580  0.98070  Biso   1.000  H
  H5       1.0000 0.57650  0.78420  0.48070  Biso   1.000  H
  H6       1.0000 0.57650  0.71580  0.98070  Biso   1.000  H
  H7       1.0000 0.92350  0.28420  0.48070  Biso   1.000  H
  H8       1.0000 0.07650  0.78420  0.01930  Biso   1.000  H
  H9       1.0000 0.41570  0.17980  0.57390  Biso   1.000  H
  H10      1.0000 0.41570  0.32020  0.07390  Biso   1.000  H
  H11      1.0000 0.08430  0.67980  0.57390  Biso   1.000  H
  H12      1.0000 0.91570  0.17980  0.92610  Biso   1.000  H
  H13      1.0000 0.58430  0.82020  0.42610  Biso   1.000  H
  H14      1.0000 0.58430  0.67980  0.92610  Biso   1.000  H
  H15      1.0000 0.91570  0.32020  0.42610  Biso   1.000  H
  H16      1.0000 0.08430  0.82020  0.07390  Biso   1.000  H
  H17      1.0000 0.42110  0.28330  0.56390  Biso   1.000  H
  H18      1.0000 0.42110  0.21670  0.06390  Biso   1.000  H
  H19      1.0000 0.07890  0.78330  0.56390  Biso   1.000  H
  H20      1.0000 0.92110  0.28330  0.93610  Biso   1.000  H
  H21      1.0000 0.57890  0.71670  0.43610  Biso   1.000  H
  H22      1.0000 0.57890  0.78330  0.93610  Biso   1.000  H
  H23      1.0000 0.92110  0.21670  0.43610  Biso   1.000  H
  H24      1.0000 0.07890  0.71670  0.06390  Biso   1.000  H
  C9       1.0000 0.26170  0.25120  0.59780  Biso   1.000  C
  C10      1.0000 0.26170  0.24880  0.09780  Biso   1.000  C
  C11      1.0000 0.23830  0.75120  0.59780  Biso   1.000  C
  C12      1.0000 0.76170  0.25120  0.90220  Biso   1.000  C
  C13      1.0000 0.73830  0.74880  0.40220  Biso   1.000  C
  C14      1.0000 0.73830  0.75120  0.90220  Biso   1.000  C
  C15      1.0000 0.76170  0.24880  0.40220  Biso   1.000  C
  C16      1.0000 0.23830  0.74880  0.09780  Biso   1.000  C
  H25      1.0000 0.27450  0.31260  0.60610  Biso   1.000  H
  H26      1.0000 0.27450  0.18740  0.10610  Biso   1.000  H
  H27      1.0000 0.22550  0.81260  0.60610  Biso   1.000  H
  H28      1.0000 0.77450  0.31260  0.89390  Biso   1.000  H
  H29      1.0000 0.72550  0.68740  0.39390  Biso   1.000  H
  H30      1.0000 0.72550  0.81260  0.89390  Biso   1.000  H
  H31      1.0000 0.77450  0.18740  0.39390  Biso   1.000  H
  H32      1.0000 0.22550  0.68740  0.10610  Biso   1.000  H
  H33      1.0000 0.28990  0.21240  0.62180  Biso   1.000  H
  H34      1.0000 0.28990  0.28760  0.12180  Biso   1.000  H
  H35      1.0000 0.21010  0.71240  0.62180  Biso   1.000  H
  H36      1.0000 0.78990  0.21240  0.87820  Biso   1.000  H
  H37      1.0000 0.71010  0.78760  0.37820  Biso   1.000  H
  H38      1.0000 0.71010  0.71240  0.87820  Biso   1.000  H
  H39      1.0000 0.78990  0.28760  0.37820  Biso   1.000  H
  H40      1.0000 0.21010  0.78760  0.12180  Biso   1.000  H
  H41      1.0000 0.19720  0.24160  0.59800  Biso   1.000  H
  H42      1.0000 0.19720  0.25840  0.09800  Biso   1.000  H
  H43      1.0000 0.30280  0.74160  0.59800  Biso   1.000  H
  H44      1.0000 0.69720  0.24160  0.90200  Biso   1.000  H
  H45      1.0000 0.80280  0.75840  0.40200  Biso   1.000  H
  H46      1.0000 0.80280  0.74160  0.90200  Biso   1.000  H
  H47      1.0000 0.69720  0.25840  0.40200  Biso   1.000  H
  H48      1.0000 0.30280  0.75840  0.09800  Biso   1.000  H
  C17      1.0000 0.26220  0.14480  0.52890  Biso   1.000  C
  C18      1.0000 0.26220  0.35520  0.02890  Biso   1.000  C
  C19      1.0000 0.23780  0.64480  0.52890  Biso   1.000  C
  C20      1.0000 0.76220  0.14480  0.97110  Biso   1.000  C
  C21      1.0000 0.73780  0.85520  0.47110  Biso   1.000  C
  C22      1.0000 0.73780  0.64480  0.97110  Biso   1.000  C
  C23      1.0000 0.76220  0.35520  0.47110  Biso   1.000  C
  C24      1.0000 0.23780  0.85520  0.02890  Biso   1.000  C
  H49      1.0000 0.19890  0.13800  0.53830  Biso   1.000  H
  H50      1.0000 0.19890  0.36200  0.03830  Biso   1.000  H
  H51      1.0000 0.30110  0.63800  0.53830  Biso   1.000  H
  H52      1.0000 0.69890  0.13800  0.96170  Biso   1.000  H
  H53      1.0000 0.80110  0.86200  0.46170  Biso   1.000  H
  H54      1.0000 0.80110  0.63800  0.96170  Biso   1.000  H
  H55      1.0000 0.69890  0.36200  0.46170  Biso   1.000  H
  H56      1.0000 0.30110  0.86200  0.03830  Biso   1.000  H
  H57      1.0000 0.29640  0.09530  0.54300  Biso   1.000  H
  H58      1.0000 0.29640  0.40470  0.04300  Biso   1.000  H
  H59      1.0000 0.20360  0.59530  0.54300  Biso   1.000  H
  H60      1.0000 0.79640  0.09530  0.95700  Biso   1.000  H
  H61      1.0000 0.70360  0.90470  0.45700  Biso   1.000  H
  H62      1.0000 0.70360  0.59530  0.95700  Biso   1.000  H
  H63      1.0000 0.79640  0.40470  0.45700  Biso   1.000  H
  H64      1.0000 0.20360  0.90470  0.04300  Biso   1.000  H
  C25      1.0000 0.27060  0.14360  0.47350  Biso   1.000  C
  C26      1.0000 0.27060  0.35640  0.97350  Biso   1.000  C
  C27      1.0000 0.22940  0.64360  0.47350  Biso   1.000  C
  C28      1.0000 0.77060  0.14360  0.02650  Biso   1.000  C
  C29      1.0000 0.72940  0.85640  0.52650  Biso   1.000  C
  C30      1.0000 0.72940  0.64360  0.02650  Biso   1.000  C
  C31      1.0000 0.77060  0.35640  0.52650  Biso   1.000  C
  C32      1.0000 0.22940  0.85640  0.97350  Biso   1.000  C
  H65      1.0000 0.33440  0.14490  0.46420  Biso   1.000  H
  H66      1.0000 0.33440  0.35510  0.96420  Biso   1.000  H
  H67      1.0000 0.16560  0.64490  0.46420  Biso   1.000  H
  H68      1.0000 0.83440  0.14490  0.03580  Biso   1.000  H
  H69      1.0000 0.66560  0.85510  0.53580  Biso   1.000  H
  H70      1.0000 0.66560  0.64490  0.03580  Biso   1.000  H
  H71      1.0000 0.83440  0.35510  0.53580  Biso   1.000  H
  H72      1.0000 0.16560  0.85510  0.96420  Biso   1.000  H
  H73      1.0000 0.24400  0.08890  0.46050  Biso   1.000  H
  H74      1.0000 0.24400  0.41110  0.96050  Biso   1.000  H
  H75      1.0000 0.25600  0.58890  0.46050  Biso   1.000  H
  H76      1.0000 0.74400  0.08890  0.03950  Biso   1.000  H
  H77      1.0000 0.75600  0.91110  0.53950  Biso   1.000  H
  H78      1.0000 0.75600  0.58890  0.03950  Biso   1.000  H
  H79      1.0000 0.74400  0.41110  0.53950  Biso   1.000  H
  H80      1.0000 0.25600  0.91110  0.96050  Biso   1.000  H
  N9       1.0000 0.22390  0.22160  0.45236  Biso   1.000  N
  N10      1.0000 0.22390  0.27840  0.95236  Biso   1.000  N
  N11      1.0000 0.27610  0.72160  0.45236  Biso   1.000  N
  N12      1.0000 0.72390  0.22160  0.04764  Biso   1.000  N
  N13      1.0000 0.77610  0.77840  0.54764  Biso   1.000  N
  N14      1.0000 0.77610  0.72160  0.04764  Biso   1.000  N
  N15      1.0000 0.72390  0.27840  0.54764  Biso   1.000  N
  N16      1.0000 0.27610  0.77840  0.95236  Biso   1.000  N
  C33      1.0000 0.25880  0.23990  0.40180  Biso   1.000  C
  C34      1.0000 0.25880  0.26010  0.90180  Biso   1.000  C
  C35      1.0000 0.24120  0.73990  0.40180  Biso   1.000  C
  C36      1.0000 0.75880  0.23990  0.09820  Biso   1.000  C
  C37      1.0000 0.74120  0.76010  0.59820  Biso   1.000  C
  C38      1.0000 0.74120  0.73990  0.09820  Biso   1.000  C
  C39      1.0000 0.75880  0.26010  0.59820  Biso   1.000  C
  C40      1.0000 0.24120  0.76010  0.90180  Biso   1.000  C
  H81      1.0000 0.32330  0.24950  0.40330  Biso   1.000  H
  H82      1.0000 0.32330  0.25050  0.90330  Biso   1.000  H
  H83      1.0000 0.17670  0.74950  0.40330  Biso   1.000  H
  H84      1.0000 0.82330  0.24950  0.09670  Biso   1.000  H
  H85      1.0000 0.67670  0.75050  0.59670  Biso   1.000  H
  H86      1.0000 0.67670  0.74950  0.09670  Biso   1.000  H
  H87      1.0000 0.82330  0.25050  0.59670  Biso   1.000  H
  H88      1.0000 0.17670  0.75050  0.90330  Biso   1.000  H
  H89      1.0000 0.22980  0.29250  0.38870  Biso   1.000  H
  H90      1.0000 0.22980  0.20750  0.88870  Biso   1.000  H
  H91      1.0000 0.27020  0.79250  0.38870  Biso   1.000  H
  H92      1.0000 0.72980  0.29250  0.11130  Biso   1.000  H
  H93      1.0000 0.77020  0.70750  0.61130  Biso   1.000  H
  H94      1.0000 0.77020  0.79250  0.11130  Biso   1.000  H
  H95      1.0000 0.72980  0.20750  0.61130  Biso   1.000  H
  H96      1.0000 0.27020  0.70750  0.88870  Biso   1.000  H
  H97      1.0000 0.24600  0.18960  0.38070  Biso   1.000  H
  H98      1.0000 0.24600  0.31040  0.88070  Biso   1.000  H
  H99      1.0000 0.25400  0.68960  0.38070  Biso   1.000  H
  H100     1.0000 0.74600  0.18960  0.11930  Biso   1.000  H
  H101     1.0000 0.75400  0.81040  0.61930  Biso   1.000  H
  H102     1.0000 0.75400  0.68960  0.11930  Biso   1.000  H
  H103     1.0000 0.74600  0.31040  0.61930  Biso   1.000  H
  H104     1.0000 0.25400  0.81040  0.88070  Biso   1.000  H
  C41      1.0000 0.12430  0.20520  0.44880  Biso   1.000  C
  C42      1.0000 0.12430  0.29480  0.94880  Biso   1.000  C
  C43      1.0000 0.37570  0.70520  0.44880  Biso   1.000  C
  C44      1.0000 0.62430  0.20520  0.05120  Biso   1.000  C
  C45      1.0000 0.87570  0.79480  0.55120  Biso   1.000  C
  C46      1.0000 0.87570  0.70520  0.05120  Biso   1.000  C
  C47      1.0000 0.62430  0.29480  0.55120  Biso   1.000  C
  C48      1.0000 0.37570  0.79480  0.94880  Biso   1.000  C
  H105     1.0000 0.09630  0.25290  0.43030  Biso   1.000  H
  H106     1.0000 0.09630  0.24710  0.93030  Biso   1.000  H
  H107     1.0000 0.40370  0.75290  0.43030  Biso   1.000  H
  H108     1.0000 0.59630  0.25290  0.06970  Biso   1.000  H
  H109     1.0000 0.90370  0.74710  0.56970  Biso   1.000  H
  H110     1.0000 0.90370  0.75290  0.06970  Biso   1.000  H
  H111     1.0000 0.59630  0.24710  0.56970  Biso   1.000  H
  H112     1.0000 0.40370  0.74710  0.93030  Biso   1.000  H
  H113     1.0000 0.09870  0.20310  0.48160  Biso   1.000  H
  H114     1.0000 0.09870  0.29690  0.98160  Biso   1.000  H
  H115     1.0000 0.40130  0.70310  0.48160  Biso   1.000  H
  H116     1.0000 0.59870  0.20310  0.01840  Biso   1.000  H
  H117     1.0000 0.90130  0.79690  0.51840  Biso   1.000  H
  H118     1.0000 0.90130  0.70310  0.01840  Biso   1.000  H
  H119     1.0000 0.59870  0.29690  0.51840  Biso   1.000  H
  H120     1.0000 0.40130  0.79690  0.98160  Biso   1.000  H
  H121     1.0000 0.11360  0.14920  0.43230  Biso   1.000  H
  H122     1.0000 0.11360  0.35080  0.93230  Biso   1.000  H
  H123     1.0000 0.38640  0.64920  0.43230  Biso   1.000  H
  H124     1.0000 0.61360  0.14920  0.06770  Biso   1.000  H
  H125     1.0000 0.88640  0.85080  0.56770  Biso   1.000  H
  H126     1.0000 0.88640  0.64920  0.06770  Biso   1.000  H
  H127     1.0000 0.61360  0.35080  0.56770  Biso   1.000  H
  H128     1.0000 0.38640  0.85080  0.93230  Biso   1.000  H
  O1       1.0000 0.32340  0.42480  0.53166  Biso   1.000  O
  O2       1.0000 0.32340  0.07520  0.03166  Biso   1.000  O
  O3       1.0000 0.17660  0.92480  0.53166  Biso   1.000  O
  O4       1.0000 0.82340  0.42480  0.96834  Biso   1.000  O
  O5       1.0000 0.67660  0.57520  0.46834  Biso   1.000  O
  O6       1.0000 0.67660  0.92480  0.96834  Biso   1.000  O
  O7       1.0000 0.82340  0.07520  0.46834  Biso   1.000  O
  O8       1.0000 0.17660  0.57520  0.03166  Biso   1.000  O
  C49      1.0000 0.38870  0.43020  0.50116  Biso   1.000  C
  C50      1.0000 0.38870  0.06980  0.00116  Biso   1.000  C
  C51      1.0000 0.11130  0.93020  0.50116  Biso   1.000  C
  C52      1.0000 0.88870  0.43020  0.99884  Biso   1.000  C
  C53      1.0000 0.61130  0.56980  0.49884  Biso   1.000  C
  C54      1.0000 0.61130  0.93020  0.99884  Biso   1.000  C
  C55      1.0000 0.88870  0.06980  0.49884  Biso   1.000  C
  C56      1.0000 0.11130  0.56980  0.00116  Biso   1.000  C
  O9       1.0000 0.39360  0.38380  0.46324  Biso   1.000  O
  O10      1.0000 0.39360  0.11620  0.96324  Biso   1.000  O
  O11      1.0000 0.10640  0.88380  0.46324  Biso   1.000  O
  O12      1.0000 0.89360  0.38380  0.03676  Biso   1.000  O
  O13      1.0000 0.60640  0.61620  0.53676  Biso   1.000  O
  O14      1.0000 0.60640  0.88380  0.03676  Biso   1.000  O
  O15      1.0000 0.89360  0.11620  0.53676  Biso   1.000  O
  O16      1.0000 0.10640  0.61620  0.96324  Biso   1.000  O
  C57      1.0000 0.46150  0.49690  0.51269  Biso   1.000  C
  C58      1.0000 0.46150  0.00310  0.01269  Biso   1.000  C
  C59      1.0000 0.03850  0.99690  0.51269  Biso   1.000  C
  C60      1.0000 0.96150  0.49690  0.98731  Biso   1.000  C
  C61      1.0000 0.53850  0.50310  0.48731  Biso   1.000  C
  C62      1.0000 0.53850  0.99690  0.98731  Biso   1.000  C
  C63      1.0000 0.96150  0.00310  0.48731  Biso   1.000  C
  C64      1.0000 0.03850  0.50310  0.01269  Biso   1.000  C
  H129     1.0000 0.45230  0.53620  0.53910  Biso   1.000  H
  H130     1.0000 0.45230  0.96380  0.03910  Biso   1.000  H
  H131     1.0000 0.04770  0.03620  0.53910  Biso   1.000  H
  H132     1.0000 0.95230  0.53620  0.96090  Biso   1.000  H
  H133     1.0000 0.54770  0.46380  0.46090  Biso   1.000  H
  H134     1.0000 0.54770  0.03620  0.96090  Biso   1.000  H
  H135     1.0000 0.95230  0.96380  0.46090  Biso   1.000  H
  H136     1.0000 0.04770  0.46380  0.03910  Biso   1.000  H
  O17      1.0000 0.16940  0.41220  0.46655  Biso   1.000  O
  O18      1.0000 0.16940  0.08780  0.96655  Biso   1.000  O
  O19      1.0000 0.33060  0.91220  0.46655  Biso   1.000  O
  O20      1.0000 0.66940  0.41220  0.03345  Biso   1.000  O
  O21      1.0000 0.83060  0.58780  0.53345  Biso   1.000  O
  O22      1.0000 0.83060  0.91220  0.03345  Biso   1.000  O
  O23      1.0000 0.66940  0.08780  0.53345  Biso   1.000  O
  O24      1.0000 0.33060  0.58780  0.96655  Biso   1.000  O
  C65      1.0000 0.10230  0.41810  0.49691  Biso   1.000  C
  C66      1.0000 0.10230  0.08190  0.99691  Biso   1.000  C
  C67      1.0000 0.39770  0.91810  0.49691  Biso   1.000  C
  C68      1.0000 0.60230  0.41810  0.00309  Biso   1.000  C
  C69      1.0000 0.89770  0.58190  0.50309  Biso   1.000  C
  C70      1.0000 0.89770  0.91810  0.00309  Biso   1.000  C
  C71      1.0000 0.60230  0.08190  0.50309  Biso   1.000  C
  C72      1.0000 0.39770  0.58190  0.99691  Biso   1.000  C
  O25      1.0000 0.09490  0.37060  0.53423  Biso   1.000  O
  O26      1.0000 0.09490  0.12940  0.03423  Biso   1.000  O
  O27      1.0000 0.40510  0.87060  0.53423  Biso   1.000  O
  O28      1.0000 0.59490  0.37060  0.96577  Biso   1.000  O
  O29      1.0000 0.90510  0.62940  0.46577  Biso   1.000  O
  O30      1.0000 0.90510  0.87060  0.96577  Biso   1.000  O
  O31      1.0000 0.59490  0.12940  0.46577  Biso   1.000  O
  O32      1.0000 0.40510  0.62940  0.03423  Biso   1.000  O
  C73      1.0000 0.03230  0.48740  0.48472  Biso   1.000  C
  C74      1.0000 0.03230  0.01260  0.98472  Biso   1.000  C
  C75      1.0000 0.46770  0.98740  0.48472  Biso   1.000  C
  C76      1.0000 0.53230  0.48740  0.01528  Biso   1.000  C
  C77      1.0000 0.96770  0.51260  0.51528  Biso   1.000  C
  C78      1.0000 0.96770  0.98740  0.01528  Biso   1.000  C
  C79      1.0000 0.53230  0.01260  0.51528  Biso   1.000  C
  C80      1.0000 0.46770  0.51260  0.98472  Biso   1.000  C
  H137     1.0000 0.03470  0.51430  0.45350  Biso   1.000  H
  H138     1.0000 0.03470  0.98570  0.95350  Biso   1.000  H
  H139     1.0000 0.46530  0.01430  0.45350  Biso   1.000  H
  H140     1.0000 0.53470  0.51430  0.04650  Biso   1.000  H
  H141     1.0000 0.96530  0.48570  0.54650  Biso   1.000  H
  H142     1.0000 0.96530  0.01430  0.04650  Biso   1.000  H
  H143     1.0000 0.53470  0.98570  0.54650  Biso   1.000  H
  H144     1.0000 0.46530  0.48570  0.95350  Biso   1.000  H
  Cu9      1.0000 0.42430  0.43955  0.74674  Biso   1.000  Cu
  Cu10     1.0000 0.42430  0.06045  0.24674  Biso   1.000  Cu
  Cu11     1.0000 0.07570  0.93955  0.74674  Biso   1.000  Cu
  Cu12     1.0000 0.92430  0.43955  0.75326  Biso   1.000  Cu
  Cu13     1.0000 0.57570  0.56045  0.25326  Biso   1.000  Cu
  Cu14     1.0000 0.57570  0.93955  0.75326  Biso   1.000  Cu
  Cu15     1.0000 0.92430  0.06045  0.25326  Biso   1.000  Cu
  Cu16     1.0000 0.07570  0.56045  0.24674  Biso   1.000  Cu
  N17      1.0000 0.52620  0.40290  0.79404  Biso   1.000  N
  N18      1.0000 0.52620  0.09710  0.29404  Biso   1.000  N
  N19      1.0000 0.97380  0.90290  0.79404  Biso   1.000  N
  N20      1.0000 0.02620  0.40290  0.70596  Biso   1.000  N
  N21      1.0000 0.47380  0.59710  0.20596  Biso   1.000  N
  N22      1.0000 0.47380  0.90290  0.70596  Biso   1.000  N
  N23      1.0000 0.02620  0.09710  0.20596  Biso   1.000  N
  N24      1.0000 0.97380  0.59710  0.29404  Biso   1.000  N
  C81      1.0000 0.50670  0.43940  0.84491  Biso   1.000  C
  C82      1.0000 0.50670  0.06060  0.34491  Biso   1.000  C
  C83      1.0000 0.99330  0.93940  0.84491  Biso   1.000  C
  C84      1.0000 0.00670  0.43940  0.65509  Biso   1.000  C
  C85      1.0000 0.49330  0.56060  0.15509  Biso   1.000  C
  C86      1.0000 0.49330  0.93940  0.65509  Biso   1.000  C
  C87      1.0000 0.00670  0.06060  0.15509  Biso   1.000  C
  C88      1.0000 0.99330  0.56060  0.34491  Biso   1.000  C
  H145     1.0000 0.45200  0.41260  0.85760  Biso   1.000  H
  H146     1.0000 0.45200  0.08740  0.35760  Biso   1.000  H
  H147     1.0000 0.04800  0.91260  0.85760  Biso   1.000  H
  H148     1.0000 0.95200  0.41260  0.64240  Biso   1.000  H
  H149     1.0000 0.54800  0.58740  0.14240  Biso   1.000  H
  H150     1.0000 0.54800  0.91260  0.64240  Biso   1.000  H
  H151     1.0000 0.95200  0.08740  0.14240  Biso   1.000  H
  H152     1.0000 0.04800  0.58740  0.35760  Biso   1.000  H
  H153     1.0000 0.49910  0.50330  0.84300  Biso   1.000  H
  H154     1.0000 0.49910  0.99670  0.34300  Biso   1.000  H
  H155     1.0000 0.00090  0.00330  0.84300  Biso   1.000  H
  H156     1.0000 0.99910  0.50330  0.65700  Biso   1.000  H
  H157     1.0000 0.50090  0.49670  0.15700  Biso   1.000  H
  H158     1.0000 0.50090  0.00330  0.65700  Biso   1.000  H
  H159     1.0000 0.99910  0.99670  0.15700  Biso   1.000  H
  H160     1.0000 0.00090  0.49670  0.34300  Biso   1.000  H
  H161     1.0000 0.55650  0.42560  0.86670  Biso   1.000  H
  H162     1.0000 0.55650  0.07440  0.36670  Biso   1.000  H
  H163     1.0000 0.94350  0.92560  0.86670  Biso   1.000  H
  H164     1.0000 0.05650  0.42560  0.63330  Biso   1.000  H
  H165     1.0000 0.44350  0.57440  0.13330  Biso   1.000  H
  H166     1.0000 0.44350  0.92560  0.63330  Biso   1.000  H
  H167     1.0000 0.05650  0.07440  0.13330  Biso   1.000  H
  H168     1.0000 0.94350  0.57440  0.36670  Biso   1.000  H
  C89      1.0000 0.53740  0.30320  0.79760  Biso   1.000  C
  C90      1.0000 0.53740  0.19680  0.29760  Biso   1.000  C
  C91      1.0000 0.96260  0.80320  0.79760  Biso   1.000  C
  C92      1.0000 0.03740  0.30320  0.70240  Biso   1.000  C
  C93      1.0000 0.46260  0.69680  0.20240  Biso   1.000  C
  C94      1.0000 0.46260  0.80320  0.70240  Biso   1.000  C
  C95      1.0000 0.03740  0.19680  0.20240  Biso   1.000  C
  C96      1.0000 0.96260  0.69680  0.29760  Biso   1.000  C
  H169     1.0000 0.48220  0.27690  0.80990  Biso   1.000  H
  H170     1.0000 0.48220  0.22310  0.30990  Biso   1.000  H
  H171     1.0000 0.01780  0.77690  0.80990  Biso   1.000  H
  H172     1.0000 0.98220  0.27690  0.69010  Biso   1.000  H
  H173     1.0000 0.51780  0.72310  0.19010  Biso   1.000  H
  H174     1.0000 0.51780  0.77690  0.69010  Biso   1.000  H
  H175     1.0000 0.98220  0.22310  0.19010  Biso   1.000  H
  H176     1.0000 0.01780  0.72310  0.30990  Biso   1.000  H
  H177     1.0000 0.58650  0.28950  0.81990  Biso   1.000  H
  H178     1.0000 0.58650  0.21050  0.31990  Biso   1.000  H
  H179     1.0000 0.91350  0.78950  0.81990  Biso   1.000  H
  H180     1.0000 0.08650  0.28950  0.68010  Biso   1.000  H
  H181     1.0000 0.41350  0.71050  0.18010  Biso   1.000  H
  H182     1.0000 0.41350  0.78950  0.68010  Biso   1.000  H
  H183     1.0000 0.08650  0.21050  0.18010  Biso   1.000  H
  H184     1.0000 0.91350  0.71050  0.31990  Biso   1.000  H
  H185     1.0000 0.55080  0.27930  0.76530  Biso   1.000  H
  H186     1.0000 0.55080  0.22070  0.26530  Biso   1.000  H
  H187     1.0000 0.94920  0.77930  0.76530  Biso   1.000  H
  H188     1.0000 0.05080  0.27930  0.73470  Biso   1.000  H
  H189     1.0000 0.44920  0.72070  0.23470  Biso   1.000  H
  H190     1.0000 0.44920  0.77930  0.73470  Biso   1.000  H
  H191     1.0000 0.05080  0.22070  0.23470  Biso   1.000  H
  H192     1.0000 0.94920  0.72070  0.26530  Biso   1.000  H
  C97      1.0000 0.60810  0.44450  0.77430  Biso   1.000  C
  C98      1.0000 0.60810  0.05550  0.27430  Biso   1.000  C
  C99      1.0000 0.89190  0.94450  0.77430  Biso   1.000  C
  C100     1.0000 0.10810  0.44450  0.72570  Biso   1.000  C
  C101     1.0000 0.39190  0.55550  0.22570  Biso   1.000  C
  C102     1.0000 0.39190  0.94450  0.72570  Biso   1.000  C
  C103     1.0000 0.10810  0.05550  0.22570  Biso   1.000  C
  C104     1.0000 0.89190  0.55550  0.27430  Biso   1.000  C
  H193     1.0000 0.66150  0.41450  0.78740  Biso   1.000  H
  H194     1.0000 0.66150  0.08550  0.28740  Biso   1.000  H
  H195     1.0000 0.83850  0.91450  0.78740  Biso   1.000  H
  H196     1.0000 0.16150  0.41450  0.71260  Biso   1.000  H
  H197     1.0000 0.33850  0.58550  0.21260  Biso   1.000  H
  H198     1.0000 0.33850  0.91450  0.71260  Biso   1.000  H
  H199     1.0000 0.16150  0.08550  0.21260  Biso   1.000  H
  H200     1.0000 0.83850  0.58550  0.28740  Biso   1.000  H
  H201     1.0000 0.61060  0.50710  0.78410  Biso   1.000  H
  H202     1.0000 0.61060  0.99290  0.28410  Biso   1.000  H
  H203     1.0000 0.88940  0.00710  0.78410  Biso   1.000  H
  H204     1.0000 0.11060  0.50710  0.71590  Biso   1.000  H
  H205     1.0000 0.38940  0.49290  0.21590  Biso   1.000  H
  H206     1.0000 0.38940  0.00710  0.71590  Biso   1.000  H
  H207     1.0000 0.11060  0.99290  0.21590  Biso   1.000  H
  H208     1.0000 0.88940  0.49290  0.28410  Biso   1.000  H
  C105     1.0000 0.60720  0.43740  0.71740  Biso   1.000  C
  C106     1.0000 0.60720  0.06260  0.21740  Biso   1.000  C
  C107     1.0000 0.89280  0.93740  0.71740  Biso   1.000  C
  C108     1.0000 0.10720  0.43740  0.78260  Biso   1.000  C
  C109     1.0000 0.39280  0.56260  0.28260  Biso   1.000  C
  C110     1.0000 0.39280  0.93740  0.78260  Biso   1.000  C
  C111     1.0000 0.10720  0.06260  0.28260  Biso   1.000  C
  C112     1.0000 0.89280  0.56260  0.21740  Biso   1.000  C
  H209     1.0000 0.66050  0.46670  0.70370  Biso   1.000  H
  H210     1.0000 0.66050  0.03330  0.20370  Biso   1.000  H
  H211     1.0000 0.83950  0.96670  0.70370  Biso   1.000  H
  H212     1.0000 0.16050  0.46670  0.79630  Biso   1.000  H
  H213     1.0000 0.33950  0.53330  0.29630  Biso   1.000  H
  H214     1.0000 0.33950  0.96670  0.79630  Biso   1.000  H
  H215     1.0000 0.16050  0.03330  0.29630  Biso   1.000  H
  H216     1.0000 0.83950  0.53330  0.20370  Biso   1.000  H
  H217     1.0000 0.60810  0.37480  0.70740  Biso   1.000  H
  H218     1.0000 0.60810  0.12520  0.20740  Biso   1.000  H
  H219     1.0000 0.89190  0.87480  0.70740  Biso   1.000  H
  H220     1.0000 0.10810  0.37480  0.79260  Biso   1.000  H
  H221     1.0000 0.39190  0.62520  0.29260  Biso   1.000  H
  H222     1.0000 0.39190  0.87480  0.79260  Biso   1.000  H
  H223     1.0000 0.10810  0.12520  0.29260  Biso   1.000  H
  H224     1.0000 0.89190  0.62520  0.20740  Biso   1.000  H
  N25      1.0000 0.52290  0.48160  0.69865  Biso   1.000  N
  N26      1.0000 0.52290  0.01840  0.19865  Biso   1.000  N
  N27      1.0000 0.97710  0.98160  0.69865  Biso   1.000  N
  N28      1.0000 0.02290  0.48160  0.80135  Biso   1.000  N
  N29      1.0000 0.47710  0.51840  0.30135  Biso   1.000  N
  N30      1.0000 0.47710  0.98160  0.80135  Biso   1.000  N
  N31      1.0000 0.02290  0.01840  0.30135  Biso   1.000  N
  N32      1.0000 0.97710  0.51840  0.19865  Biso   1.000  N
  C113     1.0000 0.50230  0.45010  0.64800  Biso   1.000  C
  C114     1.0000 0.50230  0.04990  0.14800  Biso   1.000  C
  C115     1.0000 0.99770  0.95010  0.64800  Biso   1.000  C
  C116     1.0000 0.00230  0.45010  0.85200  Biso   1.000  C
  C117     1.0000 0.49770  0.54990  0.35200  Biso   1.000  C
  C118     1.0000 0.49770  0.95010  0.85200  Biso   1.000  C
  C119     1.0000 0.00230  0.04990  0.35200  Biso   1.000  C
  C120     1.0000 0.99770  0.54990  0.14800  Biso   1.000  C
  H225     1.0000 0.44180  0.46820  0.63900  Biso   1.000  H
  H226     1.0000 0.44180  0.03180  0.13900  Biso   1.000  H
  H227     1.0000 0.05820  0.96820  0.63900  Biso   1.000  H
  H228     1.0000 0.94180  0.46820  0.86100  Biso   1.000  H
  H229     1.0000 0.55820  0.53180  0.36100  Biso   1.000  H
  H230     1.0000 0.55820  0.96820  0.86100  Biso   1.000  H
  H231     1.0000 0.94180  0.03180  0.36100  Biso   1.000  H
  H232     1.0000 0.05820  0.53180  0.13900  Biso   1.000  H
  H233     1.0000 0.50660  0.38580  0.64680  Biso   1.000  H
  H234     1.0000 0.50660  0.11420  0.14680  Biso   1.000  H
  H235     1.0000 0.99340  0.88580  0.64680  Biso   1.000  H
  H236     1.0000 0.00660  0.38580  0.85320  Biso   1.000  H
  H237     1.0000 0.49340  0.61420  0.35320  Biso   1.000  H
  H238     1.0000 0.49340  0.88580  0.85320  Biso   1.000  H
  H239     1.0000 0.00660  0.11420  0.35320  Biso   1.000  H
  H240     1.0000 0.99340  0.61420  0.14680  Biso   1.000  H
  H241     1.0000 0.54500  0.47580  0.62500  Biso   1.000  H
  H242     1.0000 0.54500  0.02420  0.12500  Biso   1.000  H
  H243     1.0000 0.95500  0.97580  0.62500  Biso   1.000  H
  H244     1.0000 0.04500  0.47580  0.87500  Biso   1.000  H
  H245     1.0000 0.45500  0.52420  0.37500  Biso   1.000  H
  H246     1.0000 0.45500  0.97580  0.87500  Biso   1.000  H
  H247     1.0000 0.04500  0.02420  0.37500  Biso   1.000  H
  H248     1.0000 0.95500  0.52420  0.12500  Biso   1.000  H
  C121     1.0000 0.53300  0.58120  0.69750  Biso   1.000  C
  C122     1.0000 0.53300  0.91880  0.19750  Biso   1.000  C
  C123     1.0000 0.96700  0.08120  0.69750  Biso   1.000  C
  C124     1.0000 0.03300  0.58120  0.80250  Biso   1.000  C
  C125     1.0000 0.46700  0.41880  0.30250  Biso   1.000  C
  C126     1.0000 0.46700  0.08120  0.80250  Biso   1.000  C
  C127     1.0000 0.03300  0.91880  0.30250  Biso   1.000  C
  C128     1.0000 0.96700  0.41880  0.19750  Biso   1.000  C
  H249     1.0000 0.54960  0.60230  0.73000  Biso   1.000  H
  H250     1.0000 0.54960  0.89770  0.23000  Biso   1.000  H
  H251     1.0000 0.95040  0.10230  0.73000  Biso   1.000  H
  H252     1.0000 0.04960  0.60230  0.77000  Biso   1.000  H
  H253     1.0000 0.45040  0.39770  0.27000  Biso   1.000  H
  H254     1.0000 0.45040  0.10230  0.77000  Biso   1.000  H
  H255     1.0000 0.04960  0.89770  0.27000  Biso   1.000  H
  H256     1.0000 0.95040  0.39770  0.23000  Biso   1.000  H
  H257     1.0000 0.47640  0.60790  0.68770  Biso   1.000  H
  H258     1.0000 0.47640  0.89210  0.18770  Biso   1.000  H
  H259     1.0000 0.02360  0.10790  0.68770  Biso   1.000  H
  H260     1.0000 0.97640  0.60790  0.81230  Biso   1.000  H
  H261     1.0000 0.52360  0.39210  0.31230  Biso   1.000  H
  H262     1.0000 0.52360  0.10790  0.81230  Biso   1.000  H
  H263     1.0000 0.97640  0.89210  0.31230  Biso   1.000  H
  H264     1.0000 0.02360  0.39210  0.18770  Biso   1.000  H
  H265     1.0000 0.57950  0.59730  0.67410  Biso   1.000  H
  H266     1.0000 0.57950  0.90270  0.17410  Biso   1.000  H
  H267     1.0000 0.92050  0.09730  0.67410  Biso   1.000  H
  H268     1.0000 0.07950  0.59730  0.82590  Biso   1.000  H
  H269     1.0000 0.42050  0.40270  0.32590  Biso   1.000  H
  H270     1.0000 0.42050  0.09730  0.82590  Biso   1.000  H
  H271     1.0000 0.07950  0.90270  0.32590  Biso   1.000  H
  H272     1.0000 0.92050  0.40270  0.17410  Biso   1.000  H
  O33      1.0000 0.32900  0.51630  0.71486  Biso   1.000  O
  O34      1.0000 0.32900  0.98370  0.21486  Biso   1.000  O
  O35      1.0000 0.17100  0.01630  0.71486  Biso   1.000  O
  O36      1.0000 0.82900  0.51630  0.78514  Biso   1.000  O
  O37      1.0000 0.67100  0.48370  0.28514  Biso   1.000  O
  O38      1.0000 0.67100  0.01630  0.78514  Biso   1.000  O
  O39      1.0000 0.82900  0.98370  0.28514  Biso   1.000  O
  O40      1.0000 0.17100  0.48370  0.21486  Biso   1.000  O
  C129     1.0000 0.32110  0.58000  0.74599  Biso   1.000  C
  C130     1.0000 0.32110  0.92000  0.24599  Biso   1.000  C
  C131     1.0000 0.17890  0.08000  0.74599  Biso   1.000  C
  C132     1.0000 0.82110  0.58000  0.75401  Biso   1.000  C
  C133     1.0000 0.67890  0.42000  0.25401  Biso   1.000  C
  C134     1.0000 0.67890  0.08000  0.75401  Biso   1.000  C
  C135     1.0000 0.82110  0.92000  0.25401  Biso   1.000  C
  C136     1.0000 0.17890  0.42000  0.24599  Biso   1.000  C
  O41      1.0000 0.36700  0.58450  0.78473  Biso   1.000  O
  O42      1.0000 0.36700  0.91550  0.28473  Biso   1.000  O
  O43      1.0000 0.13300  0.08450  0.78473  Biso   1.000  O
  O44      1.0000 0.86700  0.58450  0.71527  Biso   1.000  O
  O45      1.0000 0.63300  0.41550  0.21527  Biso   1.000  O
  O46      1.0000 0.63300  0.08450  0.71527  Biso   1.000  O
  O47      1.0000 0.86700  0.91550  0.21527  Biso   1.000  O
  O48      1.0000 0.13300  0.41550  0.28473  Biso   1.000  O
  C137     1.0000 0.25400  0.65180  0.73318  Biso   1.000  C
  C138     1.0000 0.25400  0.84820  0.23318  Biso   1.000  C
  C139     1.0000 0.24600  0.15180  0.73318  Biso   1.000  C
  C140     1.0000 0.75400  0.65180  0.76682  Biso   1.000  C
  C141     1.0000 0.74600  0.34820  0.26682  Biso   1.000  C
  C142     1.0000 0.74600  0.15180  0.76682  Biso   1.000  C
  C143     1.0000 0.75400  0.84820  0.26682  Biso   1.000  C
  C144     1.0000 0.24600  0.34820  0.23318  Biso   1.000  C
  H273     1.0000 0.22070  0.64560  0.70400  Biso   1.000  H
  H274     1.0000 0.22070  0.85440  0.20400  Biso   1.000  H
  H275     1.0000 0.27930  0.14560  0.70400  Biso   1.000  H
  H276     1.0000 0.72070  0.64560  0.79600  Biso   1.000  H
  H277     1.0000 0.77930  0.35440  0.29600  Biso   1.000  H
  H278     1.0000 0.77930  0.14560  0.79600  Biso   1.000  H
  H279     1.0000 0.72070  0.85440  0.29600  Biso   1.000  H
  H280     1.0000 0.27930  0.35440  0.20400  Biso   1.000  H
  C145     1.0000 0.23940  0.72330  0.76089  Biso   1.000  C
  C146     1.0000 0.23940  0.77670  0.26089  Biso   1.000  C
  C147     1.0000 0.26060  0.22330  0.76089  Biso   1.000  C
  C148     1.0000 0.73940  0.72330  0.73911  Biso   1.000  C
  C149     1.0000 0.76060  0.27670  0.23911  Biso   1.000  C
  C150     1.0000 0.76060  0.22330  0.73911  Biso   1.000  C
  C151     1.0000 0.73940  0.77670  0.23911  Biso   1.000  C
  C152     1.0000 0.26060  0.27670  0.26089  Biso   1.000  C
  H281     1.0000 0.27300  0.72960  0.79000  Biso   1.000  H
  H282     1.0000 0.27300  0.77040  0.29000  Biso   1.000  H
  H283     1.0000 0.22700  0.22960  0.79000  Biso   1.000  H
  H284     1.0000 0.77300  0.72960  0.71000  Biso   1.000  H
  H285     1.0000 0.72700  0.27040  0.21000  Biso   1.000  H
  H286     1.0000 0.72700  0.22960  0.71000  Biso   1.000  H
  H287     1.0000 0.77300  0.77040  0.21000  Biso   1.000  H
  H288     1.0000 0.22700  0.27040  0.29000  Biso   1.000  H
  C153     1.0000 0.17220  0.79480  0.74841  Biso   1.000  C
  C154     1.0000 0.17220  0.70520  0.24841  Biso   1.000  C
  C155     1.0000 0.32780  0.29480  0.74841  Biso   1.000  C
  C156     1.0000 0.67220  0.79480  0.75159  Biso   1.000  C
  C157     1.0000 0.82780  0.20520  0.25159  Biso   1.000  C
  C158     1.0000 0.82780  0.29480  0.75159  Biso   1.000  C
  C159     1.0000 0.67220  0.70520  0.25159  Biso   1.000  C
  C160     1.0000 0.32780  0.20520  0.24841  Biso   1.000  C
  O49      1.0000 0.16880  0.86150  0.77834  Biso   1.000  O
  O50      1.0000 0.16880  0.63850  0.27834  Biso   1.000  O
  O51      1.0000 0.33120  0.36150  0.77834  Biso   1.000  O
  O52      1.0000 0.66880  0.86150  0.72166  Biso   1.000  O
  O53      1.0000 0.83120  0.13850  0.22166  Biso   1.000  O
  O54      1.0000 0.83120  0.36150  0.72166  Biso   1.000  O
  O55      1.0000 0.66880  0.63850  0.22166  Biso   1.000  O
  O56      1.0000 0.33120  0.13850  0.27834  Biso   1.000  O
  O57      1.0000 0.12340  0.78840  0.71108  Biso   1.000  O
  O58      1.0000 0.12340  0.71160  0.21108  Biso   1.000  O
  O59      1.0000 0.37660  0.28840  0.71108  Biso   1.000  O
  O60      1.0000 0.62340  0.78840  0.78892  Biso   1.000  O
  O61      1.0000 0.87660  0.21160  0.28892  Biso   1.000  O
  O62      1.0000 0.87660  0.28840  0.78892  Biso   1.000  O
  O63      1.0000 0.62340  0.71160  0.28892  Biso   1.000  O
  O64      1.0000 0.37660  0.21160  0.21108  Biso   1.000  O
  O65      1.0000 0.47710  0.70420  0.83900  Biso   1.000  O
  O66      1.0000 0.47710  0.79580  0.33900  Biso   1.000  O
  O67      1.0000 0.02290  0.20420  0.83900  Biso   1.000  O
  O68      1.0000 0.97710  0.70420  0.66100  Biso   1.000  O
  O69      1.0000 0.52290  0.29580  0.16100  Biso   1.000  O
  O70      1.0000 0.52290  0.20420  0.66100  Biso   1.000  O
  O71      1.0000 0.97710  0.79580  0.16100  Biso   1.000  O
  O72      1.0000 0.02290  0.29580  0.33900  Biso   1.000  O
  O73      1.0000 0.23900  0.48920  0.37449  Biso   1.000  O
  O74      1.0000 0.23900  0.01080  0.87449  Biso   1.000  O
  O75      1.0000 0.26100  0.98920  0.37449  Biso   1.000  O
  O76      1.0000 0.73900  0.48920  0.12551  Biso   1.000  O
  O77      1.0000 0.76100  0.51080  0.62551  Biso   1.000  O
  O78      1.0000 0.76100  0.98920  0.12551  Biso   1.000  O
  O79      1.0000 0.73900  0.01080  0.62551  Biso   1.000  O
  O80      1.0000 0.26100  0.51080  0.87449  Biso   1.000  O
  O81      1.0000 0.02650  0.21500  0.58689  Biso   1.000  O
  O82      1.0000 0.02650  0.28500  0.08689  Biso   1.000  O
  O83      1.0000 0.47350  0.71500  0.58689  Biso   1.000  O
  O84      1.0000 0.52650  0.21500  0.91311  Biso   1.000  O
  O85      1.0000 0.97350  0.78500  0.41311  Biso   1.000  O
  O86      1.0000 0.97350  0.71500  0.91311  Biso   1.000  O
  O87      1.0000 0.52650  0.28500  0.41311  Biso   1.000  O
  O88      1.0000 0.47350  0.78500  0.08689  Biso   1.000  O
  O89      1.0000 0.23660  0.49890  0.62270  Biso   1.000  O
  O90      1.0000 0.23660  0.00110  0.12270  Biso   1.000  O
  O91      1.0000 0.26340  0.99890  0.62270  Biso   1.000  O
  O92      1.0000 0.73660  0.49890  0.87730  Biso   1.000  O
  O93      1.0000 0.76340  0.50110  0.37730  Biso   1.000  O
  O94      1.0000 0.76340  0.99890  0.87730  Biso   1.000  O
  O95      1.0000 0.73660  0.00110  0.37730  Biso   1.000  O
  O96      1.0000 0.26340  0.50110  0.12270  Biso   1.000  O
