data_image0
_cell_length_a       9.117
_cell_length_b       10.585
_cell_length_c       11.269
_cell_angle_alpha    84.793
_cell_angle_beta     71.976
_cell_angle_gamma    73.031

_symmetry_space_group_name_H-M    "P 1"
_symmetry_int_tables_number       1

loop_
  _symmetry_equiv_pos_as_xyz
  'x, y, z'

loop_
  _atom_site_label
  _atom_site_occupancy
  _atom_site_fract_x
  _atom_site_fract_y
  _atom_site_fract_z
  _atom_site_thermal_displace_type
  _atom_site_B_iso_or_equiv
  _atom_site_type_symbol
  H1       1.0000 0.25100  0.97500  0.29600  Biso   1.000  H
  H2       1.0000 0.74900  0.02500  0.70400  Biso   1.000  H
  H3       1.0000 0.35600  0.01000  0.21300  Biso   1.000  H
  H4       1.0000 0.64400  0.99000  0.78700  Biso   1.000  H
  Cu1      1.0000 0.11150  0.23241  0.28052  Biso   1.000  Cu
  Cu2      1.0000 0.88850  0.76759  0.71948  Biso   1.000  Cu
  N1       1.0000 0.22640  0.27682  0.38907  Biso   1.000  N
  N2       1.0000 0.77360  0.72318  0.61093  Biso   1.000  N
  N3       1.0000 0.22380  0.32702  0.13472  Biso   1.000  N
  N4       1.0000 0.77620  0.67298  0.86528  Biso   1.000  N
  C1       1.0000 0.20350  0.40200  0.41690  Biso   1.000  C
  C2       1.0000 0.79650  0.59800  0.58310  Biso   1.000  C
  H5       1.0000 0.14760  0.46840  0.37430  Biso   1.000  H
  H6       1.0000 0.85240  0.53160  0.62570  Biso   1.000  H
  C3       1.0000 0.25910  0.43760  0.50620  Biso   1.000  C
  C4       1.0000 0.74090  0.56240  0.49380  Biso   1.000  C
  H7       1.0000 0.23880  0.52640  0.52370  Biso   1.000  H
  H8       1.0000 0.76120  0.47360  0.47630  Biso   1.000  H
  C5       1.0000 0.34460  0.34140  0.56950  Biso   1.000  C
  C6       1.0000 0.65540  0.65860  0.43050  Biso   1.000  C
  C7       1.0000 0.36960  0.21180  0.53890  Biso   1.000  C
  C8       1.0000 0.63040  0.78820  0.46110  Biso   1.000  C
  H9       1.0000 0.42820  0.14360  0.57820  Biso   1.000  H
  H10      1.0000 0.57180  0.85640  0.42180  Biso   1.000  H
  C9       1.0000 0.30850  0.18310  0.45110  Biso   1.000  C
  C10      1.0000 0.69150  0.81690  0.54890  Biso   1.000  C
  H11      1.0000 0.32460  0.09500  0.43370  Biso   1.000  H
  H12      1.0000 0.67540  0.90500  0.56630  Biso   1.000  H
  C11      1.0000 0.41080  0.36770  0.66850  Biso   1.000  C
  C12      1.0000 0.58920  0.63230  0.33150  Biso   1.000  C
  H13      1.0000 0.52660  0.33170  0.64020  Biso   1.000  H
  H14      1.0000 0.47340  0.66830  0.35980  Biso   1.000  H
  H15      1.0000 0.37060  0.31940  0.74300  Biso   1.000  H
  H16      1.0000 0.62940  0.68060  0.25700  Biso   1.000  H
  C13      1.0000 0.37320  0.51010  0.70430  Biso   1.000  C
  C14      1.0000 0.62680  0.48990  0.29570  Biso   1.000  C
  H17      1.0000 0.25760  0.54790  0.73320  Biso   1.000  H
  H18      1.0000 0.74240  0.45210  0.26680  Biso   1.000  H
  H19      1.0000 0.41580  0.55950  0.63150  Biso   1.000  H
  H20      1.0000 0.58420  0.44050  0.36850  Biso   1.000  H
  C15      1.0000 0.44570  0.52260  0.80760  Biso   1.000  C
  C16      1.0000 0.55430  0.47740  0.19240  Biso   1.000  C
  H21      1.0000 0.56080  0.48240  0.77990  Biso   1.000  H
  H22      1.0000 0.43920  0.51760  0.22010  Biso   1.000  H
  H23      1.0000 0.42690  0.61530  0.82410  Biso   1.000  H
  H24      1.0000 0.57310  0.38470  0.17590  Biso   1.000  H
  C17      1.0000 0.14950  0.44790  0.10280  Biso   1.000  C
  C18      1.0000 0.85050  0.55210  0.89720  Biso   1.000  C
  H25      1.0000 0.04610  0.48870  0.15200  Biso   1.000  H
  H26      1.0000 0.95390  0.51130  0.84800  Biso   1.000  H
  C19      1.0000 0.21850  0.51450  0.00080  Biso   1.000  C
  C20      1.0000 0.78150  0.48550  0.99920  Biso   1.000  C
  H27      1.0000 0.16230  0.59860  0.98240  Biso   1.000  H
  H28      1.0000 0.83770  0.40140  0.01760  Biso   1.000  H
  C21      1.0000 0.37230  0.45660  0.92512  Biso   1.000  C
  C22      1.0000 0.62770  0.54340  0.07488  Biso   1.000  C
  C23      1.0000 0.45020  0.33340  0.96070  Biso   1.000  C
  C24      1.0000 0.54980  0.66660  0.03930  Biso   1.000  C
  H29      1.0000 0.55500  0.29180  0.91470  Biso   1.000  H
  H30      1.0000 0.44500  0.70820  0.08530  Biso   1.000  H
  C25      1.0000 0.37380  0.27190  0.06390  Biso   1.000  C
  C26      1.0000 0.62620  0.72810  0.93610  Biso   1.000  C
  H31      1.0000 0.42850  0.18860  0.08540  Biso   1.000  H
  H32      1.0000 0.57150  0.81140  0.91460  Biso   1.000  H
  O1       1.0000 0.96100  0.19733  0.43476  Biso   1.000  O
  O2       1.0000 0.03900  0.80267  0.56524  Biso   1.000  O
  O3       1.0000 0.76380  0.12080  0.55124  Biso   1.000  O
  O4       1.0000 0.23620  0.87920  0.44876  Biso   1.000  O
  C27      1.0000 0.85660  0.13570  0.44880  Biso   1.000  C
  C28      1.0000 0.14340  0.86430  0.55120  Biso   1.000  C
  C29      1.0000 0.84640  0.07640  0.33620  Biso   1.000  C
  C30      1.0000 0.15360  0.92360  0.66380  Biso   1.000  C
  H33      1.0000 0.74220  0.05960  0.35780  Biso   1.000  H
  H34      1.0000 0.25780  0.94040  0.64220  Biso   1.000  H
  H35      1.0000 0.92670  0.99140  0.32050  Biso   1.000  H
  H36      1.0000 0.07330  0.00860  0.67950  Biso   1.000  H
  C31      1.0000 0.86810  0.15310  0.21510  Biso   1.000  C
  C32      1.0000 0.13190  0.84690  0.78490  Biso   1.000  C
  O5       1.0000 0.97660  0.21418  0.18217  Biso   1.000  O
  O6       1.0000 0.02340  0.78582  0.81783  Biso   1.000  O
  O7       1.0000 0.78180  0.15238  0.15020  Biso   1.000  O
  O8       1.0000 0.21820  0.84762  0.84980  Biso   1.000  O
  O9       1.0000 0.27110  0.01834  0.23344  Biso   1.000  O
  O10      1.0000 0.72890  0.98166  0.76656  Biso   1.000  O
  H37      1.0000 0.85900  0.75600  0.16400  Biso   1.000  H
  H38      1.0000 0.14100  0.24400  0.83600  Biso   1.000  H
  H39      1.0000 0.93400  0.76900  0.01100  Biso   1.000  H
  H40      1.0000 0.06600  0.23100  0.98900  Biso   1.000  H
  O11      1.0000 0.87110  0.78350  0.08820  Biso   1.000  O
  O12      1.0000 0.12890  0.21650  0.91180  Biso   1.000  O
  H41      1.0000 0.16700  0.86600  0.03300  Biso   1.000  H
  H42      1.0000 0.83300  0.13400  0.96700  Biso   1.000  H
  H43      1.0000 0.19200  0.91500  0.11900  Biso   1.000  H
  H44      1.0000 0.80800  0.08500  0.88100  Biso   1.000  H
  O13      1.0000 0.15010  0.86810  0.10630  Biso   1.000  O
  O14      1.0000 0.84990  0.13190  0.89370  Biso   1.000  O
  H45      1.0000 0.63000  0.04300  0.18100  Biso   1.000  H
  H46      1.0000 0.37000  0.95700  0.81900  Biso   1.000  H
  H47      1.0000 0.66800  0.91100  0.15000  Biso   1.000  H
  H48      1.0000 0.33200  0.08900  0.85000  Biso   1.000  H
  O15      1.0000 0.59110  0.98410  0.17510  Biso   1.000  O
  O16      1.0000 0.40890  0.01590  0.82490  Biso   1.000  O
  H49      1.0000 0.12100  0.73900  0.23900  Biso   1.000  H
  H50      1.0000 0.87900  0.26100  0.76100  Biso   1.000  H
  H51      1.0000 0.08000  0.73200  0.37200  Biso   1.000  H
  H52      1.0000 0.92000  0.26800  0.62800  Biso   1.000  H
  O17      1.0000 0.08610  0.69520  0.31390  Biso   1.000  O
  O18      1.0000 0.91390  0.30480  0.68610  Biso   1.000  O
