data_image0
_cell_length_a       9.1662
_cell_length_b       10.6266
_cell_length_c       11.3056
_cell_angle_alpha    84.639
_cell_angle_beta     72.103
_cell_angle_gamma    73.042

_symmetry_space_group_name_H-M    "P 1"
_symmetry_int_tables_number       1

loop_
  _symmetry_equiv_pos_as_xyz
  'x, y, z'

loop_
  _atom_site_label
  _atom_site_occupancy
  _atom_site_fract_x
  _atom_site_fract_y
  _atom_site_fract_z
  _atom_site_thermal_displace_type
  _atom_site_B_iso_or_equiv
  _atom_site_type_symbol
  Cu1      1.0000 0.11205  0.73289  0.28062  Biso   1.000  Cu
  Cu2      1.0000 0.88795  0.26711  0.71938  Biso   1.000  Cu
  O1       1.0000 0.97760  0.71420  0.18298  Biso   1.000  O
  O2       1.0000 0.02240  0.28580  0.81702  Biso   1.000  O
  O3       1.0000 0.84750  0.63170  0.89510  Biso   1.000  O
  O4       1.0000 0.15250  0.36830  0.10490  Biso   1.000  O
  H1       1.0000 0.82400  0.63500  0.97060  Biso   1.000  H
  H2       1.0000 0.17600  0.36500  0.02940  Biso   1.000  H
  H3       1.0000 0.80500  0.58000  0.88100  Biso   1.000  H
  H4       1.0000 0.19500  0.42000  0.11900  Biso   1.000  H
  O5       1.0000 0.78330  0.65260  0.15100  Biso   1.000  O
  O6       1.0000 0.21670  0.34740  0.84900  Biso   1.000  O
  O7       1.0000 0.91520  0.80380  0.68720  Biso   1.000  O
  O8       1.0000 0.08480  0.19620  0.31280  Biso   1.000  O
  H5       1.0000 0.87300  0.76500  0.74800  Biso   1.000  H
  H6       1.0000 0.12700  0.23500  0.25200  Biso   1.000  H
  H7       1.0000 0.91200  0.76400  0.63000  Biso   1.000  H
  H8       1.0000 0.08800  0.23600  0.37000  Biso   1.000  H
  O9       1.0000 0.96220  0.69860  0.43486  Biso   1.000  O
  O10      1.0000 0.03780  0.30140  0.56514  Biso   1.000  O
  O11      1.0000 0.12910  0.71730  0.91190  Biso   1.000  O
  O12      1.0000 0.87090  0.28270  0.08810  Biso   1.000  O
  H9       1.0000 0.13400  0.74500  0.83900  Biso   1.000  H
  H10      1.0000 0.86600  0.25500  0.16100  Biso   1.000  H
  H11      1.0000 0.07500  0.66600  0.91800  Biso   1.000  H
  H12      1.0000 0.92500  0.33400  0.08200  Biso   1.000  H
  O13      1.0000 0.76640  0.62170  0.55076  Biso   1.000  O
  O14      1.0000 0.23360  0.37830  0.44924  Biso   1.000  O
  O15      1.0000 0.59190  0.48460  0.17630  Biso   1.000  O
  O16      1.0000 0.40810  0.51540  0.82370  Biso   1.000  O
  H13      1.0000 0.63500  0.54200  0.17700  Biso   1.000  H
  H14      1.0000 0.36500  0.45800  0.82300  Biso   1.000  H
  H15      1.0000 0.66000  0.41500  0.15400  Biso   1.000  H
  H16      1.0000 0.34000  0.58500  0.84600  Biso   1.000  H
  O17      1.0000 0.27310  0.51840  0.23422  Biso   1.000  O
  O18      1.0000 0.72690  0.48160  0.76578  Biso   1.000  O
  H17      1.0000 0.37000  0.50400  0.21400  Biso   1.000  H
  H18      1.0000 0.63000  0.49600  0.78600  Biso   1.000  H
  H19      1.0000 0.25900  0.47300  0.29600  Biso   1.000  H
  H20      1.0000 0.74100  0.52700  0.70400  Biso   1.000  H
  N1       1.0000 0.22410  0.82710  0.13490  Biso   1.000  N
  N2       1.0000 0.77590  0.17290  0.86510  Biso   1.000  N
  N3       1.0000 0.22720  0.77720  0.38880  Biso   1.000  N
  N4       1.0000 0.77280  0.22280  0.61120  Biso   1.000  N
  C1       1.0000 0.86980  0.65320  0.21600  Biso   1.000  C
  C2       1.0000 0.13020  0.34680  0.78400  Biso   1.000  C
  C3       1.0000 0.84870  0.57670  0.33670  Biso   1.000  C
  C4       1.0000 0.15130  0.42330  0.66330  Biso   1.000  C
  H21      1.0000 0.74540  0.55940  0.35820  Biso   1.000  H
  H22      1.0000 0.25460  0.44060  0.64180  Biso   1.000  H
  H23      1.0000 0.92890  0.49230  0.32150  Biso   1.000  H
  H24      1.0000 0.07110  0.50770  0.67850  Biso   1.000  H
  C5       1.0000 0.85850  0.63690  0.44870  Biso   1.000  C
  C6       1.0000 0.14150  0.36310  0.55130  Biso   1.000  C
  C7       1.0000 0.15000  0.94750  0.10200  Biso   1.000  C
  C8       1.0000 0.85000  0.05250  0.89800  Biso   1.000  C
  H25      1.0000 0.04720  0.98800  0.15060  Biso   1.000  H
  H26      1.0000 0.95280  0.01200  0.84940  Biso   1.000  H
  C9       1.0000 0.21860  0.01390  0.00000  Biso   1.000  C
  C10      1.0000 0.78140  0.98610  0.00000  Biso   1.000  C
  H27      1.0000 0.16260  0.09750  0.98100  Biso   1.000  H
  H28      1.0000 0.83740  0.90250  0.01900  Biso   1.000  H
  C11      1.0000 0.37180  0.95610  0.92520  Biso   1.000  C
  C12      1.0000 0.62820  0.04390  0.07480  Biso   1.000  C
  C13      1.0000 0.44910  0.83340  0.96120  Biso   1.000  C
  C14      1.0000 0.55090  0.16660  0.03880  Biso   1.000  C
  H29      1.0000 0.55310  0.79180  0.91540  Biso   1.000  H
  H30      1.0000 0.44690  0.20820  0.08460  Biso   1.000  H
  C15      1.0000 0.37290  0.77270  0.06430  Biso   1.000  C
  C16      1.0000 0.62710  0.22730  0.93570  Biso   1.000  C
  H31      1.0000 0.42740  0.68980  0.08620  Biso   1.000  H
  H32      1.0000 0.57260  0.31020  0.91380  Biso   1.000  H
  C17      1.0000 0.44430  0.02220  0.80780  Biso   1.000  C
  C18      1.0000 0.55570  0.97780  0.19220  Biso   1.000  C
  H33      1.0000 0.55870  0.98240  0.78040  Biso   1.000  H
  H34      1.0000 0.44130  0.01760  0.21960  Biso   1.000  H
  H35      1.0000 0.42560  0.11450  0.82410  Biso   1.000  H
  H36      1.0000 0.57440  0.88550  0.17590  Biso   1.000  H
  C19      1.0000 0.37250  0.01010  0.70410  Biso   1.000  C
  C20      1.0000 0.62750  0.98990  0.29590  Biso   1.000  C
  H37      1.0000 0.25750  0.04670  0.73270  Biso   1.000  H
  H38      1.0000 0.74250  0.95330  0.26730  Biso   1.000  H
  H39      1.0000 0.41420  0.06020  0.63200  Biso   1.000  H
  H40      1.0000 0.58580  0.93980  0.36800  Biso   1.000  H
  C21      1.0000 0.41190  0.86820  0.66780  Biso   1.000  C
  C22      1.0000 0.58810  0.13180  0.33220  Biso   1.000  C
  H41      1.0000 0.37380  0.81900  0.74190  Biso   1.000  H
  H42      1.0000 0.62620  0.18100  0.25810  Biso   1.000  H
  H43      1.0000 0.52710  0.83370  0.63890  Biso   1.000  H
  H44      1.0000 0.47290  0.16630  0.36110  Biso   1.000  H
  C23      1.0000 0.34470  0.84200  0.56920  Biso   1.000  C
  C24      1.0000 0.65530  0.15800  0.43080  Biso   1.000  C
  C25      1.0000 0.25860  0.93800  0.50640  Biso   1.000  C
  C26      1.0000 0.74140  0.06200  0.49360  Biso   1.000  C
  H45      1.0000 0.23780  0.02640  0.52420  Biso   1.000  H
  H46      1.0000 0.76220  0.97360  0.47580  Biso   1.000  H
  C27      1.0000 0.20340  0.90260  0.41690  Biso   1.000  C
  C28      1.0000 0.79660  0.09740  0.58310  Biso   1.000  C
  H47      1.0000 0.14750  0.96880  0.37450  Biso   1.000  H
  H48      1.0000 0.85250  0.03120  0.62550  Biso   1.000  H
  C29      1.0000 0.31040  0.68380  0.45060  Biso   1.000  C
  C30      1.0000 0.68960  0.31620  0.54940  Biso   1.000  C
  H49      1.0000 0.32760  0.59600  0.43310  Biso   1.000  H
  H50      1.0000 0.67240  0.40400  0.56690  Biso   1.000  H
  C31      1.0000 0.37070  0.71250  0.53800  Biso   1.000  C
  C32      1.0000 0.62930  0.28750  0.46200  Biso   1.000  C
  H51      1.0000 0.42960  0.64470  0.57690  Biso   1.000  H
  H52      1.0000 0.57040  0.35530  0.42310  Biso   1.000  H
