data_image0
_cell_length_a       16.3859
_cell_length_b       19.032
_cell_length_c       19.0368
_cell_angle_alpha    90
_cell_angle_beta     90
_cell_angle_gamma    90

_symmetry_space_group_name_H-M    "P 1"
_symmetry_int_tables_number       1

loop_
  _symmetry_equiv_pos_as_xyz
  'x, y, z'

loop_
  _atom_site_label
  _atom_site_occupancy
  _atom_site_fract_x
  _atom_site_fract_y
  _atom_site_fract_z
  _atom_site_thermal_displace_type
  _atom_site_B_iso_or_equiv
  _atom_site_type_symbol
  Tb1      1.0000 0.59776  0.28000  0.01354  Biso   1.000  Tb
  Tb2      1.0000 0.90224  0.22000  0.51354  Biso   1.000  Tb
  Tb3      1.0000 0.40224  0.28000  0.48646  Biso   1.000  Tb
  Tb4      1.0000 0.09776  0.22000  0.98646  Biso   1.000  Tb
  Tb5      1.0000 0.40224  0.72000  0.98646  Biso   1.000  Tb
  Tb6      1.0000 0.09776  0.78000  0.48646  Biso   1.000  Tb
  Tb7      1.0000 0.59776  0.72000  0.51354  Biso   1.000  Tb
  Tb8      1.0000 0.90224  0.78000  0.01354  Biso   1.000  Tb
  Cu1      1.0000 0.72368  0.17405  0.90769  Biso   1.000  Cu
  Cu2      1.0000 0.77632  0.32595  0.40769  Biso   1.000  Cu
  Cu3      1.0000 0.27632  0.17405  0.59231  Biso   1.000  Cu
  Cu4      1.0000 0.22368  0.32595  0.09231  Biso   1.000  Cu
  Cu5      1.0000 0.27632  0.82595  0.09231  Biso   1.000  Cu
  Cu6      1.0000 0.22368  0.67405  0.59231  Biso   1.000  Cu
  Cu7      1.0000 0.72368  0.82595  0.40769  Biso   1.000  Cu
  Cu8      1.0000 0.77632  0.67405  0.90769  Biso   1.000  Cu
  O1       1.0000 0.65251  0.16448  0.98960  Biso   1.000  O
  O2       1.0000 0.84749  0.33552  0.48960  Biso   1.000  O
  O3       1.0000 0.34749  0.16448  0.51040  Biso   1.000  O
  O4       1.0000 0.15251  0.33552  0.01040  Biso   1.000  O
  O5       1.0000 0.34749  0.83552  0.01040  Biso   1.000  O
  O6       1.0000 0.15251  0.66448  0.51040  Biso   1.000  O
  O7       1.0000 0.65251  0.83552  0.48960  Biso   1.000  O
  O8       1.0000 0.84749  0.66448  0.98960  Biso   1.000  O
  O9       1.0000 0.55818  0.18264  0.09816  Biso   1.000  O
  O10      1.0000 0.94182  0.31736  0.59816  Biso   1.000  O
  O11      1.0000 0.44182  0.18264  0.40184  Biso   1.000  O
  O12      1.0000 0.05818  0.31736  0.90184  Biso   1.000  O
  O13      1.0000 0.44182  0.81736  0.90184  Biso   1.000  O
  O14      1.0000 0.05818  0.68264  0.40184  Biso   1.000  O
  O15      1.0000 0.55818  0.81736  0.59816  Biso   1.000  O
  O16      1.0000 0.94182  0.68264  0.09816  Biso   1.000  O
  O17      1.0000 0.65797  0.25953  0.90223  Biso   1.000  O
  O18      1.0000 0.84203  0.24047  0.40223  Biso   1.000  O
  O19      1.0000 0.34203  0.25953  0.59777  Biso   1.000  O
  O20      1.0000 0.15797  0.24047  0.09777  Biso   1.000  O
  O21      1.0000 0.34203  0.74047  0.09777  Biso   1.000  O
  O22      1.0000 0.15797  0.75953  0.59777  Biso   1.000  O
  O23      1.0000 0.65797  0.74047  0.40223  Biso   1.000  O
  O24      1.0000 0.84203  0.75953  0.90223  Biso   1.000  O
  O25      1.0000 0.55595  0.36184  0.91721  Biso   1.000  O
  O26      1.0000 0.94405  0.13816  0.41721  Biso   1.000  O
  O27      1.0000 0.44405  0.36184  0.58279  Biso   1.000  O
  O28      1.0000 0.05595  0.13816  0.08279  Biso   1.000  O
  O29      1.0000 0.44405  0.63816  0.08279  Biso   1.000  O
  O30      1.0000 0.05595  0.86184  0.58279  Biso   1.000  O
  O31      1.0000 0.55595  0.63816  0.41721  Biso   1.000  O
  O32      1.0000 0.94405  0.86184  0.91721  Biso   1.000  O
  O33      1.0000 0.32996  0.26288  0.04503  Biso   1.000  O
  O34      1.0000 0.17004  0.23712  0.54503  Biso   1.000  O
  O35      1.0000 0.67004  0.26288  0.45497  Biso   1.000  O
  O36      1.0000 0.82996  0.23712  0.95497  Biso   1.000  O
  O37      1.0000 0.67004  0.73712  0.95497  Biso   1.000  O
  O38      1.0000 0.82996  0.76288  0.45497  Biso   1.000  O
  O39      1.0000 0.32996  0.73712  0.54503  Biso   1.000  O
  O40      1.0000 0.17004  0.76288  0.04503  Biso   1.000  O
  O41      1.0000 0.46091  0.29453  0.04112  Biso   1.000  O
  O42      1.0000 0.03909  0.20547  0.54112  Biso   1.000  O
  O43      1.0000 0.53909  0.29453  0.45888  Biso   1.000  O
  O44      1.0000 0.96091  0.20547  0.95888  Biso   1.000  O
  O45      1.0000 0.53909  0.70547  0.95888  Biso   1.000  O
  O46      1.0000 0.96091  0.79453  0.45888  Biso   1.000  O
  O47      1.0000 0.46091  0.70547  0.54112  Biso   1.000  O
  O48      1.0000 0.03909  0.79453  0.04112  Biso   1.000  O
  O49      1.0000 0.21782  0.24857  0.91222  Biso   1.000  O
  O50      1.0000 0.28218  0.25143  0.41222  Biso   1.000  O
  O51      1.0000 0.78218  0.24857  0.58778  Biso   1.000  O
  O52      1.0000 0.71782  0.25143  0.08778  Biso   1.000  O
  O53      1.0000 0.78218  0.75143  0.08778  Biso   1.000  O
  O54      1.0000 0.71782  0.74857  0.58778  Biso   1.000  O
  O55      1.0000 0.21782  0.75143  0.41222  Biso   1.000  O
  O56      1.0000 0.28218  0.74857  0.91222  Biso   1.000  O
  O57      1.0000 0.22590  0.15364  0.97790  Biso   1.000  O
  O58      1.0000 0.27410  0.34636  0.47790  Biso   1.000  O
  O59      1.0000 0.77410  0.15364  0.52210  Biso   1.000  O
  O60      1.0000 0.72590  0.34636  0.02210  Biso   1.000  O
  O61      1.0000 0.77410  0.84636  0.02210  Biso   1.000  O
  O62      1.0000 0.72590  0.65364  0.52210  Biso   1.000  O
  O63      1.0000 0.22590  0.84636  0.47790  Biso   1.000  O
  O64      1.0000 0.27410  0.65364  0.97790  Biso   1.000  O
  O65      1.0000 0.58890  0.33566  0.13297  Biso   1.000  O
  O66      1.0000 0.91110  0.16434  0.63297  Biso   1.000  O
  O67      1.0000 0.41110  0.33566  0.36703  Biso   1.000  O
  O68      1.0000 0.08890  0.16434  0.86703  Biso   1.000  O
  O69      1.0000 0.41110  0.66434  0.86703  Biso   1.000  O
  O70      1.0000 0.08890  0.83566  0.36703  Biso   1.000  O
  O71      1.0000 0.58890  0.66434  0.63297  Biso   1.000  O
  O72      1.0000 0.91110  0.83566  0.13297  Biso   1.000  O
  O73      1.0000 0.57270  0.41088  0.04980  Biso   1.000  O
  O74      1.0000 0.92730  0.08912  0.54980  Biso   1.000  O
  O75      1.0000 0.42730  0.41088  0.45020  Biso   1.000  O
  O76      1.0000 0.07270  0.08912  0.95020  Biso   1.000  O
  O77      1.0000 0.42730  0.58912  0.95020  Biso   1.000  O
  O78      1.0000 0.07270  0.91088  0.45020  Biso   1.000  O
  O79      1.0000 0.57270  0.58912  0.54980  Biso   1.000  O
  O80      1.0000 0.92730  0.91088  0.04980  Biso   1.000  O
  O81      1.0000 0.57040  0.44540  0.15867  Biso   1.000  O
  O82      1.0000 0.92960  0.05460  0.65867  Biso   1.000  O
  O83      1.0000 0.42960  0.44540  0.34133  Biso   1.000  O
  O84      1.0000 0.07040  0.05460  0.84133  Biso   1.000  O
  O85      1.0000 0.42960  0.55460  0.84133  Biso   1.000  O
  O86      1.0000 0.07040  0.94540  0.34133  Biso   1.000  O
  O87      1.0000 0.57040  0.55460  0.65867  Biso   1.000  O
  O88      1.0000 0.92960  0.94540  0.15867  Biso   1.000  O
  N1       1.0000 0.78580  0.08770  0.92990  Biso   1.000  N
  N2       1.0000 0.71420  0.41230  0.42990  Biso   1.000  N
  N3       1.0000 0.21420  0.08770  0.57010  Biso   1.000  N
  N4       1.0000 0.28580  0.41230  0.07010  Biso   1.000  N
  N5       1.0000 0.21420  0.91230  0.07010  Biso   1.000  N
  N6       1.0000 0.28580  0.58770  0.57010  Biso   1.000  N
  N7       1.0000 0.78580  0.91230  0.42990  Biso   1.000  N
  N8       1.0000 0.71420  0.58770  0.92990  Biso   1.000  N
  N9       1.0000 0.75550  0.18150  0.80880  Biso   1.000  N
  N10      1.0000 0.74450  0.31850  0.30880  Biso   1.000  N
  N11      1.0000 0.24450  0.18150  0.69120  Biso   1.000  N
  N12      1.0000 0.25550  0.31850  0.19120  Biso   1.000  N
  N13      1.0000 0.24450  0.81850  0.19120  Biso   1.000  N
  N14      1.0000 0.25550  0.68150  0.69120  Biso   1.000  N
  N15      1.0000 0.75550  0.81850  0.30880  Biso   1.000  N
  N16      1.0000 0.74450  0.68150  0.80880  Biso   1.000  N
  N17      1.0000 0.48700  0.21530  0.92942  Biso   1.000  N
  N18      1.0000 0.01300  0.28470  0.42942  Biso   1.000  N
  N19      1.0000 0.51300  0.21530  0.57058  Biso   1.000  N
  N20      1.0000 0.98700  0.28470  0.07058  Biso   1.000  N
  N21      1.0000 0.51300  0.78470  0.07058  Biso   1.000  N
  N22      1.0000 0.98700  0.71530  0.57058  Biso   1.000  N
  N23      1.0000 0.48700  0.78470  0.42942  Biso   1.000  N
  N24      1.0000 0.01300  0.71530  0.92942  Biso   1.000  N
  N25      1.0000 0.35660  0.15460  0.85602  Biso   1.000  N
  N26      1.0000 0.14340  0.34540  0.35602  Biso   1.000  N
  N27      1.0000 0.64340  0.15460  0.64398  Biso   1.000  N
  N28      1.0000 0.85660  0.34540  0.14398  Biso   1.000  N
  N29      1.0000 0.64340  0.84540  0.14398  Biso   1.000  N
  N30      1.0000 0.85660  0.65460  0.64398  Biso   1.000  N
  N31      1.0000 0.35660  0.84540  0.35602  Biso   1.000  N
  N32      1.0000 0.14340  0.65460  0.85602  Biso   1.000  N
  N33      1.0000 0.57700  0.39870  0.11470  Biso   1.000  N
  N34      1.0000 0.92300  0.10130  0.61470  Biso   1.000  N
  N35      1.0000 0.42300  0.39870  0.38530  Biso   1.000  N
  N36      1.0000 0.07700  0.10130  0.88530  Biso   1.000  N
  N37      1.0000 0.42300  0.60130  0.88530  Biso   1.000  N
  N38      1.0000 0.07700  0.89870  0.38530  Biso   1.000  N
  N39      1.0000 0.57700  0.60130  0.61470  Biso   1.000  N
  N40      1.0000 0.92300  0.89870  0.11470  Biso   1.000  N
  C1       1.0000 0.66020  0.11740  0.04130  Biso   1.000  C
  C2       1.0000 0.83980  0.38260  0.54130  Biso   1.000  C
  C3       1.0000 0.33980  0.11740  0.45870  Biso   1.000  C
  C4       1.0000 0.16020  0.38260  0.95870  Biso   1.000  C
  C5       1.0000 0.33980  0.88260  0.95870  Biso   1.000  C
  C6       1.0000 0.16020  0.61740  0.45870  Biso   1.000  C
  C7       1.0000 0.66020  0.88260  0.54130  Biso   1.000  C
  C8       1.0000 0.83980  0.61740  0.04130  Biso   1.000  C
  C9       1.0000 0.60890  0.12470  0.10110  Biso   1.000  C
  C10      1.0000 0.89110  0.37530  0.60110  Biso   1.000  C
  C11      1.0000 0.39110  0.12470  0.39890  Biso   1.000  C
  C12      1.0000 0.10890  0.37530  0.89890  Biso   1.000  C
  C13      1.0000 0.39110  0.87530  0.89890  Biso   1.000  C
  C14      1.0000 0.10890  0.62470  0.39890  Biso   1.000  C
  C15      1.0000 0.60890  0.87530  0.60110  Biso   1.000  C
  C16      1.0000 0.89110  0.62470  0.10110  Biso   1.000  C
  C17      1.0000 0.61190  0.07670  0.15530  Biso   1.000  C
  C18      1.0000 0.88810  0.42330  0.65530  Biso   1.000  C
  C19      1.0000 0.38810  0.07670  0.34470  Biso   1.000  C
  C20      1.0000 0.11190  0.42330  0.84470  Biso   1.000  C
  C21      1.0000 0.38810  0.92330  0.84470  Biso   1.000  C
  C22      1.0000 0.11190  0.57670  0.34470  Biso   1.000  C
  C23      1.0000 0.61190  0.92330  0.65530  Biso   1.000  C
  C24      1.0000 0.88810  0.57670  0.15530  Biso   1.000  C
  H1       1.0000 0.57580  0.08170  0.19400  Biso   1.000  H
  H2       1.0000 0.92420  0.41830  0.69400  Biso   1.000  H
  H3       1.0000 0.42420  0.08170  0.30600  Biso   1.000  H
  H4       1.0000 0.07580  0.41830  0.80600  Biso   1.000  H
  H5       1.0000 0.42420  0.91830  0.80600  Biso   1.000  H
  H6       1.0000 0.07580  0.58170  0.30600  Biso   1.000  H
  H7       1.0000 0.57580  0.91830  0.69400  Biso   1.000  H
  H8       1.0000 0.92420  0.58170  0.19400  Biso   1.000  H
  C25      1.0000 0.66650  0.02160  0.15390  Biso   1.000  C
  C26      1.0000 0.83350  0.47840  0.65390  Biso   1.000  C
  C27      1.0000 0.33350  0.02160  0.34610  Biso   1.000  C
  C28      1.0000 0.16650  0.47840  0.84610  Biso   1.000  C
  C29      1.0000 0.33350  0.97840  0.84610  Biso   1.000  C
  C30      1.0000 0.16650  0.52160  0.34610  Biso   1.000  C
  C31      1.0000 0.66650  0.97840  0.65390  Biso   1.000  C
  C32      1.0000 0.83350  0.52160  0.15390  Biso   1.000  C
  H9       1.0000 0.66840  0.98890  0.19160  Biso   1.000  H
  H10      1.0000 0.83160  0.51110  0.69160  Biso   1.000  H
  H11      1.0000 0.33160  0.98890  0.30840  Biso   1.000  H
  H12      1.0000 0.16840  0.51110  0.80840  Biso   1.000  H
  H13      1.0000 0.33160  0.01110  0.80840  Biso   1.000  H
  H14      1.0000 0.16840  0.48890  0.30840  Biso   1.000  H
  H15      1.0000 0.66840  0.01110  0.69160  Biso   1.000  H
  H16      1.0000 0.83160  0.48890  0.19160  Biso   1.000  H
  C33      1.0000 0.71840  0.01430  0.09720  Biso   1.000  C
  C34      1.0000 0.78160  0.48570  0.59720  Biso   1.000  C
  C35      1.0000 0.28160  0.01430  0.40280  Biso   1.000  C
  C36      1.0000 0.21840  0.48570  0.90280  Biso   1.000  C
  C37      1.0000 0.28160  0.98570  0.90280  Biso   1.000  C
  C38      1.0000 0.21840  0.51430  0.40280  Biso   1.000  C
  C39      1.0000 0.71840  0.98570  0.59720  Biso   1.000  C
  C40      1.0000 0.78160  0.51430  0.09720  Biso   1.000  C
  H17      1.0000 0.75620  0.97650  0.09630  Biso   1.000  H
  H18      1.0000 0.74380  0.52350  0.59630  Biso   1.000  H
  H19      1.0000 0.24380  0.97650  0.40370  Biso   1.000  H
  H20      1.0000 0.25620  0.52350  0.90370  Biso   1.000  H
  H21      1.0000 0.24380  0.02350  0.90370  Biso   1.000  H
  H22      1.0000 0.25620  0.47650  0.40370  Biso   1.000  H
  H23      1.0000 0.75620  0.02350  0.59630  Biso   1.000  H
  H24      1.0000 0.74380  0.47650  0.09630  Biso   1.000  H
  C41      1.0000 0.71600  0.06170  0.04130  Biso   1.000  C
  C42      1.0000 0.78400  0.43830  0.54130  Biso   1.000  C
  C43      1.0000 0.28400  0.06170  0.45870  Biso   1.000  C
  C44      1.0000 0.21600  0.43830  0.95870  Biso   1.000  C
  C45      1.0000 0.28400  0.93830  0.95870  Biso   1.000  C
  C46      1.0000 0.21600  0.56170  0.45870  Biso   1.000  C
  C47      1.0000 0.71600  0.93830  0.54130  Biso   1.000  C
  C48      1.0000 0.78400  0.56170  0.04130  Biso   1.000  C
  C49      1.0000 0.77490  0.05080  0.98570  Biso   1.000  C
  C50      1.0000 0.72510  0.44920  0.48570  Biso   1.000  C
  C51      1.0000 0.22510  0.05080  0.51430  Biso   1.000  C
  C52      1.0000 0.27490  0.44920  0.01430  Biso   1.000  C
  C53      1.0000 0.22510  0.94920  0.01430  Biso   1.000  C
  C54      1.0000 0.27490  0.55080  0.51430  Biso   1.000  C
  C55      1.0000 0.77490  0.94920  0.48570  Biso   1.000  C
  C56      1.0000 0.72510  0.55080  0.98570  Biso   1.000  C
  H25      1.0000 0.80990  0.01140  0.99120  Biso   1.000  H
  H26      1.0000 0.69010  0.48860  0.49120  Biso   1.000  H
  H27      1.0000 0.19010  0.01140  0.50880  Biso   1.000  H
  H28      1.0000 0.30990  0.48860  0.00880  Biso   1.000  H
  H29      1.0000 0.19010  0.98860  0.00880  Biso   1.000  H
  H30      1.0000 0.30990  0.51140  0.50880  Biso   1.000  H
  H31      1.0000 0.80990  0.98860  0.49120  Biso   1.000  H
  H32      1.0000 0.69010  0.51140  0.99120  Biso   1.000  H
  C57      1.0000 0.85410  0.06150  0.88540  Biso   1.000  C
  C58      1.0000 0.64590  0.43850  0.38540  Biso   1.000  C
  C59      1.0000 0.14590  0.06150  0.61460  Biso   1.000  C
  C60      1.0000 0.35410  0.43850  0.11460  Biso   1.000  C
  C61      1.0000 0.14590  0.93850  0.11460  Biso   1.000  C
  C62      1.0000 0.35410  0.56150  0.61460  Biso   1.000  C
  C63      1.0000 0.85410  0.93850  0.38540  Biso   1.000  C
  C64      1.0000 0.64590  0.56150  0.88540  Biso   1.000  C
  H33      1.0000 0.83990  0.01400  0.86810  Biso   1.000  H
  H34      1.0000 0.66010  0.48600  0.36810  Biso   1.000  H
  H35      1.0000 0.16010  0.01400  0.63190  Biso   1.000  H
  H36      1.0000 0.33990  0.48600  0.13190  Biso   1.000  H
  H37      1.0000 0.16010  0.98600  0.13190  Biso   1.000  H
  H38      1.0000 0.33990  0.51400  0.63190  Biso   1.000  H
  H39      1.0000 0.83990  0.98600  0.36810  Biso   1.000  H
  H40      1.0000 0.66010  0.51400  0.86810  Biso   1.000  H
  H41      1.0000 0.90340  0.05700  0.91500  Biso   1.000  H
  H42      1.0000 0.59660  0.44300  0.41500  Biso   1.000  H
  H43      1.0000 0.09660  0.05700  0.58500  Biso   1.000  H
  H44      1.0000 0.40340  0.44300  0.08500  Biso   1.000  H
  H45      1.0000 0.09660  0.94300  0.08500  Biso   1.000  H
  H46      1.0000 0.40340  0.55700  0.58500  Biso   1.000  H
  H47      1.0000 0.90340  0.94300  0.41500  Biso   1.000  H
  H48      1.0000 0.59660  0.55700  0.91500  Biso   1.000  H
  C65      1.0000 0.87430  0.10670  0.82370  Biso   1.000  C
  C66      1.0000 0.62570  0.39330  0.32370  Biso   1.000  C
  C67      1.0000 0.12570  0.10670  0.67630  Biso   1.000  C
  C68      1.0000 0.37430  0.39330  0.17630  Biso   1.000  C
  C69      1.0000 0.12570  0.89330  0.17630  Biso   1.000  C
  C70      1.0000 0.37430  0.60670  0.67630  Biso   1.000  C
  C71      1.0000 0.87430  0.89330  0.32370  Biso   1.000  C
  C72      1.0000 0.62570  0.60670  0.82370  Biso   1.000  C
  H49      1.0000 0.89820  0.15130  0.84080  Biso   1.000  H
  H50      1.0000 0.60180  0.34870  0.34080  Biso   1.000  H
  H51      1.0000 0.10180  0.15130  0.65920  Biso   1.000  H
  H52      1.0000 0.39820  0.34870  0.15920  Biso   1.000  H
  H53      1.0000 0.10180  0.84870  0.15920  Biso   1.000  H
  H54      1.0000 0.39820  0.65130  0.65920  Biso   1.000  H
  H55      1.0000 0.89820  0.84870  0.34080  Biso   1.000  H
  H56      1.0000 0.60180  0.65130  0.84080  Biso   1.000  H
  H57      1.0000 0.91620  0.08260  0.79490  Biso   1.000  H
  H58      1.0000 0.58380  0.41740  0.29490  Biso   1.000  H
  H59      1.0000 0.08380  0.08260  0.70510  Biso   1.000  H
  H60      1.0000 0.41620  0.41740  0.20510  Biso   1.000  H
  H61      1.0000 0.08380  0.91740  0.20510  Biso   1.000  H
  H62      1.0000 0.41620  0.58260  0.70510  Biso   1.000  H
  H63      1.0000 0.91620  0.91740  0.29490  Biso   1.000  H
  H64      1.0000 0.58380  0.58260  0.79490  Biso   1.000  H
  C73      1.0000 0.80280  0.12310  0.77830  Biso   1.000  C
  C74      1.0000 0.69720  0.37690  0.27830  Biso   1.000  C
  C75      1.0000 0.19720  0.12310  0.72170  Biso   1.000  C
  C76      1.0000 0.30280  0.37690  0.22170  Biso   1.000  C
  C77      1.0000 0.19720  0.87690  0.22170  Biso   1.000  C
  C78      1.0000 0.30280  0.62310  0.72170  Biso   1.000  C
  C79      1.0000 0.80280  0.87690  0.27830  Biso   1.000  C
  C80      1.0000 0.69720  0.62310  0.77830  Biso   1.000  C
  H65      1.0000 0.82190  0.13630  0.73070  Biso   1.000  H
  H66      1.0000 0.67810  0.36370  0.23070  Biso   1.000  H
  H67      1.0000 0.17810  0.13630  0.76930  Biso   1.000  H
  H68      1.0000 0.32190  0.36370  0.26930  Biso   1.000  H
  H69      1.0000 0.17810  0.86370  0.26930  Biso   1.000  H
  H70      1.0000 0.32190  0.63630  0.76930  Biso   1.000  H
  H71      1.0000 0.82190  0.86370  0.23070  Biso   1.000  H
  H72      1.0000 0.67810  0.63630  0.73070  Biso   1.000  H
  H73      1.0000 0.76770  0.08100  0.77400  Biso   1.000  H
  H74      1.0000 0.73230  0.41900  0.27400  Biso   1.000  H
  H75      1.0000 0.23230  0.08100  0.72600  Biso   1.000  H
  H76      1.0000 0.26770  0.41900  0.22600  Biso   1.000  H
  H77      1.0000 0.23230  0.91900  0.22600  Biso   1.000  H
  H78      1.0000 0.26770  0.58100  0.72600  Biso   1.000  H
  H79      1.0000 0.76770  0.91900  0.27400  Biso   1.000  H
  H80      1.0000 0.73230  0.58100  0.77400  Biso   1.000  H
  C81      1.0000 0.74310  0.23480  0.76850  Biso   1.000  C
  C82      1.0000 0.75690  0.26520  0.26850  Biso   1.000  C
  C83      1.0000 0.25690  0.23480  0.73150  Biso   1.000  C
  C84      1.0000 0.24310  0.26520  0.23150  Biso   1.000  C
  C85      1.0000 0.25690  0.76520  0.23150  Biso   1.000  C
  C86      1.0000 0.24310  0.73480  0.73150  Biso   1.000  C
  C87      1.0000 0.74310  0.76520  0.26850  Biso   1.000  C
  C88      1.0000 0.75690  0.73480  0.76850  Biso   1.000  C
  H81      1.0000 0.76910  0.23410  0.72390  Biso   1.000  H
  H82      1.0000 0.73090  0.26590  0.22390  Biso   1.000  H
  H83      1.0000 0.23090  0.23410  0.77610  Biso   1.000  H
  H84      1.0000 0.26910  0.26590  0.27610  Biso   1.000  H
  H85      1.0000 0.23090  0.76590  0.27610  Biso   1.000  H
  H86      1.0000 0.26910  0.73410  0.77610  Biso   1.000  H
  H87      1.0000 0.76910  0.76590  0.22390  Biso   1.000  H
  H88      1.0000 0.73090  0.73410  0.72390  Biso   1.000  H
  C89      1.0000 0.69390  0.29510  0.78430  Biso   1.000  C
  C90      1.0000 0.80610  0.20490  0.28430  Biso   1.000  C
  C91      1.0000 0.30610  0.29510  0.71570  Biso   1.000  C
  C92      1.0000 0.19390  0.20490  0.21570  Biso   1.000  C
  C93      1.0000 0.30610  0.70490  0.21570  Biso   1.000  C
  C94      1.0000 0.19390  0.79510  0.71570  Biso   1.000  C
  C95      1.0000 0.69390  0.70490  0.28430  Biso   1.000  C
  C96      1.0000 0.80610  0.79510  0.78430  Biso   1.000  C
  C97      1.0000 0.68610  0.34690  0.73190  Biso   1.000  C
  C98      1.0000 0.81390  0.15310  0.23190  Biso   1.000  C
  C99      1.0000 0.31390  0.34690  0.76810  Biso   1.000  C
  C100     1.0000 0.18610  0.15310  0.26810  Biso   1.000  C
  C101     1.0000 0.31390  0.65310  0.26810  Biso   1.000  C
  C102     1.0000 0.18610  0.84690  0.76810  Biso   1.000  C
  C103     1.0000 0.68610  0.65310  0.23190  Biso   1.000  C
  C104     1.0000 0.81390  0.84690  0.73190  Biso   1.000  C
  H89      1.0000 0.71580  0.34210  0.68930  Biso   1.000  H
  H90      1.0000 0.78420  0.15790  0.18930  Biso   1.000  H
  H91      1.0000 0.28420  0.34210  0.81070  Biso   1.000  H
  H92      1.0000 0.21580  0.15790  0.31070  Biso   1.000  H
  H93      1.0000 0.28420  0.65790  0.31070  Biso   1.000  H
  H94      1.0000 0.21580  0.84210  0.81070  Biso   1.000  H
  H95      1.0000 0.71580  0.65790  0.18930  Biso   1.000  H
  H96      1.0000 0.78420  0.84210  0.68930  Biso   1.000  H
  C105     1.0000 0.63700  0.40320  0.74130  Biso   1.000  C
  C106     1.0000 0.86300  0.09680  0.24130  Biso   1.000  C
  C107     1.0000 0.36300  0.40320  0.75870  Biso   1.000  C
  C108     1.0000 0.13700  0.09680  0.25870  Biso   1.000  C
  C109     1.0000 0.36300  0.59680  0.25870  Biso   1.000  C
  C110     1.0000 0.13700  0.90320  0.75870  Biso   1.000  C
  C111     1.0000 0.63700  0.59680  0.24130  Biso   1.000  C
  C112     1.0000 0.86300  0.90320  0.74130  Biso   1.000  C
  H97      1.0000 0.63450  0.43870  0.70630  Biso   1.000  H
  H98      1.0000 0.86550  0.06130  0.20630  Biso   1.000  H
  H99      1.0000 0.36550  0.43870  0.79370  Biso   1.000  H
  H100     1.0000 0.13450  0.06130  0.29370  Biso   1.000  H
  H101     1.0000 0.36550  0.56130  0.29370  Biso   1.000  H
  H102     1.0000 0.13450  0.93870  0.79370  Biso   1.000  H
  H103     1.0000 0.63450  0.56130  0.20630  Biso   1.000  H
  H104     1.0000 0.86550  0.93870  0.70630  Biso   1.000  H
  C113     1.0000 0.59010  0.40950  0.80180  Biso   1.000  C
  C114     1.0000 0.90990  0.09050  0.30180  Biso   1.000  C
  C115     1.0000 0.40990  0.40950  0.69820  Biso   1.000  C
  C116     1.0000 0.09010  0.09050  0.19820  Biso   1.000  C
  C117     1.0000 0.40990  0.59050  0.19820  Biso   1.000  C
  C118     1.0000 0.09010  0.90950  0.69820  Biso   1.000  C
  C119     1.0000 0.59010  0.59050  0.30180  Biso   1.000  C
  C120     1.0000 0.90990  0.90950  0.80180  Biso   1.000  C
  H105     1.0000 0.55300  0.44760  0.80660  Biso   1.000  H
  H106     1.0000 0.94700  0.05240  0.30660  Biso   1.000  H
  H107     1.0000 0.44700  0.44760  0.69340  Biso   1.000  H
  H108     1.0000 0.05300  0.05240  0.19340  Biso   1.000  H
  H109     1.0000 0.44700  0.55240  0.19340  Biso   1.000  H
  H110     1.0000 0.05300  0.94760  0.69340  Biso   1.000  H
  H111     1.0000 0.55300  0.55240  0.30660  Biso   1.000  H
  H112     1.0000 0.94700  0.94760  0.80660  Biso   1.000  H
  C121     1.0000 0.59750  0.36060  0.85480  Biso   1.000  C
  C122     1.0000 0.90250  0.13940  0.35480  Biso   1.000  C
  C123     1.0000 0.40250  0.36060  0.64520  Biso   1.000  C
  C124     1.0000 0.09750  0.13940  0.14520  Biso   1.000  C
  C125     1.0000 0.40250  0.63940  0.14520  Biso   1.000  C
  C126     1.0000 0.09750  0.86060  0.64520  Biso   1.000  C
  C127     1.0000 0.59750  0.63940  0.35480  Biso   1.000  C
  C128     1.0000 0.90250  0.86060  0.85480  Biso   1.000  C
  C129     1.0000 0.65150  0.30370  0.84770  Biso   1.000  C
  C130     1.0000 0.84850  0.19630  0.34770  Biso   1.000  C
  C131     1.0000 0.34850  0.30370  0.65230  Biso   1.000  C
  C132     1.0000 0.15150  0.19630  0.15230  Biso   1.000  C
  C133     1.0000 0.34850  0.69630  0.15230  Biso   1.000  C
  C134     1.0000 0.15150  0.80370  0.65230  Biso   1.000  C
  C135     1.0000 0.65150  0.69630  0.34770  Biso   1.000  C
  C136     1.0000 0.84850  0.80370  0.84770  Biso   1.000  C
  C137     1.0000 0.51380  0.19700  0.16220  Biso   1.000  C
  C138     1.0000 0.98620  0.30300  0.66220  Biso   1.000  C
  C139     1.0000 0.48620  0.19700  0.33780  Biso   1.000  C
  C140     1.0000 0.01380  0.30300  0.83780  Biso   1.000  C
  C141     1.0000 0.48620  0.80300  0.83780  Biso   1.000  C
  C142     1.0000 0.01380  0.69700  0.33780  Biso   1.000  C
  C143     1.0000 0.51380  0.80300  0.66220  Biso   1.000  C
  C144     1.0000 0.98620  0.69700  0.16220  Biso   1.000  C
  H113     1.0000 0.47770  0.15740  0.17290  Biso   1.000  H
  H114     1.0000 0.02230  0.34260  0.67290  Biso   1.000  H
  H115     1.0000 0.52230  0.15740  0.32710  Biso   1.000  H
  H116     1.0000 0.97770  0.34260  0.82710  Biso   1.000  H
  H117     1.0000 0.52230  0.84260  0.82710  Biso   1.000  H
  H118     1.0000 0.97770  0.65740  0.32710  Biso   1.000  H
  H119     1.0000 0.47770  0.84260  0.67290  Biso   1.000  H
  H120     1.0000 0.02230  0.65740  0.17290  Biso   1.000  H
  H121     1.0000 0.48110  0.23970  0.15610  Biso   1.000  H
  H122     1.0000 0.01890  0.26030  0.65610  Biso   1.000  H
  H123     1.0000 0.51890  0.23970  0.34390  Biso   1.000  H
  H124     1.0000 0.98110  0.26030  0.84390  Biso   1.000  H
  H125     1.0000 0.51890  0.76030  0.84390  Biso   1.000  H
  H126     1.0000 0.98110  0.73970  0.34390  Biso   1.000  H
  H127     1.0000 0.48110  0.76030  0.65610  Biso   1.000  H
  H128     1.0000 0.01890  0.73970  0.15610  Biso   1.000  H
  H129     1.0000 0.55240  0.20380  0.20090  Biso   1.000  H
  H130     1.0000 0.94760  0.29620  0.70090  Biso   1.000  H
  H131     1.0000 0.44760  0.20380  0.29910  Biso   1.000  H
  H132     1.0000 0.05240  0.29620  0.79910  Biso   1.000  H
  H133     1.0000 0.44760  0.79620  0.79910  Biso   1.000  H
  H134     1.0000 0.05240  0.70380  0.29910  Biso   1.000  H
  H135     1.0000 0.55240  0.79620  0.70090  Biso   1.000  H
  H136     1.0000 0.94760  0.70380  0.20090  Biso   1.000  H
  C145     1.0000 0.48550  0.40690  0.91980  Biso   1.000  C
  C146     1.0000 0.01450  0.09310  0.41980  Biso   1.000  C
  C147     1.0000 0.51450  0.40690  0.58020  Biso   1.000  C
  C148     1.0000 0.98550  0.09310  0.08020  Biso   1.000  C
  C149     1.0000 0.51450  0.59310  0.08020  Biso   1.000  C
  C150     1.0000 0.98550  0.90690  0.58020  Biso   1.000  C
  C151     1.0000 0.48550  0.59310  0.41980  Biso   1.000  C
  C152     1.0000 0.01450  0.90690  0.91980  Biso   1.000  C
  H137     1.0000 0.50300  0.45610  0.91840  Biso   1.000  H
  H138     1.0000 0.99700  0.04390  0.41840  Biso   1.000  H
  H139     1.0000 0.49700  0.45610  0.58160  Biso   1.000  H
  H140     1.0000 0.00300  0.04390  0.08160  Biso   1.000  H
  H141     1.0000 0.49700  0.54390  0.08160  Biso   1.000  H
  H142     1.0000 0.00300  0.95610  0.58160  Biso   1.000  H
  H143     1.0000 0.50300  0.54390  0.41840  Biso   1.000  H
  H144     1.0000 0.99700  0.95610  0.91840  Biso   1.000  H
  H145     1.0000 0.45520  0.39820  0.96330  Biso   1.000  H
  H146     1.0000 0.04480  0.10180  0.46330  Biso   1.000  H
  H147     1.0000 0.54480  0.39820  0.53670  Biso   1.000  H
  H148     1.0000 0.95520  0.10180  0.03670  Biso   1.000  H
  H149     1.0000 0.54480  0.60180  0.03670  Biso   1.000  H
  H150     1.0000 0.95520  0.89820  0.53670  Biso   1.000  H
  H151     1.0000 0.45520  0.60180  0.46330  Biso   1.000  H
  H152     1.0000 0.04480  0.89820  0.96330  Biso   1.000  H
  H153     1.0000 0.45020  0.39720  0.87940  Biso   1.000  H
  H154     1.0000 0.04980  0.10280  0.37940  Biso   1.000  H
  H155     1.0000 0.54980  0.39720  0.62060  Biso   1.000  H
  H156     1.0000 0.95020  0.10280  0.12060  Biso   1.000  H
  H157     1.0000 0.54980  0.60280  0.12060  Biso   1.000  H
  H158     1.0000 0.95020  0.89720  0.62060  Biso   1.000  H
  H159     1.0000 0.45020  0.60280  0.37940  Biso   1.000  H
  H160     1.0000 0.04980  0.89720  0.87940  Biso   1.000  H
  C153     1.0000 0.40940  0.22180  0.95130  Biso   1.000  C
  C154     1.0000 0.09060  0.27820  0.45130  Biso   1.000  C
  C155     1.0000 0.59060  0.22180  0.54870  Biso   1.000  C
  C156     1.0000 0.90940  0.27820  0.04870  Biso   1.000  C
  C157     1.0000 0.59060  0.77820  0.04870  Biso   1.000  C
  C158     1.0000 0.90940  0.72180  0.54870  Biso   1.000  C
  C159     1.0000 0.40940  0.77820  0.45130  Biso   1.000  C
  C160     1.0000 0.09060  0.72180  0.95130  Biso   1.000  C
  C161     1.0000 0.49880  0.17830  0.87010  Biso   1.000  C
  C162     1.0000 0.00120  0.32170  0.37010  Biso   1.000  C
  C163     1.0000 0.50120  0.17830  0.62990  Biso   1.000  C
  C164     1.0000 0.99880  0.32170  0.12990  Biso   1.000  C
  C165     1.0000 0.50120  0.82170  0.12990  Biso   1.000  C
  C166     1.0000 0.99880  0.67830  0.62990  Biso   1.000  C
  C167     1.0000 0.49880  0.82170  0.37010  Biso   1.000  C
  C168     1.0000 0.00120  0.67830  0.87010  Biso   1.000  C
  H161     1.0000 0.55260  0.17220  0.85250  Biso   1.000  H
  H162     1.0000 0.94740  0.32780  0.35250  Biso   1.000  H
  H163     1.0000 0.44740  0.17220  0.64750  Biso   1.000  H
  H164     1.0000 0.05260  0.32780  0.14750  Biso   1.000  H
  H165     1.0000 0.44740  0.82780  0.14750  Biso   1.000  H
  H166     1.0000 0.05260  0.67220  0.64750  Biso   1.000  H
  H167     1.0000 0.55260  0.82780  0.35250  Biso   1.000  H
  H168     1.0000 0.94740  0.67220  0.85250  Biso   1.000  H
  C169     1.0000 0.43360  0.14870  0.83420  Biso   1.000  C
  C170     1.0000 0.06640  0.35130  0.33420  Biso   1.000  C
  C171     1.0000 0.56640  0.14870  0.66580  Biso   1.000  C
  C172     1.0000 0.93360  0.35130  0.16580  Biso   1.000  C
  C173     1.0000 0.56640  0.85130  0.16580  Biso   1.000  C
  C174     1.0000 0.93360  0.64870  0.66580  Biso   1.000  C
  C175     1.0000 0.43360  0.85130  0.33420  Biso   1.000  C
  C176     1.0000 0.06640  0.64870  0.83420  Biso   1.000  C
  H169     1.0000 0.44430  0.12320  0.79220  Biso   1.000  H
  H170     1.0000 0.05570  0.37680  0.29220  Biso   1.000  H
  H171     1.0000 0.55570  0.12320  0.70780  Biso   1.000  H
  H172     1.0000 0.94430  0.37680  0.20780  Biso   1.000  H
  H173     1.0000 0.55570  0.87680  0.20780  Biso   1.000  H
  H174     1.0000 0.94430  0.62320  0.70780  Biso   1.000  H
  H175     1.0000 0.44430  0.87680  0.29220  Biso   1.000  H
  H176     1.0000 0.05570  0.62320  0.79220  Biso   1.000  H
  C177     1.0000 0.34460  0.19160  0.91550  Biso   1.000  C
  C178     1.0000 0.15540  0.30840  0.41550  Biso   1.000  C
  C179     1.0000 0.65540  0.19160  0.58450  Biso   1.000  C
  C180     1.0000 0.84460  0.30840  0.08450  Biso   1.000  C
  C181     1.0000 0.65540  0.80840  0.08450  Biso   1.000  C
  C182     1.0000 0.84460  0.69160  0.58450  Biso   1.000  C
  C183     1.0000 0.34460  0.80840  0.41550  Biso   1.000  C
  C184     1.0000 0.15540  0.69160  0.91550  Biso   1.000  C
  C185     1.0000 0.39810  0.26360  0.01850  Biso   1.000  C
  C186     1.0000 0.10190  0.23640  0.51850  Biso   1.000  C
  C187     1.0000 0.60190  0.26360  0.48150  Biso   1.000  C
  C188     1.0000 0.89810  0.23640  0.98150  Biso   1.000  C
  C189     1.0000 0.60190  0.73640  0.98150  Biso   1.000  C
  C190     1.0000 0.89810  0.76360  0.48150  Biso   1.000  C
  C191     1.0000 0.39810  0.73640  0.51850  Biso   1.000  C
  C192     1.0000 0.10190  0.76360  0.01850  Biso   1.000  C
  C193     1.0000 0.25690  0.19810  0.93810  Biso   1.000  C
  C194     1.0000 0.24310  0.30190  0.43810  Biso   1.000  C
  C195     1.0000 0.74310  0.19810  0.56190  Biso   1.000  C
  C196     1.0000 0.75690  0.30190  0.06190  Biso   1.000  C
  C197     1.0000 0.74310  0.80190  0.06190  Biso   1.000  C
  C198     1.0000 0.75690  0.69810  0.56190  Biso   1.000  C
  C199     1.0000 0.25690  0.80190  0.43810  Biso   1.000  C
  C200     1.0000 0.24310  0.69810  0.93810  Biso   1.000  C
  O89      1.0000 0.60990  0.04680  0.81480  Biso   1.000  O
  O90      1.0000 0.89010  0.45320  0.31480  Biso   1.000  O
  O91      1.0000 0.39010  0.04680  0.68520  Biso   1.000  O
  O92      1.0000 0.10990  0.45320  0.18520  Biso   1.000  O
  O93      1.0000 0.39010  0.95320  0.18520  Biso   1.000  O
  O94      1.0000 0.10990  0.54680  0.68520  Biso   1.000  O
  O95      1.0000 0.60990  0.95320  0.31480  Biso   1.000  O
  O96      1.0000 0.89010  0.54680  0.81480  Biso   1.000  O
  C201     1.0000 0.59110  0.01920  0.87060  Biso   1.000  C
  C202     1.0000 0.90890  0.48080  0.37060  Biso   1.000  C
  C203     1.0000 0.40890  0.01920  0.62940  Biso   1.000  C
  C204     1.0000 0.09110  0.48080  0.12940  Biso   1.000  C
  C205     1.0000 0.40890  0.98080  0.12940  Biso   1.000  C
  C206     1.0000 0.09110  0.51920  0.62940  Biso   1.000  C
  C207     1.0000 0.59110  0.98080  0.37060  Biso   1.000  C
  C208     1.0000 0.90890  0.51920  0.87060  Biso   1.000  C
  H177     1.0000 0.55130  0.04300  0.89800  Biso   1.000  H
  H178     1.0000 0.94870  0.45700  0.39800  Biso   1.000  H
  H179     1.0000 0.44870  0.04300  0.60200  Biso   1.000  H
  H180     1.0000 0.05130  0.45700  0.10200  Biso   1.000  H
  H181     1.0000 0.44870  0.95700  0.10200  Biso   1.000  H
  H182     1.0000 0.05130  0.54300  0.60200  Biso   1.000  H
  H183     1.0000 0.55130  0.95700  0.39800  Biso   1.000  H
  H184     1.0000 0.94870  0.54300  0.89800  Biso   1.000  H
  N41      1.0000 0.61990  0.96070  0.89660  Biso   1.000  N
  N42      1.0000 0.88010  0.53930  0.39660  Biso   1.000  N
  N43      1.0000 0.38010  0.96070  0.60340  Biso   1.000  N
  N44      1.0000 0.11990  0.53930  0.10340  Biso   1.000  N
  N45      1.0000 0.38010  0.03930  0.10340  Biso   1.000  N
  N46      1.0000 0.11990  0.46070  0.60340  Biso   1.000  N
  N47      1.0000 0.61990  0.03930  0.39660  Biso   1.000  N
  N48      1.0000 0.88010  0.46070  0.89660  Biso   1.000  N
  C209     1.0000 0.68130  0.92050  0.86080  Biso   1.000  C
  C210     1.0000 0.81870  0.57950  0.36080  Biso   1.000  C
  C211     1.0000 0.31870  0.92050  0.63920  Biso   1.000  C
  C212     1.0000 0.18130  0.57950  0.13920  Biso   1.000  C
  C213     1.0000 0.31870  0.07950  0.13920  Biso   1.000  C
  C214     1.0000 0.18130  0.42050  0.63920  Biso   1.000  C
  C215     1.0000 0.68130  0.07950  0.36080  Biso   1.000  C
  C216     1.0000 0.81870  0.42050  0.86080  Biso   1.000  C
  H185     1.0000 0.69890  0.94590  0.81860  Biso   1.000  H
  H186     1.0000 0.80110  0.55410  0.31860  Biso   1.000  H
  H187     1.0000 0.30110  0.94590  0.68140  Biso   1.000  H
  H188     1.0000 0.19890  0.55410  0.18140  Biso   1.000  H
  H189     1.0000 0.30110  0.05410  0.18140  Biso   1.000  H
  H190     1.0000 0.19890  0.44590  0.68140  Biso   1.000  H
  H191     1.0000 0.69890  0.05410  0.31860  Biso   1.000  H
  H192     1.0000 0.80110  0.44590  0.81860  Biso   1.000  H
  H193     1.0000 0.65880  0.87480  0.84730  Biso   1.000  H
  H194     1.0000 0.84120  0.62520  0.34730  Biso   1.000  H
  H195     1.0000 0.34120  0.87480  0.65270  Biso   1.000  H
  H196     1.0000 0.15880  0.62520  0.15270  Biso   1.000  H
  H197     1.0000 0.34120  0.12520  0.15270  Biso   1.000  H
  H198     1.0000 0.15880  0.37480  0.65270  Biso   1.000  H
  H199     1.0000 0.65880  0.12520  0.34730  Biso   1.000  H
  H200     1.0000 0.84120  0.37480  0.84730  Biso   1.000  H
  H201     1.0000 0.72820  0.91350  0.89200  Biso   1.000  H
  H202     1.0000 0.77180  0.58650  0.39200  Biso   1.000  H
  H203     1.0000 0.27180  0.91350  0.60800  Biso   1.000  H
  H204     1.0000 0.22820  0.58650  0.10800  Biso   1.000  H
  H205     1.0000 0.27180  0.08650  0.10800  Biso   1.000  H
  H206     1.0000 0.22820  0.41350  0.60800  Biso   1.000  H
  H207     1.0000 0.72820  0.08650  0.39200  Biso   1.000  H
  H208     1.0000 0.77180  0.41350  0.89200  Biso   1.000  H
  C217     1.0000 0.59250  0.93490  0.96360  Biso   1.000  C
  C218     1.0000 0.90750  0.56510  0.46360  Biso   1.000  C
  C219     1.0000 0.40750  0.93490  0.53640  Biso   1.000  C
  C220     1.0000 0.09250  0.56510  0.03640  Biso   1.000  C
  C221     1.0000 0.40750  0.06510  0.03640  Biso   1.000  C
  C222     1.0000 0.09250  0.43490  0.53640  Biso   1.000  C
  C223     1.0000 0.59250  0.06510  0.46360  Biso   1.000  C
  C224     1.0000 0.90750  0.43490  0.96360  Biso   1.000  C
  H209     1.0000 0.56220  0.97190  0.98820  Biso   1.000  H
  H210     1.0000 0.93780  0.52810  0.48820  Biso   1.000  H
  H211     1.0000 0.43780  0.97190  0.51180  Biso   1.000  H
  H212     1.0000 0.06220  0.52810  0.01180  Biso   1.000  H
  H213     1.0000 0.43780  0.02810  0.01180  Biso   1.000  H
  H214     1.0000 0.06220  0.47190  0.51180  Biso   1.000  H
  H215     1.0000 0.56220  0.02810  0.48820  Biso   1.000  H
  H216     1.0000 0.93780  0.47190  0.98820  Biso   1.000  H
  H217     1.0000 0.63970  0.92080  0.99190  Biso   1.000  H
  H218     1.0000 0.86030  0.57920  0.49190  Biso   1.000  H
  H219     1.0000 0.36030  0.92080  0.50810  Biso   1.000  H
  H220     1.0000 0.13970  0.57920  0.00810  Biso   1.000  H
  H221     1.0000 0.36030  0.07920  0.00810  Biso   1.000  H
  H222     1.0000 0.13970  0.42080  0.50810  Biso   1.000  H
  H223     1.0000 0.63970  0.07920  0.49190  Biso   1.000  H
  H224     1.0000 0.86030  0.42080  0.99190  Biso   1.000  H
  H225     1.0000 0.55670  0.89420  0.95650  Biso   1.000  H
  H226     1.0000 0.94330  0.60580  0.45650  Biso   1.000  H
  H227     1.0000 0.44330  0.89420  0.54350  Biso   1.000  H
  H228     1.0000 0.05670  0.60580  0.04350  Biso   1.000  H
  H229     1.0000 0.44330  0.10580  0.04350  Biso   1.000  H
  H230     1.0000 0.05670  0.39420  0.54350  Biso   1.000  H
  H231     1.0000 0.55670  0.10580  0.45650  Biso   1.000  H
  H232     1.0000 0.94330  0.39420  0.95650  Biso   1.000  H
