data_image0
_cell_length_a       16.5885
_cell_length_b       19.0857
_cell_length_c       19.1195
_cell_angle_alpha    90
_cell_angle_beta     90
_cell_angle_gamma    90

_symmetry_space_group_name_H-M    "P 1"
_symmetry_int_tables_number       1

loop_
  _symmetry_equiv_pos_as_xyz
  'x, y, z'

loop_
  _atom_site_label
  _atom_site_occupancy
  _atom_site_fract_x
  _atom_site_fract_y
  _atom_site_fract_z
  _atom_site_thermal_displace_type
  _atom_site_B_iso_or_equiv
  _atom_site_type_symbol
  Sm1      1.0000 0.59552  0.28045  0.01556  Biso   1.000  Sm
  Sm2      1.0000 0.90448  0.21955  0.51556  Biso   1.000  Sm
  Sm3      1.0000 0.40448  0.28045  0.48444  Biso   1.000  Sm
  Sm4      1.0000 0.09552  0.21955  0.98444  Biso   1.000  Sm
  Sm5      1.0000 0.40448  0.71955  0.98444  Biso   1.000  Sm
  Sm6      1.0000 0.09552  0.78045  0.48444  Biso   1.000  Sm
  Sm7      1.0000 0.59552  0.71955  0.51556  Biso   1.000  Sm
  Sm8      1.0000 0.90448  0.78045  0.01556  Biso   1.000  Sm
  Cu1      1.0000 0.72388  0.17375  0.90855  Biso   1.000  Cu
  Cu2      1.0000 0.77612  0.32625  0.40855  Biso   1.000  Cu
  Cu3      1.0000 0.27612  0.17375  0.59145  Biso   1.000  Cu
  Cu4      1.0000 0.22388  0.32625  0.09145  Biso   1.000  Cu
  Cu5      1.0000 0.27612  0.82625  0.09145  Biso   1.000  Cu
  Cu6      1.0000 0.22388  0.67375  0.59145  Biso   1.000  Cu
  Cu7      1.0000 0.72388  0.82625  0.40855  Biso   1.000  Cu
  Cu8      1.0000 0.77612  0.67375  0.90855  Biso   1.000  Cu
  O1       1.0000 0.65326  0.16241  0.99070  Biso   1.000  O
  O2       1.0000 0.84674  0.33759  0.49070  Biso   1.000  O
  O3       1.0000 0.34674  0.16241  0.50930  Biso   1.000  O
  O4       1.0000 0.15326  0.33759  0.00930  Biso   1.000  O
  O5       1.0000 0.34674  0.83759  0.00930  Biso   1.000  O
  O6       1.0000 0.15326  0.66241  0.50930  Biso   1.000  O
  O7       1.0000 0.65326  0.83759  0.49070  Biso   1.000  O
  O8       1.0000 0.84674  0.66241  0.99070  Biso   1.000  O
  O9       1.0000 0.55780  0.17787  0.09847  Biso   1.000  O
  O10      1.0000 0.94220  0.32213  0.59847  Biso   1.000  O
  O11      1.0000 0.44220  0.17787  0.40153  Biso   1.000  O
  O12      1.0000 0.05780  0.32213  0.90153  Biso   1.000  O
  O13      1.0000 0.44220  0.82213  0.90153  Biso   1.000  O
  O14      1.0000 0.05780  0.67787  0.40153  Biso   1.000  O
  O15      1.0000 0.55780  0.82213  0.59847  Biso   1.000  O
  O16      1.0000 0.94220  0.67787  0.09847  Biso   1.000  O
  O17      1.0000 0.65715  0.25885  0.90131  Biso   1.000  O
  O18      1.0000 0.84285  0.24115  0.40131  Biso   1.000  O
  O19      1.0000 0.34285  0.25885  0.59869  Biso   1.000  O
  O20      1.0000 0.15715  0.24115  0.09869  Biso   1.000  O
  O21      1.0000 0.34285  0.74115  0.09869  Biso   1.000  O
  O22      1.0000 0.15715  0.75885  0.59869  Biso   1.000  O
  O23      1.0000 0.65715  0.74115  0.40131  Biso   1.000  O
  O24      1.0000 0.84285  0.75885  0.90131  Biso   1.000  O
  O25      1.0000 0.55710  0.36314  0.91578  Biso   1.000  O
  O26      1.0000 0.94290  0.13686  0.41578  Biso   1.000  O
  O27      1.0000 0.44290  0.36314  0.58422  Biso   1.000  O
  O28      1.0000 0.05710  0.13686  0.08422  Biso   1.000  O
  O29      1.0000 0.44290  0.63686  0.08422  Biso   1.000  O
  O30      1.0000 0.05710  0.86314  0.58422  Biso   1.000  O
  O31      1.0000 0.55710  0.63686  0.41578  Biso   1.000  O
  O32      1.0000 0.94290  0.86314  0.91578  Biso   1.000  O
  O33      1.0000 0.32420  0.26080  0.04051  Biso   1.000  O
  O34      1.0000 0.17580  0.23920  0.54051  Biso   1.000  O
  O35      1.0000 0.67580  0.26080  0.45949  Biso   1.000  O
  O36      1.0000 0.82420  0.23920  0.95949  Biso   1.000  O
  O37      1.0000 0.67580  0.73920  0.95949  Biso   1.000  O
  O38      1.0000 0.82420  0.76080  0.45949  Biso   1.000  O
  O39      1.0000 0.32420  0.73920  0.54051  Biso   1.000  O
  O40      1.0000 0.17580  0.76080  0.04051  Biso   1.000  O
  O41      1.0000 0.45363  0.29149  0.04138  Biso   1.000  O
  O42      1.0000 0.04637  0.20851  0.54138  Biso   1.000  O
  O43      1.0000 0.54637  0.29149  0.45862  Biso   1.000  O
  O44      1.0000 0.95363  0.20851  0.95862  Biso   1.000  O
  O45      1.0000 0.54637  0.70851  0.95862  Biso   1.000  O
  O46      1.0000 0.95363  0.79149  0.45862  Biso   1.000  O
  O47      1.0000 0.45363  0.70851  0.54138  Biso   1.000  O
  O48      1.0000 0.04637  0.79149  0.04138  Biso   1.000  O
  O49      1.0000 0.21623  0.24683  0.90705  Biso   1.000  O
  O50      1.0000 0.28377  0.25317  0.40705  Biso   1.000  O
  O51      1.0000 0.78377  0.24683  0.59295  Biso   1.000  O
  O52      1.0000 0.71623  0.25317  0.09295  Biso   1.000  O
  O53      1.0000 0.78377  0.75317  0.09295  Biso   1.000  O
  O54      1.0000 0.71623  0.74683  0.59295  Biso   1.000  O
  O55      1.0000 0.21623  0.75317  0.40705  Biso   1.000  O
  O56      1.0000 0.28377  0.74683  0.90705  Biso   1.000  O
  O57      1.0000 0.22548  0.15055  0.97116  Biso   1.000  O
  O58      1.0000 0.27452  0.34945  0.47116  Biso   1.000  O
  O59      1.0000 0.77452  0.15055  0.52884  Biso   1.000  O
  O60      1.0000 0.72548  0.34945  0.02884  Biso   1.000  O
  O61      1.0000 0.77452  0.84945  0.02884  Biso   1.000  O
  O62      1.0000 0.72548  0.65055  0.52884  Biso   1.000  O
  O63      1.0000 0.22548  0.84945  0.47116  Biso   1.000  O
  O64      1.0000 0.27452  0.65055  0.97116  Biso   1.000  O
  O65      1.0000 0.58220  0.33712  0.13846  Biso   1.000  O
  O66      1.0000 0.91780  0.16288  0.63846  Biso   1.000  O
  O67      1.0000 0.41780  0.33712  0.36154  Biso   1.000  O
  O68      1.0000 0.08220  0.16288  0.86154  Biso   1.000  O
  O69      1.0000 0.41780  0.66288  0.86154  Biso   1.000  O
  O70      1.0000 0.08220  0.83712  0.36154  Biso   1.000  O
  O71      1.0000 0.58220  0.66288  0.63846  Biso   1.000  O
  O72      1.0000 0.91780  0.83712  0.13846  Biso   1.000  O
  O73      1.0000 0.56730  0.41174  0.05438  Biso   1.000  O
  O74      1.0000 0.93270  0.08826  0.55438  Biso   1.000  O
  O75      1.0000 0.43270  0.41174  0.44562  Biso   1.000  O
  O76      1.0000 0.06730  0.08826  0.94562  Biso   1.000  O
  O77      1.0000 0.43270  0.58826  0.94562  Biso   1.000  O
  O78      1.0000 0.06730  0.91174  0.44562  Biso   1.000  O
  O79      1.0000 0.56730  0.58826  0.55438  Biso   1.000  O
  O80      1.0000 0.93270  0.91174  0.05438  Biso   1.000  O
  O81      1.0000 0.56770  0.44790  0.16240  Biso   1.000  O
  O82      1.0000 0.93230  0.05210  0.66240  Biso   1.000  O
  O83      1.0000 0.43230  0.44790  0.33760  Biso   1.000  O
  O84      1.0000 0.06770  0.05210  0.83760  Biso   1.000  O
  O85      1.0000 0.43230  0.55210  0.83760  Biso   1.000  O
  O86      1.0000 0.06770  0.94790  0.33760  Biso   1.000  O
  O87      1.0000 0.56770  0.55210  0.66240  Biso   1.000  O
  O88      1.0000 0.93230  0.94790  0.16240  Biso   1.000  O
  N1       1.0000 0.78700  0.08790  0.93070  Biso   1.000  N
  N2       1.0000 0.71300  0.41210  0.43070  Biso   1.000  N
  N3       1.0000 0.21300  0.08790  0.56930  Biso   1.000  N
  N4       1.0000 0.28700  0.41210  0.06930  Biso   1.000  N
  N5       1.0000 0.21300  0.91210  0.06930  Biso   1.000  N
  N6       1.0000 0.28700  0.58790  0.56930  Biso   1.000  N
  N7       1.0000 0.78700  0.91210  0.43070  Biso   1.000  N
  N8       1.0000 0.71300  0.58790  0.93070  Biso   1.000  N
  N9       1.0000 0.75640  0.18060  0.80970  Biso   1.000  N
  N10      1.0000 0.74360  0.31940  0.30970  Biso   1.000  N
  N11      1.0000 0.24360  0.18060  0.69030  Biso   1.000  N
  N12      1.0000 0.25640  0.31940  0.19030  Biso   1.000  N
  N13      1.0000 0.24360  0.81940  0.19030  Biso   1.000  N
  N14      1.0000 0.25640  0.68060  0.69030  Biso   1.000  N
  N15      1.0000 0.75640  0.81940  0.30970  Biso   1.000  N
  N16      1.0000 0.74360  0.68060  0.80970  Biso   1.000  N
  N17      1.0000 0.48330  0.21440  0.92800  Biso   1.000  N
  N18      1.0000 0.01670  0.28560  0.42800  Biso   1.000  N
  N19      1.0000 0.51670  0.21440  0.57200  Biso   1.000  N
  N20      1.0000 0.98330  0.28560  0.07200  Biso   1.000  N
  N21      1.0000 0.51670  0.78560  0.07200  Biso   1.000  N
  N22      1.0000 0.98330  0.71440  0.57200  Biso   1.000  N
  N23      1.0000 0.48330  0.78560  0.42800  Biso   1.000  N
  N24      1.0000 0.01670  0.71440  0.92800  Biso   1.000  N
  N25      1.0000 0.35600  0.15440  0.85220  Biso   1.000  N
  N26      1.0000 0.14400  0.34560  0.35220  Biso   1.000  N
  N27      1.0000 0.64400  0.15440  0.64780  Biso   1.000  N
  N28      1.0000 0.85600  0.34560  0.14780  Biso   1.000  N
  N29      1.0000 0.64400  0.84560  0.14780  Biso   1.000  N
  N30      1.0000 0.85600  0.65440  0.64780  Biso   1.000  N
  N31      1.0000 0.35600  0.84560  0.35220  Biso   1.000  N
  N32      1.0000 0.14400  0.65440  0.85220  Biso   1.000  N
  N33      1.0000 0.57170  0.40020  0.11900  Biso   1.000  N
  N34      1.0000 0.92830  0.09980  0.61900  Biso   1.000  N
  N35      1.0000 0.42830  0.40020  0.38100  Biso   1.000  N
  N36      1.0000 0.07170  0.09980  0.88100  Biso   1.000  N
  N37      1.0000 0.42830  0.59980  0.88100  Biso   1.000  N
  N38      1.0000 0.07170  0.90020  0.38100  Biso   1.000  N
  N39      1.0000 0.57170  0.59980  0.61900  Biso   1.000  N
  N40      1.0000 0.92830  0.90020  0.11900  Biso   1.000  N
  C1       1.0000 0.66190  0.11610  0.04250  Biso   1.000  C
  C2       1.0000 0.83810  0.38390  0.54250  Biso   1.000  C
  C3       1.0000 0.33810  0.11610  0.45750  Biso   1.000  C
  C4       1.0000 0.16190  0.38390  0.95750  Biso   1.000  C
  C5       1.0000 0.33810  0.88390  0.95750  Biso   1.000  C
  C6       1.0000 0.16190  0.61610  0.45750  Biso   1.000  C
  C7       1.0000 0.66190  0.88390  0.54250  Biso   1.000  C
  C8       1.0000 0.83810  0.61610  0.04250  Biso   1.000  C
  C9       1.0000 0.61060  0.12140  0.10120  Biso   1.000  C
  C10      1.0000 0.88940  0.37860  0.60120  Biso   1.000  C
  C11      1.0000 0.38940  0.12140  0.39880  Biso   1.000  C
  C12      1.0000 0.11060  0.37860  0.89880  Biso   1.000  C
  C13      1.0000 0.38940  0.87860  0.89880  Biso   1.000  C
  C14      1.0000 0.11060  0.62140  0.39880  Biso   1.000  C
  C15      1.0000 0.61060  0.87860  0.60120  Biso   1.000  C
  C16      1.0000 0.88940  0.62140  0.10120  Biso   1.000  C
  C17      1.0000 0.61470  0.07350  0.15530  Biso   1.000  C
  C18      1.0000 0.88530  0.42650  0.65530  Biso   1.000  C
  C19      1.0000 0.38530  0.07350  0.34470  Biso   1.000  C
  C20      1.0000 0.11470  0.42650  0.84470  Biso   1.000  C
  C21      1.0000 0.38530  0.92650  0.84470  Biso   1.000  C
  C22      1.0000 0.11470  0.57350  0.34470  Biso   1.000  C
  C23      1.0000 0.61470  0.92650  0.65530  Biso   1.000  C
  C24      1.0000 0.88530  0.57350  0.15530  Biso   1.000  C
  H1       1.0000 0.57900  0.07760  0.19390  Biso   1.000  H
  H2       1.0000 0.92100  0.42240  0.69390  Biso   1.000  H
  H3       1.0000 0.42100  0.07760  0.30610  Biso   1.000  H
  H4       1.0000 0.07900  0.42240  0.80610  Biso   1.000  H
  H5       1.0000 0.42100  0.92240  0.80610  Biso   1.000  H
  H6       1.0000 0.07900  0.57760  0.30610  Biso   1.000  H
  H7       1.0000 0.57900  0.92240  0.69390  Biso   1.000  H
  H8       1.0000 0.92100  0.57760  0.19390  Biso   1.000  H
  C25      1.0000 0.67010  0.02000  0.15360  Biso   1.000  C
  C26      1.0000 0.82990  0.48000  0.65360  Biso   1.000  C
  C27      1.0000 0.32990  0.02000  0.34640  Biso   1.000  C
  C28      1.0000 0.17010  0.48000  0.84640  Biso   1.000  C
  C29      1.0000 0.32990  0.98000  0.84640  Biso   1.000  C
  C30      1.0000 0.17010  0.52000  0.34640  Biso   1.000  C
  C31      1.0000 0.67010  0.98000  0.65360  Biso   1.000  C
  C32      1.0000 0.82990  0.52000  0.15360  Biso   1.000  C
  H9       1.0000 0.67250  0.98710  0.19090  Biso   1.000  H
  H10      1.0000 0.82750  0.51290  0.69090  Biso   1.000  H
  H11      1.0000 0.32750  0.98710  0.30910  Biso   1.000  H
  H12      1.0000 0.17250  0.51290  0.80910  Biso   1.000  H
  H13      1.0000 0.32750  0.01290  0.80910  Biso   1.000  H
  H14      1.0000 0.17250  0.48710  0.30910  Biso   1.000  H
  H15      1.0000 0.67250  0.01290  0.69090  Biso   1.000  H
  H16      1.0000 0.82750  0.48710  0.19090  Biso   1.000  H
  C33      1.0000 0.72130  0.01410  0.09870  Biso   1.000  C
  C34      1.0000 0.77870  0.48590  0.59870  Biso   1.000  C
  C35      1.0000 0.27870  0.01410  0.40130  Biso   1.000  C
  C36      1.0000 0.22130  0.48590  0.90130  Biso   1.000  C
  C37      1.0000 0.27870  0.98590  0.90130  Biso   1.000  C
  C38      1.0000 0.22130  0.51410  0.40130  Biso   1.000  C
  C39      1.0000 0.72130  0.98590  0.59870  Biso   1.000  C
  C40      1.0000 0.77870  0.51410  0.09870  Biso   1.000  C
  H17      1.0000 0.75990  0.97720  0.09830  Biso   1.000  H
  H18      1.0000 0.74010  0.52280  0.59830  Biso   1.000  H
  H19      1.0000 0.24010  0.97720  0.40170  Biso   1.000  H
  H20      1.0000 0.25990  0.52280  0.90170  Biso   1.000  H
  H21      1.0000 0.24010  0.02280  0.90170  Biso   1.000  H
  H22      1.0000 0.25990  0.47720  0.40170  Biso   1.000  H
  H23      1.0000 0.75990  0.02280  0.59830  Biso   1.000  H
  H24      1.0000 0.74010  0.47720  0.09830  Biso   1.000  H
  C41      1.0000 0.71870  0.06140  0.04200  Biso   1.000  C
  C42      1.0000 0.78130  0.43860  0.54200  Biso   1.000  C
  C43      1.0000 0.28130  0.06140  0.45800  Biso   1.000  C
  C44      1.0000 0.21870  0.43860  0.95800  Biso   1.000  C
  C45      1.0000 0.28130  0.93860  0.95800  Biso   1.000  C
  C46      1.0000 0.21870  0.56140  0.45800  Biso   1.000  C
  C47      1.0000 0.71870  0.93860  0.54200  Biso   1.000  C
  C48      1.0000 0.78130  0.56140  0.04200  Biso   1.000  C
  C49      1.0000 0.77680  0.05150  0.98710  Biso   1.000  C
  C50      1.0000 0.72320  0.44850  0.48710  Biso   1.000  C
  C51      1.0000 0.22320  0.05150  0.51290  Biso   1.000  C
  C52      1.0000 0.27680  0.44850  0.01290  Biso   1.000  C
  C53      1.0000 0.22320  0.94850  0.01290  Biso   1.000  C
  C54      1.0000 0.27680  0.55150  0.51290  Biso   1.000  C
  C55      1.0000 0.77680  0.94850  0.48710  Biso   1.000  C
  C56      1.0000 0.72320  0.55150  0.98710  Biso   1.000  C
  H25      1.0000 0.81250  0.01300  0.99300  Biso   1.000  H
  H26      1.0000 0.68750  0.48700  0.49300  Biso   1.000  H
  H27      1.0000 0.18750  0.01300  0.50700  Biso   1.000  H
  H28      1.0000 0.31250  0.48700  0.00700  Biso   1.000  H
  H29      1.0000 0.18750  0.98700  0.00700  Biso   1.000  H
  H30      1.0000 0.31250  0.51300  0.50700  Biso   1.000  H
  H31      1.0000 0.81250  0.98700  0.49300  Biso   1.000  H
  H32      1.0000 0.68750  0.51300  0.99300  Biso   1.000  H
  C57      1.0000 0.85470  0.06240  0.88680  Biso   1.000  C
  C58      1.0000 0.64530  0.43760  0.38680  Biso   1.000  C
  C59      1.0000 0.14530  0.06240  0.61320  Biso   1.000  C
  C60      1.0000 0.35470  0.43760  0.11320  Biso   1.000  C
  C61      1.0000 0.14530  0.93760  0.11320  Biso   1.000  C
  C62      1.0000 0.35470  0.56240  0.61320  Biso   1.000  C
  C63      1.0000 0.85470  0.93760  0.38680  Biso   1.000  C
  C64      1.0000 0.64530  0.56240  0.88680  Biso   1.000  C
  H33      1.0000 0.84150  0.01460  0.87010  Biso   1.000  H
  H34      1.0000 0.65850  0.48540  0.37010  Biso   1.000  H
  H35      1.0000 0.15850  0.01460  0.62990  Biso   1.000  H
  H36      1.0000 0.34150  0.48540  0.12990  Biso   1.000  H
  H37      1.0000 0.15850  0.98540  0.12990  Biso   1.000  H
  H38      1.0000 0.34150  0.51460  0.62990  Biso   1.000  H
  H39      1.0000 0.84150  0.98540  0.37010  Biso   1.000  H
  H40      1.0000 0.65850  0.51460  0.87010  Biso   1.000  H
  H41      1.0000 0.90350  0.05880  0.91640  Biso   1.000  H
  H42      1.0000 0.59650  0.44120  0.41640  Biso   1.000  H
  H43      1.0000 0.09650  0.05880  0.58360  Biso   1.000  H
  H44      1.0000 0.40350  0.44120  0.08360  Biso   1.000  H
  H45      1.0000 0.09650  0.94120  0.08360  Biso   1.000  H
  H46      1.0000 0.40350  0.55880  0.58360  Biso   1.000  H
  H47      1.0000 0.90350  0.94120  0.41640  Biso   1.000  H
  H48      1.0000 0.59650  0.55880  0.91640  Biso   1.000  H
  C65      1.0000 0.87400  0.10690  0.82490  Biso   1.000  C
  C66      1.0000 0.62600  0.39310  0.32490  Biso   1.000  C
  C67      1.0000 0.12600  0.10690  0.67510  Biso   1.000  C
  C68      1.0000 0.37400  0.39310  0.17510  Biso   1.000  C
  C69      1.0000 0.12600  0.89310  0.17510  Biso   1.000  C
  C70      1.0000 0.37400  0.60690  0.67510  Biso   1.000  C
  C71      1.0000 0.87400  0.89310  0.32490  Biso   1.000  C
  C72      1.0000 0.62600  0.60690  0.82490  Biso   1.000  C
  H49      1.0000 0.89740  0.15170  0.84140  Biso   1.000  H
  H50      1.0000 0.60260  0.34830  0.34140  Biso   1.000  H
  H51      1.0000 0.10260  0.15170  0.65860  Biso   1.000  H
  H52      1.0000 0.39740  0.34830  0.15860  Biso   1.000  H
  H53      1.0000 0.10260  0.84830  0.15860  Biso   1.000  H
  H54      1.0000 0.39740  0.65170  0.65860  Biso   1.000  H
  H55      1.0000 0.89740  0.84830  0.34140  Biso   1.000  H
  H56      1.0000 0.60260  0.65170  0.84140  Biso   1.000  H
  H57      1.0000 0.91540  0.08290  0.79630  Biso   1.000  H
  H58      1.0000 0.58460  0.41710  0.29630  Biso   1.000  H
  H59      1.0000 0.08460  0.08290  0.70370  Biso   1.000  H
  H60      1.0000 0.41540  0.41710  0.20370  Biso   1.000  H
  H61      1.0000 0.08460  0.91710  0.20370  Biso   1.000  H
  H62      1.0000 0.41540  0.58290  0.70370  Biso   1.000  H
  H63      1.0000 0.91540  0.91710  0.29630  Biso   1.000  H
  H64      1.0000 0.58460  0.58290  0.79630  Biso   1.000  H
  C73      1.0000 0.80280  0.12230  0.78010  Biso   1.000  C
  C74      1.0000 0.69720  0.37770  0.28010  Biso   1.000  C
  C75      1.0000 0.19720  0.12230  0.71990  Biso   1.000  C
  C76      1.0000 0.30280  0.37770  0.21990  Biso   1.000  C
  C77      1.0000 0.19720  0.87770  0.21990  Biso   1.000  C
  C78      1.0000 0.30280  0.62230  0.71990  Biso   1.000  C
  C79      1.0000 0.80280  0.87770  0.28010  Biso   1.000  C
  C80      1.0000 0.69720  0.62230  0.78010  Biso   1.000  C
  H65      1.0000 0.82100  0.13470  0.73230  Biso   1.000  H
  H66      1.0000 0.67900  0.36530  0.23230  Biso   1.000  H
  H67      1.0000 0.17900  0.13470  0.76770  Biso   1.000  H
  H68      1.0000 0.32100  0.36530  0.26770  Biso   1.000  H
  H69      1.0000 0.17900  0.86530  0.26770  Biso   1.000  H
  H70      1.0000 0.32100  0.63470  0.76770  Biso   1.000  H
  H71      1.0000 0.82100  0.86530  0.23230  Biso   1.000  H
  H72      1.0000 0.67900  0.63470  0.73230  Biso   1.000  H
  H73      1.0000 0.76820  0.08020  0.77680  Biso   1.000  H
  H74      1.0000 0.73180  0.41980  0.27680  Biso   1.000  H
  H75      1.0000 0.23180  0.08020  0.72320  Biso   1.000  H
  H76      1.0000 0.26820  0.41980  0.22320  Biso   1.000  H
  H77      1.0000 0.23180  0.91980  0.22320  Biso   1.000  H
  H78      1.0000 0.26820  0.58020  0.72320  Biso   1.000  H
  H79      1.0000 0.76820  0.91980  0.27680  Biso   1.000  H
  H80      1.0000 0.73180  0.58020  0.77680  Biso   1.000  H
  C81      1.0000 0.74360  0.23380  0.77010  Biso   1.000  C
  C82      1.0000 0.75640  0.26620  0.27010  Biso   1.000  C
  C83      1.0000 0.25640  0.23380  0.72990  Biso   1.000  C
  C84      1.0000 0.24360  0.26620  0.22990  Biso   1.000  C
  C85      1.0000 0.25640  0.76620  0.22990  Biso   1.000  C
  C86      1.0000 0.24360  0.73380  0.72990  Biso   1.000  C
  C87      1.0000 0.74360  0.76620  0.27010  Biso   1.000  C
  C88      1.0000 0.75640  0.73380  0.77010  Biso   1.000  C
  H81      1.0000 0.76990  0.23320  0.72600  Biso   1.000  H
  H82      1.0000 0.73010  0.26680  0.22600  Biso   1.000  H
  H83      1.0000 0.23010  0.23320  0.77400  Biso   1.000  H
  H84      1.0000 0.26990  0.26680  0.27400  Biso   1.000  H
  H85      1.0000 0.23010  0.76680  0.27400  Biso   1.000  H
  H86      1.0000 0.26990  0.73320  0.77400  Biso   1.000  H
  H87      1.0000 0.76990  0.76680  0.22600  Biso   1.000  H
  H88      1.0000 0.73010  0.73320  0.72600  Biso   1.000  H
  C89      1.0000 0.69390  0.29450  0.78440  Biso   1.000  C
  C90      1.0000 0.80610  0.20550  0.28440  Biso   1.000  C
  C91      1.0000 0.30610  0.29450  0.71560  Biso   1.000  C
  C92      1.0000 0.19390  0.20550  0.21560  Biso   1.000  C
  C93      1.0000 0.30610  0.70550  0.21560  Biso   1.000  C
  C94      1.0000 0.19390  0.79450  0.71560  Biso   1.000  C
  C95      1.0000 0.69390  0.70550  0.28440  Biso   1.000  C
  C96      1.0000 0.80610  0.79450  0.78440  Biso   1.000  C
  C97      1.0000 0.68800  0.34600  0.73170  Biso   1.000  C
  C98      1.0000 0.81200  0.15400  0.23170  Biso   1.000  C
  C99      1.0000 0.31200  0.34600  0.76830  Biso   1.000  C
  C100     1.0000 0.18800  0.15400  0.26830  Biso   1.000  C
  C101     1.0000 0.31200  0.65400  0.26830  Biso   1.000  C
  C102     1.0000 0.18800  0.84600  0.76830  Biso   1.000  C
  C103     1.0000 0.68800  0.65400  0.23170  Biso   1.000  C
  C104     1.0000 0.81200  0.84600  0.73170  Biso   1.000  C
  H89      1.0000 0.71810  0.34110  0.68970  Biso   1.000  H
  H90      1.0000 0.78190  0.15890  0.18970  Biso   1.000  H
  H91      1.0000 0.28190  0.34110  0.81030  Biso   1.000  H
  H92      1.0000 0.21810  0.15890  0.31030  Biso   1.000  H
  H93      1.0000 0.28190  0.65890  0.31030  Biso   1.000  H
  H94      1.0000 0.21810  0.84110  0.81030  Biso   1.000  H
  H95      1.0000 0.71810  0.65890  0.18970  Biso   1.000  H
  H96      1.0000 0.78190  0.84110  0.68970  Biso   1.000  H
  C105     1.0000 0.63930  0.40270  0.74080  Biso   1.000  C
  C106     1.0000 0.86070  0.09730  0.24080  Biso   1.000  C
  C107     1.0000 0.36070  0.40270  0.75920  Biso   1.000  C
  C108     1.0000 0.13930  0.09730  0.25920  Biso   1.000  C
  C109     1.0000 0.36070  0.59730  0.25920  Biso   1.000  C
  C110     1.0000 0.13930  0.90270  0.75920  Biso   1.000  C
  C111     1.0000 0.63930  0.59730  0.24080  Biso   1.000  C
  C112     1.0000 0.86070  0.90270  0.74080  Biso   1.000  C
  H97      1.0000 0.63770  0.43830  0.70600  Biso   1.000  H
  H98      1.0000 0.86230  0.06170  0.20600  Biso   1.000  H
  H99      1.0000 0.36230  0.43830  0.79400  Biso   1.000  H
  H100     1.0000 0.13770  0.06170  0.29400  Biso   1.000  H
  H101     1.0000 0.36230  0.56170  0.29400  Biso   1.000  H
  H102     1.0000 0.13770  0.93830  0.79400  Biso   1.000  H
  H103     1.0000 0.63770  0.56170  0.20600  Biso   1.000  H
  H104     1.0000 0.86230  0.93830  0.70600  Biso   1.000  H
  C113     1.0000 0.59180  0.40930  0.80040  Biso   1.000  C
  C114     1.0000 0.90820  0.09070  0.30040  Biso   1.000  C
  C115     1.0000 0.40820  0.40930  0.69960  Biso   1.000  C
  C116     1.0000 0.09180  0.09070  0.19960  Biso   1.000  C
  C117     1.0000 0.40820  0.59070  0.19960  Biso   1.000  C
  C118     1.0000 0.09180  0.90930  0.69960  Biso   1.000  C
  C119     1.0000 0.59180  0.59070  0.30040  Biso   1.000  C
  C120     1.0000 0.90820  0.90930  0.80040  Biso   1.000  C
  H105     1.0000 0.55480  0.44700  0.80490  Biso   1.000  H
  H106     1.0000 0.94520  0.05300  0.30490  Biso   1.000  H
  H107     1.0000 0.44520  0.44700  0.69510  Biso   1.000  H
  H108     1.0000 0.05480  0.05300  0.19510  Biso   1.000  H
  H109     1.0000 0.44520  0.55300  0.19510  Biso   1.000  H
  H110     1.0000 0.05480  0.94700  0.69510  Biso   1.000  H
  H111     1.0000 0.55480  0.55300  0.30490  Biso   1.000  H
  H112     1.0000 0.94520  0.94700  0.80490  Biso   1.000  H
  C121     1.0000 0.59910  0.36030  0.85280  Biso   1.000  C
  C122     1.0000 0.90090  0.13970  0.35280  Biso   1.000  C
  C123     1.0000 0.40090  0.36030  0.64720  Biso   1.000  C
  C124     1.0000 0.09910  0.13970  0.14720  Biso   1.000  C
  C125     1.0000 0.40090  0.63970  0.14720  Biso   1.000  C
  C126     1.0000 0.09910  0.86030  0.64720  Biso   1.000  C
  C127     1.0000 0.59910  0.63970  0.35280  Biso   1.000  C
  C128     1.0000 0.90090  0.86030  0.85280  Biso   1.000  C
  C129     1.0000 0.65180  0.30260  0.84740  Biso   1.000  C
  C130     1.0000 0.84820  0.19740  0.34740  Biso   1.000  C
  C131     1.0000 0.34820  0.30260  0.65260  Biso   1.000  C
  C132     1.0000 0.15180  0.19740  0.15260  Biso   1.000  C
  C133     1.0000 0.34820  0.69740  0.15260  Biso   1.000  C
  C134     1.0000 0.15180  0.80260  0.65260  Biso   1.000  C
  C135     1.0000 0.65180  0.69740  0.34740  Biso   1.000  C
  C136     1.0000 0.84820  0.80260  0.84740  Biso   1.000  C
  C137     1.0000 0.51290  0.19110  0.16180  Biso   1.000  C
  C138     1.0000 0.98710  0.30890  0.66180  Biso   1.000  C
  C139     1.0000 0.48710  0.19110  0.33820  Biso   1.000  C
  C140     1.0000 0.01290  0.30890  0.83820  Biso   1.000  C
  C141     1.0000 0.48710  0.80890  0.83820  Biso   1.000  C
  C142     1.0000 0.01290  0.69110  0.33820  Biso   1.000  C
  C143     1.0000 0.51290  0.80890  0.66180  Biso   1.000  C
  C144     1.0000 0.98710  0.69110  0.16180  Biso   1.000  C
  H113     1.0000 0.47640  0.15180  0.17090  Biso   1.000  H
  H114     1.0000 0.02360  0.34820  0.67090  Biso   1.000  H
  H115     1.0000 0.52360  0.15180  0.32910  Biso   1.000  H
  H116     1.0000 0.97640  0.34820  0.82910  Biso   1.000  H
  H117     1.0000 0.52360  0.84820  0.82910  Biso   1.000  H
  H118     1.0000 0.97640  0.65180  0.32910  Biso   1.000  H
  H119     1.0000 0.47640  0.84820  0.67090  Biso   1.000  H
  H120     1.0000 0.02360  0.65180  0.17090  Biso   1.000  H
  H121     1.0000 0.48140  0.23420  0.15640  Biso   1.000  H
  H122     1.0000 0.01860  0.26580  0.65640  Biso   1.000  H
  H123     1.0000 0.51860  0.23420  0.34360  Biso   1.000  H
  H124     1.0000 0.98140  0.26580  0.84360  Biso   1.000  H
  H125     1.0000 0.51860  0.76580  0.84360  Biso   1.000  H
  H126     1.0000 0.98140  0.73420  0.34360  Biso   1.000  H
  H127     1.0000 0.48140  0.76580  0.65640  Biso   1.000  H
  H128     1.0000 0.01860  0.73420  0.15640  Biso   1.000  H
  H129     1.0000 0.55030  0.19630  0.20110  Biso   1.000  H
  H130     1.0000 0.94970  0.30370  0.70110  Biso   1.000  H
  H131     1.0000 0.44970  0.19630  0.29890  Biso   1.000  H
  H132     1.0000 0.05030  0.30370  0.79890  Biso   1.000  H
  H133     1.0000 0.44970  0.80370  0.79890  Biso   1.000  H
  H134     1.0000 0.05030  0.69630  0.29890  Biso   1.000  H
  H135     1.0000 0.55030  0.80370  0.70110  Biso   1.000  H
  H136     1.0000 0.94970  0.69630  0.20110  Biso   1.000  H
  C145     1.0000 0.48630  0.40750  0.91830  Biso   1.000  C
  C146     1.0000 0.01370  0.09250  0.41830  Biso   1.000  C
  C147     1.0000 0.51370  0.40750  0.58170  Biso   1.000  C
  C148     1.0000 0.98630  0.09250  0.08170  Biso   1.000  C
  C149     1.0000 0.51370  0.59250  0.08170  Biso   1.000  C
  C150     1.0000 0.98630  0.90750  0.58170  Biso   1.000  C
  C151     1.0000 0.48630  0.59250  0.41830  Biso   1.000  C
  C152     1.0000 0.01370  0.90750  0.91830  Biso   1.000  C
  H137     1.0000 0.45080  0.39620  0.87900  Biso   1.000  H
  H138     1.0000 0.04920  0.10380  0.37900  Biso   1.000  H
  H139     1.0000 0.54920  0.39620  0.62100  Biso   1.000  H
  H140     1.0000 0.95080  0.10380  0.12100  Biso   1.000  H
  H141     1.0000 0.54920  0.60380  0.12100  Biso   1.000  H
  H142     1.0000 0.95080  0.89620  0.62100  Biso   1.000  H
  H143     1.0000 0.45080  0.60380  0.37900  Biso   1.000  H
  H144     1.0000 0.04920  0.89620  0.87900  Biso   1.000  H
  H145     1.0000 0.50280  0.45680  0.91530  Biso   1.000  H
  H146     1.0000 0.99720  0.04320  0.41530  Biso   1.000  H
  H147     1.0000 0.49720  0.45680  0.58470  Biso   1.000  H
  H148     1.0000 0.00280  0.04320  0.08470  Biso   1.000  H
  H149     1.0000 0.49720  0.54320  0.08470  Biso   1.000  H
  H150     1.0000 0.00280  0.95680  0.58470  Biso   1.000  H
  H151     1.0000 0.50280  0.54320  0.41530  Biso   1.000  H
  H152     1.0000 0.99720  0.95680  0.91530  Biso   1.000  H
  H153     1.0000 0.45760  0.39970  0.96240  Biso   1.000  H
  H154     1.0000 0.04240  0.10030  0.46240  Biso   1.000  H
  H155     1.0000 0.54240  0.39970  0.53760  Biso   1.000  H
  H156     1.0000 0.95760  0.10030  0.03760  Biso   1.000  H
  H157     1.0000 0.54240  0.60030  0.03760  Biso   1.000  H
  H158     1.0000 0.95760  0.89970  0.53760  Biso   1.000  H
  H159     1.0000 0.45760  0.60030  0.46240  Biso   1.000  H
  H160     1.0000 0.04240  0.89970  0.96240  Biso   1.000  H
  C153     1.0000 0.40620  0.22100  0.94850  Biso   1.000  C
  C154     1.0000 0.09380  0.27900  0.44850  Biso   1.000  C
  C155     1.0000 0.59380  0.22100  0.55150  Biso   1.000  C
  C156     1.0000 0.90620  0.27900  0.05150  Biso   1.000  C
  C157     1.0000 0.59380  0.77900  0.05150  Biso   1.000  C
  C158     1.0000 0.90620  0.72100  0.55150  Biso   1.000  C
  C159     1.0000 0.40620  0.77900  0.44850  Biso   1.000  C
  C160     1.0000 0.09380  0.72100  0.94850  Biso   1.000  C
  C161     1.0000 0.49560  0.17810  0.86920  Biso   1.000  C
  C162     1.0000 0.00440  0.32190  0.36920  Biso   1.000  C
  C163     1.0000 0.50440  0.17810  0.63080  Biso   1.000  C
  C164     1.0000 0.99560  0.32190  0.13080  Biso   1.000  C
  C165     1.0000 0.50440  0.82190  0.13080  Biso   1.000  C
  C166     1.0000 0.99560  0.67810  0.63080  Biso   1.000  C
  C167     1.0000 0.49560  0.82190  0.36920  Biso   1.000  C
  C168     1.0000 0.00440  0.67810  0.86920  Biso   1.000  C
  H161     1.0000 0.54910  0.17250  0.85240  Biso   1.000  H
  H162     1.0000 0.95090  0.32750  0.35240  Biso   1.000  H
  H163     1.0000 0.45090  0.17250  0.64760  Biso   1.000  H
  H164     1.0000 0.04910  0.32750  0.14760  Biso   1.000  H
  H165     1.0000 0.45090  0.82750  0.14760  Biso   1.000  H
  H166     1.0000 0.04910  0.67250  0.64760  Biso   1.000  H
  H167     1.0000 0.54910  0.82750  0.35240  Biso   1.000  H
  H168     1.0000 0.95090  0.67250  0.85240  Biso   1.000  H
  C169     1.0000 0.43280  0.14870  0.83230  Biso   1.000  C
  C170     1.0000 0.06720  0.35130  0.33230  Biso   1.000  C
  C171     1.0000 0.56720  0.14870  0.66770  Biso   1.000  C
  C172     1.0000 0.93280  0.35130  0.16770  Biso   1.000  C
  C173     1.0000 0.56720  0.85130  0.16770  Biso   1.000  C
  C174     1.0000 0.93280  0.64870  0.66770  Biso   1.000  C
  C175     1.0000 0.43280  0.85130  0.33230  Biso   1.000  C
  C176     1.0000 0.06720  0.64870  0.83230  Biso   1.000  C
  H169     1.0000 0.44470  0.12310  0.79100  Biso   1.000  H
  H170     1.0000 0.05530  0.37690  0.29100  Biso   1.000  H
  H171     1.0000 0.55530  0.12310  0.70900  Biso   1.000  H
  H172     1.0000 0.94470  0.37690  0.20900  Biso   1.000  H
  H173     1.0000 0.55530  0.87690  0.20900  Biso   1.000  H
  H174     1.0000 0.94470  0.62310  0.70900  Biso   1.000  H
  H175     1.0000 0.44470  0.87690  0.29100  Biso   1.000  H
  H176     1.0000 0.05530  0.62310  0.79100  Biso   1.000  H
  C177     1.0000 0.34270  0.19100  0.91140  Biso   1.000  C
  C178     1.0000 0.15730  0.30900  0.41140  Biso   1.000  C
  C179     1.0000 0.65730  0.19100  0.58860  Biso   1.000  C
  C180     1.0000 0.84270  0.30900  0.08860  Biso   1.000  C
  C181     1.0000 0.65730  0.80900  0.08860  Biso   1.000  C
  C182     1.0000 0.84270  0.69100  0.58860  Biso   1.000  C
  C183     1.0000 0.34270  0.80900  0.41140  Biso   1.000  C
  C184     1.0000 0.15730  0.69100  0.91140  Biso   1.000  C
  C185     1.0000 0.39260  0.26140  0.01640  Biso   1.000  C
  C186     1.0000 0.10740  0.23860  0.51640  Biso   1.000  C
  C187     1.0000 0.60740  0.26140  0.48360  Biso   1.000  C
  C188     1.0000 0.89260  0.23860  0.98360  Biso   1.000  C
  C189     1.0000 0.60740  0.73860  0.98360  Biso   1.000  C
  C190     1.0000 0.89260  0.76140  0.48360  Biso   1.000  C
  C191     1.0000 0.39260  0.73860  0.51640  Biso   1.000  C
  C192     1.0000 0.10740  0.76140  0.01640  Biso   1.000  C
  C193     1.0000 0.25590  0.19700  0.93230  Biso   1.000  C
  C194     1.0000 0.24410  0.30300  0.43230  Biso   1.000  C
  C195     1.0000 0.74410  0.19700  0.56770  Biso   1.000  C
  C196     1.0000 0.75590  0.30300  0.06770  Biso   1.000  C
  C197     1.0000 0.74410  0.80300  0.06770  Biso   1.000  C
  C198     1.0000 0.75590  0.69700  0.56770  Biso   1.000  C
  C199     1.0000 0.25590  0.80300  0.43230  Biso   1.000  C
  C200     1.0000 0.24410  0.69700  0.93230  Biso   1.000  C
  O89      1.0000 0.61150  0.04630  0.81620  Biso   1.000  O
  O90      1.0000 0.88850  0.45370  0.31620  Biso   1.000  O
  O91      1.0000 0.38850  0.04630  0.68380  Biso   1.000  O
  O92      1.0000 0.11150  0.45370  0.18380  Biso   1.000  O
  O93      1.0000 0.38850  0.95370  0.18380  Biso   1.000  O
  O94      1.0000 0.11150  0.54630  0.68380  Biso   1.000  O
  O95      1.0000 0.61150  0.95370  0.31620  Biso   1.000  O
  O96      1.0000 0.88850  0.54630  0.81620  Biso   1.000  O
  C201     1.0000 0.59310  0.02070  0.87200  Biso   1.000  C
  C202     1.0000 0.90690  0.47930  0.37200  Biso   1.000  C
  C203     1.0000 0.40690  0.02070  0.62800  Biso   1.000  C
  C204     1.0000 0.09310  0.47930  0.12800  Biso   1.000  C
  C205     1.0000 0.40690  0.97930  0.12800  Biso   1.000  C
  C206     1.0000 0.09310  0.52070  0.62800  Biso   1.000  C
  C207     1.0000 0.59310  0.97930  0.37200  Biso   1.000  C
  C208     1.0000 0.90690  0.52070  0.87200  Biso   1.000  C
  H177     1.0000 0.55490  0.04570  0.89930  Biso   1.000  H
  H178     1.0000 0.94510  0.45430  0.39930  Biso   1.000  H
  H179     1.0000 0.44510  0.04570  0.60070  Biso   1.000  H
  H180     1.0000 0.05490  0.45430  0.10070  Biso   1.000  H
  H181     1.0000 0.44510  0.95430  0.10070  Biso   1.000  H
  H182     1.0000 0.05490  0.54570  0.60070  Biso   1.000  H
  H183     1.0000 0.55490  0.95430  0.39930  Biso   1.000  H
  H184     1.0000 0.94510  0.54570  0.89930  Biso   1.000  H
  N41      1.0000 0.62110  0.96110  0.89890  Biso   1.000  N
  N42      1.0000 0.87890  0.53890  0.39890  Biso   1.000  N
  N43      1.0000 0.37890  0.96110  0.60110  Biso   1.000  N
  N44      1.0000 0.12110  0.53890  0.10110  Biso   1.000  N
  N45      1.0000 0.37890  0.03890  0.10110  Biso   1.000  N
  N46      1.0000 0.12110  0.46110  0.60110  Biso   1.000  N
  N47      1.0000 0.62110  0.03890  0.39890  Biso   1.000  N
  N48      1.0000 0.87890  0.46110  0.89890  Biso   1.000  N
  C209     1.0000 0.68230  0.92040  0.86360  Biso   1.000  C
  C210     1.0000 0.81770  0.57960  0.36360  Biso   1.000  C
  C211     1.0000 0.31770  0.92040  0.63640  Biso   1.000  C
  C212     1.0000 0.18230  0.57960  0.13640  Biso   1.000  C
  C213     1.0000 0.31770  0.07960  0.13640  Biso   1.000  C
  C214     1.0000 0.18230  0.42040  0.63640  Biso   1.000  C
  C215     1.0000 0.68230  0.07960  0.36360  Biso   1.000  C
  C216     1.0000 0.81770  0.42040  0.86360  Biso   1.000  C
  H185     1.0000 0.69420  0.94170  0.81810  Biso   1.000  H
  H186     1.0000 0.80580  0.55830  0.31810  Biso   1.000  H
  H187     1.0000 0.30580  0.94170  0.68190  Biso   1.000  H
  H188     1.0000 0.19420  0.55830  0.18190  Biso   1.000  H
  H189     1.0000 0.30580  0.05830  0.18190  Biso   1.000  H
  H190     1.0000 0.19420  0.44170  0.68190  Biso   1.000  H
  H191     1.0000 0.69420  0.05830  0.31810  Biso   1.000  H
  H192     1.0000 0.80580  0.44170  0.81810  Biso   1.000  H
  H193     1.0000 0.66290  0.87250  0.85670  Biso   1.000  H
  H194     1.0000 0.83710  0.62750  0.35670  Biso   1.000  H
  H195     1.0000 0.33710  0.87250  0.64330  Biso   1.000  H
  H196     1.0000 0.16290  0.62750  0.14330  Biso   1.000  H
  H197     1.0000 0.33710  0.12750  0.14330  Biso   1.000  H
  H198     1.0000 0.16290  0.37250  0.64330  Biso   1.000  H
  H199     1.0000 0.66290  0.12750  0.35670  Biso   1.000  H
  H200     1.0000 0.83710  0.37250  0.85670  Biso   1.000  H
  H201     1.0000 0.73150  0.91960  0.89210  Biso   1.000  H
  H202     1.0000 0.76850  0.58040  0.39210  Biso   1.000  H
  H203     1.0000 0.26850  0.91960  0.60790  Biso   1.000  H
  H204     1.0000 0.23150  0.58040  0.10790  Biso   1.000  H
  H205     1.0000 0.26850  0.08040  0.10790  Biso   1.000  H
  H206     1.0000 0.23150  0.41960  0.60790  Biso   1.000  H
  H207     1.0000 0.73150  0.08040  0.39210  Biso   1.000  H
  H208     1.0000 0.76850  0.41960  0.89210  Biso   1.000  H
  C217     1.0000 0.59390  0.93580  0.96680  Biso   1.000  C
  C218     1.0000 0.90610  0.56420  0.46680  Biso   1.000  C
  C219     1.0000 0.40610  0.93580  0.53320  Biso   1.000  C
  C220     1.0000 0.09390  0.56420  0.03320  Biso   1.000  C
  C221     1.0000 0.40610  0.06420  0.03320  Biso   1.000  C
  C222     1.0000 0.09390  0.43580  0.53320  Biso   1.000  C
  C223     1.0000 0.59390  0.06420  0.46680  Biso   1.000  C
  C224     1.0000 0.90610  0.43580  0.96680  Biso   1.000  C
  H209     1.0000 0.56140  0.97210  0.98960  Biso   1.000  H
  H210     1.0000 0.93860  0.52790  0.48960  Biso   1.000  H
  H211     1.0000 0.43860  0.97210  0.51040  Biso   1.000  H
  H212     1.0000 0.06140  0.52790  0.01040  Biso   1.000  H
  H213     1.0000 0.43860  0.02790  0.01040  Biso   1.000  H
  H214     1.0000 0.06140  0.47210  0.51040  Biso   1.000  H
  H215     1.0000 0.56140  0.02790  0.48960  Biso   1.000  H
  H216     1.0000 0.93860  0.47210  0.98960  Biso   1.000  H
  H217     1.0000 0.64070  0.92480  0.99600  Biso   1.000  H
  H218     1.0000 0.85930  0.57520  0.49600  Biso   1.000  H
  H219     1.0000 0.35930  0.92480  0.50400  Biso   1.000  H
  H220     1.0000 0.14070  0.57520  0.00400  Biso   1.000  H
  H221     1.0000 0.35930  0.07520  0.00400  Biso   1.000  H
  H222     1.0000 0.14070  0.42480  0.50400  Biso   1.000  H
  H223     1.0000 0.64070  0.07520  0.49600  Biso   1.000  H
  H224     1.0000 0.85930  0.42480  0.99600  Biso   1.000  H
  H225     1.0000 0.56120  0.89350  0.96040  Biso   1.000  H
  H226     1.0000 0.93880  0.60650  0.46040  Biso   1.000  H
  H227     1.0000 0.43880  0.89350  0.53960  Biso   1.000  H
  H228     1.0000 0.06120  0.60650  0.03960  Biso   1.000  H
  H229     1.0000 0.43880  0.10650  0.03960  Biso   1.000  H
  H230     1.0000 0.06120  0.39350  0.53960  Biso   1.000  H
  H231     1.0000 0.56120  0.10650  0.46040  Biso   1.000  H
  H232     1.0000 0.93880  0.39350  0.96040  Biso   1.000  H
