data_image0
_cell_length_a       8.721
_cell_length_b       7.688
_cell_length_c       18.184
_cell_angle_alpha    90
_cell_angle_beta     91.01
_cell_angle_gamma    90

_symmetry_space_group_name_H-M    "P 1"
_symmetry_int_tables_number       1

loop_
  _symmetry_equiv_pos_as_xyz
  'x, y, z'

loop_
  _atom_site_label
  _atom_site_occupancy
  _atom_site_fract_x
  _atom_site_fract_y
  _atom_site_fract_z
  _atom_site_thermal_displace_type
  _atom_site_B_iso_or_equiv
  _atom_site_type_symbol
  Cu1      1.0000 0.29010  0.46220  0.17630  Biso   1.000  Cu
  Cu2      1.0000 0.79010  0.03780  0.67630  Biso   1.000  Cu
  Cu3      1.0000 0.70990  0.53780  0.82370  Biso   1.000  Cu
  Cu4      1.0000 0.20990  0.96220  0.32370  Biso   1.000  Cu
  Cl1      1.0000 0.52830  0.54680  0.19500  Biso   1.000  Cl
  Cl2      1.0000 0.02830  0.95320  0.69500  Biso   1.000  Cl
  Cl3      1.0000 0.47170  0.45320  0.80500  Biso   1.000  Cl
  Cl4      1.0000 0.97170  0.04680  0.30500  Biso   1.000  Cl
  S1       1.0000 0.18190  0.62190  0.26630  Biso   1.000  S
  S2       1.0000 0.68190  0.87810  0.76630  Biso   1.000  S
  S3       1.0000 0.81810  0.37810  0.73370  Biso   1.000  S
  S4       1.0000 0.31810  0.12190  0.23370  Biso   1.000  S
  O1       1.0000 0.33170  0.32370  0.07160  Biso   1.000  O
  O2       1.0000 0.83170  0.17630  0.57160  Biso   1.000  O
  O3       1.0000 0.66830  0.67630  0.92840  Biso   1.000  O
  O4       1.0000 0.16830  0.82370  0.42840  Biso   1.000  O
  N1       1.0000 0.87580  0.63230  0.27830  Biso   1.000  N
  N2       1.0000 0.37580  0.86770  0.77830  Biso   1.000  N
  N3       1.0000 0.12420  0.36770  0.72170  Biso   1.000  N
  N4       1.0000 0.62420  0.13230  0.22170  Biso   1.000  N
  N5       1.0000 0.95580  0.47660  0.18170  Biso   1.000  N
  N6       1.0000 0.45580  0.02340  0.68170  Biso   1.000  N
  N7       1.0000 0.04420  0.52340  0.81830  Biso   1.000  N
  N8       1.0000 0.54420  0.97660  0.31830  Biso   1.000  N
  N9       1.0000 0.07810  0.42520  0.14600  Biso   1.000  N
  N10      1.0000 0.57810  0.07480  0.64600  Biso   1.000  N
  N11      1.0000 0.92190  0.57480  0.85400  Biso   1.000  N
  N12      1.0000 0.42190  0.92520  0.35400  Biso   1.000  N
  N13      1.0000 0.15400  0.21560  0.98110  Biso   1.000  N
  N14      1.0000 0.65400  0.28440  0.48110  Biso   1.000  N
  N15      1.0000 0.84600  0.78440  0.01890  Biso   1.000  N
  N16      1.0000 0.34600  0.71560  0.51890  Biso   1.000  N
  C1       1.0000 0.99590  0.57360  0.23960  Biso   1.000  C
  C2       1.0000 0.49590  0.92640  0.73960  Biso   1.000  C
  C3       1.0000 0.00410  0.42640  0.76040  Biso   1.000  C
  C4       1.0000 0.50410  0.07360  0.26040  Biso   1.000  C
  C5       1.0000 0.05980  0.34640  0.08510  Biso   1.000  C
  C6       1.0000 0.55980  0.15360  0.58510  Biso   1.000  C
  C7       1.0000 0.94020  0.65360  0.91490  Biso   1.000  C
  C8       1.0000 0.44020  0.84640  0.41490  Biso   1.000  C
  C9       1.0000 0.93200  0.30190  0.03590  Biso   1.000  C
  C10      1.0000 0.43200  0.19810  0.53590  Biso   1.000  C
  C11      1.0000 0.06800  0.69810  0.96410  Biso   1.000  C
  C12      1.0000 0.56800  0.80190  0.46410  Biso   1.000  C
  C13      1.0000 0.77720  0.32490  0.03970  Biso   1.000  C
  C14      1.0000 0.27720  0.17510  0.53970  Biso   1.000  C
  C15      1.0000 0.22280  0.67510  0.96030  Biso   1.000  C
  C16      1.0000 0.72280  0.82490  0.46030  Biso   1.000  C
  C17      1.0000 0.68150  0.26810  0.97980  Biso   1.000  C
  C18      1.0000 0.18150  0.23190  0.47980  Biso   1.000  C
  C19      1.0000 0.31850  0.73190  0.02020  Biso   1.000  C
  C20      1.0000 0.81850  0.76810  0.52020  Biso   1.000  C
  C21      1.0000 0.74430  0.18420  0.92190  Biso   1.000  C
  C22      1.0000 0.24430  0.31580  0.42190  Biso   1.000  C
  C23      1.0000 0.25570  0.81580  0.07810  Biso   1.000  C
  C24      1.0000 0.75570  0.68420  0.57810  Biso   1.000  C
  C25      1.0000 0.90630  0.16210  0.91560  Biso   1.000  C
  C26      1.0000 0.40630  0.33790  0.41560  Biso   1.000  C
  C27      1.0000 0.09370  0.83790  0.08440  Biso   1.000  C
  C28      1.0000 0.59370  0.66210  0.58440  Biso   1.000  C
  C29      1.0000 0.99590  0.21970  0.97560  Biso   1.000  C
  C30      1.0000 0.49590  0.28030  0.47560  Biso   1.000  C
  C31      1.0000 0.00410  0.78030  0.02440  Biso   1.000  C
  C32      1.0000 0.50410  0.71970  0.52440  Biso   1.000  C
  C33      1.0000 0.19800  0.28780  0.04460  Biso   1.000  C
  C34      1.0000 0.69800  0.21220  0.54460  Biso   1.000  C
  C35      1.0000 0.80200  0.71220  0.95540  Biso   1.000  C
  C36      1.0000 0.30200  0.78780  0.45540  Biso   1.000  C
  C37      1.0000 0.25660  0.15000  0.92580  Biso   1.000  C
  C38      1.0000 0.75660  0.35000  0.42580  Biso   1.000  C
  C39      1.0000 0.74340  0.85000  0.07420  Biso   1.000  C
  C40      1.0000 0.24340  0.65000  0.57420  Biso   1.000  C
  H1       1.0000 0.90500  0.69000  0.31200  Biso   1.000  H
  H2       1.0000 0.40500  0.81000  0.81200  Biso   1.000  H
  H3       1.0000 0.09500  0.31000  0.68800  Biso   1.000  H
  H4       1.0000 0.59500  0.19000  0.18800  Biso   1.000  H
  H5       1.0000 0.78500  0.69000  0.26010  Biso   1.000  H
  H6       1.0000 0.28500  0.81000  0.76010  Biso   1.000  H
  H7       1.0000 0.21500  0.31000  0.73990  Biso   1.000  H
  H8       1.0000 0.71500  0.19000  0.23990  Biso   1.000  H
  H9       1.0000 0.73456  0.37703  0.08067  Biso   1.000  H
  H10      1.0000 0.23456  0.12297  0.58067  Biso   1.000  H
  H11      1.0000 0.26544  0.62297  0.91933  Biso   1.000  H
  H12      1.0000 0.76544  0.87703  0.41933  Biso   1.000  H
  H13      1.0000 0.57640  0.28838  0.98053  Biso   1.000  H
  H14      1.0000 0.07640  0.21162  0.48053  Biso   1.000  H
  H15      1.0000 0.42360  0.71162  0.01947  Biso   1.000  H
  H16      1.0000 0.92360  0.78838  0.51947  Biso   1.000  H
  H17      1.0000 0.67983  0.13979  0.88516  Biso   1.000  H
  H18      1.0000 0.17983  0.36021  0.38516  Biso   1.000  H
  H19      1.0000 0.32017  0.86021  0.11484  Biso   1.000  H
  H20      1.0000 0.82017  0.63979  0.61484  Biso   1.000  H
  H21      1.0000 0.94964  0.11254  0.87418  Biso   1.000  H
  H22      1.0000 0.44964  0.38746  0.37418  Biso   1.000  H
  H23      1.0000 0.05036  0.88746  0.12582  Biso   1.000  H
  H24      1.0000 0.55036  0.61254  0.62582  Biso   1.000  H
  H25      1.0000 0.19774  0.10697  0.88463  Biso   1.000  H
  H26      1.0000 0.69774  0.39303  0.38463  Biso   1.000  H
  H27      1.0000 0.80226  0.89303  0.11537  Biso   1.000  H
  H28      1.0000 0.30226  0.60697  0.61537  Biso   1.000  H
  H29      1.0000 0.31763  0.05750  0.94638  Biso   1.000  H
  H30      1.0000 0.81763  0.44250  0.44638  Biso   1.000  H
  H31      1.0000 0.68237  0.94250  0.05362  Biso   1.000  H
  H32      1.0000 0.18237  0.55750  0.55362  Biso   1.000  H
  H33      1.0000 0.32251  0.24213  0.90991  Biso   1.000  H
  H34      1.0000 0.82251  0.25787  0.40991  Biso   1.000  H
  H35      1.0000 0.67749  0.75787  0.09009  Biso   1.000  H
  H36      1.0000 0.17749  0.74213  0.59009  Biso   1.000  H
