data_image0
_cell_length_a       10.1238
_cell_length_b       10.2574
_cell_length_c       11.4528
_cell_angle_alpha    76.01
_cell_angle_beta     74.346
_cell_angle_gamma    74.152

_symmetry_space_group_name_H-M    "P 1"
_symmetry_int_tables_number       1

loop_
  _symmetry_equiv_pos_as_xyz
  'x, y, z'

loop_
  _atom_site_label
  _atom_site_occupancy
  _atom_site_fract_x
  _atom_site_fract_y
  _atom_site_fract_z
  _atom_site_thermal_displace_type
  _atom_site_B_iso_or_equiv
  _atom_site_type_symbol
  C1       1.0000 0.57210  0.71450  0.07080  Biso   1.000  C
  C2       1.0000 0.42790  0.28550  0.92920  Biso   1.000  C
  H1       1.0000 0.63040  0.62300  0.07580  Biso   1.000  H
  H2       1.0000 0.36960  0.37700  0.92420  Biso   1.000  H
  H3       1.0000 0.53430  0.73540  0.15220  Biso   1.000  H
  H4       1.0000 0.46570  0.26460  0.84780  Biso   1.000  H
  H5       1.0000 0.62720  0.77940  0.02220  Biso   1.000  H
  H6       1.0000 0.37280  0.22060  0.97780  Biso   1.000  H
  O1       1.0000 0.45960  0.72280  0.01470  Biso   1.000  O
  O2       1.0000 0.54040  0.27720  0.98530  Biso   1.000  O
  Cu1      1.0000 0.90068  0.43547  0.38999  Biso   1.000  Cu
  Cu2      1.0000 0.09932  0.56453  0.61001  Biso   1.000  Cu
  O3       1.0000 0.81540  0.58090  0.52620  Biso   1.000  O
  O4       1.0000 0.18460  0.41910  0.47380  Biso   1.000  O
  O5       1.0000 0.89510  0.61470  0.67740  Biso   1.000  O
  O6       1.0000 0.10490  0.38530  0.32260  Biso   1.000  O
  O7       1.0000 0.30020  0.56960  0.61230  Biso   1.000  O
  O8       1.0000 0.69980  0.43040  0.38770  Biso   1.000  O
  O9       1.0000 0.15680  0.68400  0.75490  Biso   1.000  O
  O10      1.0000 0.84320  0.31600  0.24510  Biso   1.000  O
  N1       1.0000 0.89300  0.60360  0.25390  Biso   1.000  N
  N2       1.0000 0.10700  0.39640  0.74610  Biso   1.000  N
  N3       1.0000 0.90720  0.27560  0.53230  Biso   1.000  N
  N4       1.0000 0.09280  0.72440  0.46770  Biso   1.000  N
  C3       1.0000 0.79800  0.60780  0.62950  Biso   1.000  C
  C4       1.0000 0.20200  0.39220  0.37050  Biso   1.000  C
  C5       1.0000 0.65020  0.63810  0.70730  Biso   1.000  C
  C6       1.0000 0.34980  0.36190  0.29270  Biso   1.000  C
  C7       1.0000 0.53830  0.62140  0.66720  Biso   1.000  C
  C8       1.0000 0.46170  0.37860  0.33280  Biso   1.000  C
  H7       1.0000 0.55440  0.59070  0.59350  Biso   1.000  H
  H8       1.0000 0.44560  0.40930  0.40650  Biso   1.000  H
  C9       1.0000 0.40210  0.65120  0.73880  Biso   1.000  C
  C10      1.0000 0.59790  0.34880  0.26120  Biso   1.000  C
  C11      1.0000 0.37920  0.69530  0.84870  Biso   1.000  C
  C12      1.0000 0.62080  0.30470  0.15130  Biso   1.000  C
  H9       1.0000 0.28820  0.71600  0.89570  Biso   1.000  H
  H10      1.0000 0.71180  0.28400  0.10430  Biso   1.000  H
  C13      1.0000 0.49110  0.70900  0.88970  Biso   1.000  C
  C14      1.0000 0.50890  0.29100  0.11030  Biso   1.000  C
  C15      1.0000 0.62690  0.67990  0.81950  Biso   1.000  C
  C16      1.0000 0.37310  0.32010  0.18050  Biso   1.000  C
  H11      1.0000 0.70200  0.68830  0.84710  Biso   1.000  H
  H12      1.0000 0.29800  0.31170  0.15290  Biso   1.000  H
  C17      1.0000 0.27670  0.63490  0.69920  Biso   1.000  C
  C18      1.0000 0.72330  0.36510  0.30080  Biso   1.000  C
  C19      1.0000 0.01320  0.16390  0.53230  Biso   1.000  C
  C20      1.0000 0.98680  0.83610  0.46770  Biso   1.000  C
  H13      1.0000 0.08510  0.15850  0.46200  Biso   1.000  H
  H14      1.0000 0.91490  0.84150  0.53800  Biso   1.000  H
  C21      1.0000 0.02110  0.05710  0.63080  Biso   1.000  C
  C22      1.0000 0.97890  0.94290  0.36920  Biso   1.000  C
  H15      1.0000 0.09460  0.97980  0.62430  Biso   1.000  H
  H16      1.0000 0.90540  0.02020  0.37570  Biso   1.000  H
  C23      1.0000 0.92210  0.06340  0.73800  Biso   1.000  C
  C24      1.0000 0.07790  0.93660  0.26200  Biso   1.000  C
  C25      1.0000 0.81380  0.18180  0.74050  Biso   1.000  C
  C26      1.0000 0.18620  0.81820  0.25950  Biso   1.000  C
  H17      1.0000 0.74510  0.19270  0.81220  Biso   1.000  H
  H18      1.0000 0.25490  0.80730  0.18780  Biso   1.000  H
  C27      1.0000 0.80890  0.28200  0.63690  Biso   1.000  C
  C28      1.0000 0.19110  0.71800  0.36310  Biso   1.000  C
  H19      1.0000 0.73360  0.35800  0.63950  Biso   1.000  H
  H20      1.0000 0.26640  0.64200  0.36050  Biso   1.000  H
  C29      1.0000 0.93480  0.94930  0.84320  Biso   1.000  C
  C30      1.0000 0.06520  0.05070  0.15680  Biso   1.000  C
  H21      1.0000 0.99950  0.86840  0.82690  Biso   1.000  H
  H22      1.0000 0.00050  0.13160  0.17310  Biso   1.000  H
  C31      1.0000 0.86470  0.94930  0.95730  Biso   1.000  C
  C32      1.0000 0.13530  0.05070  0.04270  Biso   1.000  C
  H23      1.0000 0.80210  0.03050  0.97580  Biso   1.000  H
  H24      1.0000 0.19790  0.96950  0.02420  Biso   1.000  H
  C33      1.0000 0.87800  0.82980  0.05870  Biso   1.000  C
  C34      1.0000 0.12200  0.17020  0.94130  Biso   1.000  C
  C35      1.0000 0.79630  0.83880  0.17650  Biso   1.000  C
  C36      1.0000 0.20370  0.16120  0.82350  Biso   1.000  C
  H25      1.0000 0.73470  0.92140  0.19240  Biso   1.000  H
  H26      1.0000 0.26530  0.07860  0.80760  Biso   1.000  H
  C37      1.0000 0.80650  0.72550  0.26980  Biso   1.000  C
  C38      1.0000 0.19350  0.27450  0.73020  Biso   1.000  C
  H27      1.0000 0.75030  0.73410  0.34770  Biso   1.000  H
  H28      1.0000 0.24970  0.26590  0.65230  Biso   1.000  H
  C39      1.0000 0.97280  0.59450  0.14040  Biso   1.000  C
  C40      1.0000 0.02720  0.40550  0.85960  Biso   1.000  C
  H29      1.0000 0.03430  0.51100  0.12740  Biso   1.000  H
  H30      1.0000 0.96570  0.48900  0.87260  Biso   1.000  H
  C41      1.0000 0.96800  0.70290  0.04230  Biso   1.000  C
  C42      1.0000 0.03200  0.29710  0.95770  Biso   1.000  C
  H31      1.0000 0.02480  0.69130  0.96520  Biso   1.000  H
  H32      1.0000 0.97520  0.30870  0.03480  Biso   1.000  H
  O11      1.0000 0.48240  0.68520  0.38630  Biso   1.000  O
  O12      1.0000 0.51760  0.31480  0.61370  Biso   1.000  O
  H33      1.0000 0.43460  0.64090  0.44620  Biso   1.000  H
  H34      1.0000 0.56540  0.35910  0.55380  Biso   1.000  H
  H35      1.0000 0.55960  0.62880  0.36320  Biso   1.000  H
  H36      1.0000 0.44040  0.37120  0.63680  Biso   1.000  H
  C43      1.0000 0.56020  0.81200  0.02890  Biso   1.000  C
  C44      1.0000 0.43980  0.18800  0.97110  Biso   1.000  C
  H37      1.0000 0.62360  0.72380  0.04190  Biso   1.000  H
  H38      1.0000 0.37640  0.27620  0.95810  Biso   1.000  H
  H39      1.0000 0.51970  0.84300  0.10610  Biso   1.000  H
  H40      1.0000 0.48030  0.15700  0.89390  Biso   1.000  H
  H41      1.0000 0.61060  0.87720  0.97290  Biso   1.000  H
  H42      1.0000 0.38940  0.12280  0.02710  Biso   1.000  H
  O13      1.0000 0.44910  0.79970  0.97690  Biso   1.000  O
  O14      1.0000 0.55090  0.20030  0.02310  Biso   1.000  O
