data_image0
_cell_length_a       13.9278
_cell_length_b       16.1724
_cell_length_c       16.418
_cell_angle_alpha    92.1781
_cell_angle_beta     104.258
_cell_angle_gamma    103.091

_symmetry_space_group_name_H-M    "P 1"
_symmetry_int_tables_number       1

loop_
  _symmetry_equiv_pos_as_xyz
  'x, y, z'

loop_
  _atom_site_label
  _atom_site_occupancy
  _atom_site_fract_x
  _atom_site_fract_y
  _atom_site_fract_z
  _atom_site_thermal_displace_type
  _atom_site_B_iso_or_equiv
  _atom_site_type_symbol
  Cu1      1.0000 0.39968  0.50420  0.90530  Biso   1.000  Cu
  Cu2      1.0000 0.60032  0.49580  0.09470  Biso   1.000  Cu
  Cu3      1.0000 0.28728  0.13399  0.54710  Biso   1.000  Cu
  Cu4      1.0000 0.71272  0.86601  0.45290  Biso   1.000  Cu
  Cu5      1.0000 0.03834  0.10329  0.06450  Biso   1.000  Cu
  Cu6      1.0000 0.96166  0.89671  0.93550  Biso   1.000  Cu
  Cl1      1.0000 0.55330  0.46651  0.92515  Biso   1.000  Cl
  Cl2      1.0000 0.44670  0.53349  0.07485  Biso   1.000  Cl
  Cl3      1.0000 0.45902  0.62984  0.85827  Biso   1.000  Cl
  Cl4      1.0000 0.54098  0.37016  0.14173  Biso   1.000  Cl
  Cl5      1.0000 0.40692  0.09462  0.64955  Biso   1.000  Cl
  Cl6      1.0000 0.59308  0.90538  0.35045  Biso   1.000  Cl
  Cl7      1.0000 0.01186  0.96350  0.09596  Biso   1.000  Cl
  Cl8      1.0000 0.98814  0.03650  0.90404  Biso   1.000  Cl
  Cl9      1.0000 0.89823  0.12355  0.09995  Biso   1.000  Cl
  Cl10     1.0000 0.10177  0.87645  0.90005  Biso   1.000  Cl
  N1       1.0000 0.12197  0.51433  0.52648  Biso   1.000  N
  N2       1.0000 0.87803  0.48567  0.47352  Biso   1.000  N
  H1       1.0000 0.13170  0.56660  0.55400  Biso   1.000  H
  H2       1.0000 0.86830  0.43340  0.44600  Biso   1.000  H
  N3       1.0000 0.19812  0.46888  0.33172  Biso   1.000  N
  N4       1.0000 0.80188  0.53112  0.66828  Biso   1.000  N
  H3       1.0000 0.16230  0.48330  0.28780  Biso   1.000  H
  H4       1.0000 0.83770  0.51670  0.71220  Biso   1.000  H
  N5       1.0000 0.19467  0.41876  0.78936  Biso   1.000  N
  N6       1.0000 0.80533  0.58124  0.21064  Biso   1.000  N
  N7       1.0000 0.12776  0.23077  0.55355  Biso   1.000  N
  N8       1.0000 0.87224  0.76923  0.44645  Biso   1.000  N
  N9       1.0000 0.37188  0.26825  0.43538  Biso   1.000  N
  N10      1.0000 0.62812  0.73175  0.56462  Biso   1.000  N
  N11      1.0000 0.21288  0.25116  0.14997  Biso   1.000  N
  N12      1.0000 0.78712  0.74884  0.85003  Biso   1.000  N
  C1       1.0000 0.10870  0.50496  0.43561  Biso   1.000  C
  C2       1.0000 0.89130  0.49504  0.56439  Biso   1.000  C
  H5       1.0000 0.07720  0.55000  0.40970  Biso   1.000  H
  H6       1.0000 0.92280  0.45000  0.59030  Biso   1.000  H
  H7       1.0000 0.06210  0.44890  0.41140  Biso   1.000  H
  H8       1.0000 0.93790  0.55110  0.58860  Biso   1.000  H
  C3       1.0000 0.21140  0.51160  0.41481  Biso   1.000  C
  C4       1.0000 0.78860  0.48840  0.58519  Biso   1.000  C
  H9       1.0000 0.24630  0.57250  0.41660  Biso   1.000  H
  H10      1.0000 0.75370  0.42750  0.58340  Biso   1.000  H
  H11      1.0000 0.25530  0.48550  0.45800  Biso   1.000  H
  H12      1.0000 0.74470  0.51450  0.54200  Biso   1.000  H
  C5       1.0000 0.13226  0.45008  0.57381  Biso   1.000  C
  C6       1.0000 0.86774  0.54992  0.42619  Biso   1.000  C
  N13      1.0000 0.14997  0.46771  0.65811  Biso   1.000  N
  N14      1.0000 0.85003  0.53229  0.34189  Biso   1.000  N
  C7       1.0000 0.16738  0.40330  0.70163  Biso   1.000  C
  C8       1.0000 0.83262  0.59670  0.29837  Biso   1.000  C
  N15      1.0000 0.16565  0.32490  0.67131  Biso   1.000  N
  N16      1.0000 0.83435  0.67510  0.32869  Biso   1.000  N
  C9       1.0000 0.13877  0.31415  0.58694  Biso   1.000  C
  C10      1.0000 0.86123  0.68585  0.41306  Biso   1.000  C
  N17      1.0000 0.12359  0.37274  0.53433  Biso   1.000  N
  N18      1.0000 0.87641  0.62726  0.46567  Biso   1.000  N
  C11      1.0000 0.23080  0.39888  0.32031  Biso   1.000  C
  C12      1.0000 0.76920  0.60112  0.67969  Biso   1.000  C
  N19      1.0000 0.28790  0.37138  0.38702  Biso   1.000  N
  N20      1.0000 0.71210  0.62862  0.61298  Biso   1.000  N
  C13      1.0000 0.31644  0.30146  0.36827  Biso   1.000  C
  C14      1.0000 0.68356  0.69854  0.63173  Biso   1.000  C
  N21      1.0000 0.29499  0.25806  0.29200  Biso   1.000  N
  N22      1.0000 0.70501  0.74194  0.70800  Biso   1.000  N
  C15      1.0000 0.23980  0.29336  0.23148  Biso   1.000  C
  C16      1.0000 0.76020  0.70664  0.76852  Biso   1.000  C
  N23      1.0000 0.20408  0.36190  0.23946  Biso   1.000  N
  N24      1.0000 0.79592  0.63810  0.76054  Biso   1.000  N
  C17      1.0000 0.18290  0.49343  0.83000  Biso   1.000  C
  C18      1.0000 0.81710  0.50657  0.17000  Biso   1.000  C
  N25      1.0000 0.26403  0.53699  0.88969  Biso   1.000  N
  N26      1.0000 0.73597  0.46301  0.11031  Biso   1.000  N
  C19      1.0000 0.25530  0.60726  0.93220  Biso   1.000  C
  C20      1.0000 0.74470  0.39274  0.06780  Biso   1.000  C
  H13      1.0000 0.31260  0.63910  0.97470  Biso   1.000  H
  H14      1.0000 0.68740  0.36090  0.02530  Biso   1.000  H
  C21      1.0000 0.16530  0.63410  0.91540  Biso   1.000  C
  C22      1.0000 0.83470  0.36590  0.08460  Biso   1.000  C
  H15      1.0000 0.16130  0.68390  0.94570  Biso   1.000  H
  H16      1.0000 0.83870  0.31610  0.05430  Biso   1.000  H
  C23      1.0000 0.08170  0.58750  0.85440  Biso   1.000  C
  C24      1.0000 0.91830  0.41250  0.14560  Biso   1.000  C
  H17      1.0000 0.01910  0.60460  0.84270  Biso   1.000  H
  H18      1.0000 0.98090  0.39540  0.15730  Biso   1.000  H
  C25      1.0000 0.08940  0.51579  0.81040  Biso   1.000  C
  C26      1.0000 0.91060  0.48421  0.18960  Biso   1.000  C
  H19      1.0000 0.03280  0.48270  0.76810  Biso   1.000  H
  H20      1.0000 0.96720  0.51730  0.23190  Biso   1.000  H
  C27      1.0000 0.22725  0.35573  0.84152  Biso   1.000  C
  C28      1.0000 0.77275  0.64427  0.15848  Biso   1.000  C
  N27      1.0000 0.32003  0.38118  0.89542  Biso   1.000  N
  N28      1.0000 0.67997  0.61882  0.10458  Biso   1.000  N
  C29      1.0000 0.35420  0.32422  0.94546  Biso   1.000  C
  C30      1.0000 0.64580  0.67578  0.05454  Biso   1.000  C
  H21      1.0000 0.41950  0.34150  0.98470  Biso   1.000  H
  H22      1.0000 0.58050  0.65850  0.01530  Biso   1.000  H
  C31      1.0000 0.29800  0.24202  0.94168  Biso   1.000  C
  C32      1.0000 0.70200  0.75798  0.05832  Biso   1.000  C
  H23      1.0000 0.32520  0.20270  0.97640  Biso   1.000  H
  H24      1.0000 0.67480  0.79730  0.02360  Biso   1.000  H
  C33      1.0000 0.20130  0.21676  0.88685  Biso   1.000  C
  C34      1.0000 0.79870  0.78324  0.11315  Biso   1.000  C
  H25      1.0000 0.16090  0.16030  0.88400  Biso   1.000  H
  H26      1.0000 0.83910  0.83970  0.11600  Biso   1.000  H
  C35      1.0000 0.16440  0.27535  0.83610  Biso   1.000  C
  C36      1.0000 0.83560  0.72465  0.16390  Biso   1.000  C
  H27      1.0000 0.09780  0.26050  0.79870  Biso   1.000  H
  H28      1.0000 0.90220  0.73950  0.20130  Biso   1.000  H
  C37      1.0000 0.11270  0.20472  0.46693  Biso   1.000  C
  C38      1.0000 0.88730  0.79528  0.53307  Biso   1.000  C
  N29      1.0000 0.16778  0.15066  0.45181  Biso   1.000  N
  N30      1.0000 0.83222  0.84934  0.54819  Biso   1.000  N
  C39      1.0000 0.14900  0.11570  0.37182  Biso   1.000  C
  C40      1.0000 0.85100  0.88430  0.62818  Biso   1.000  C
  H29      1.0000 0.18470  0.07470  0.36110  Biso   1.000  H
  H30      1.0000 0.81530  0.92530  0.63890  Biso   1.000  H
  C41      1.0000 0.08040  0.13683  0.30530  Biso   1.000  C
  C42      1.0000 0.91960  0.86317  0.69470  Biso   1.000  C
  H31      1.0000 0.06960  0.11160  0.24960  Biso   1.000  H
  H32      1.0000 0.93040  0.88840  0.75040  Biso   1.000  H
  C43      1.0000 0.02710  0.19563  0.32109  Biso   1.000  C
  C44      1.0000 0.97290  0.80437  0.67891  Biso   1.000  C
  H33      1.0000 0.98050  0.21230  0.27580  Biso   1.000  H
  H34      1.0000 0.01950  0.78770  0.72420  Biso   1.000  H
  C45      1.0000 0.04200  0.23008  0.40312  Biso   1.000  C
  C46      1.0000 0.95800  0.76992  0.59688  Biso   1.000  C
  H35      1.0000 0.00530  0.26970  0.41540  Biso   1.000  H
  H36      1.0000 0.99470  0.73030  0.58460  Biso   1.000  H
  C47      1.0000 0.11970  0.16505  0.60954  Biso   1.000  C
  C48      1.0000 0.88030  0.83495  0.39046  Biso   1.000  C
  N31      1.0000 0.18950  0.11916  0.62022  Biso   1.000  N
  N32      1.0000 0.81050  0.88084  0.37978  Biso   1.000  N
  C49      1.0000 0.18340  0.05750  0.67397  Biso   1.000  C
  C50      1.0000 0.81660  0.94250  0.32603  Biso   1.000  C
  H37      1.0000 0.23220  0.02400  0.68190  Biso   1.000  H
  H38      1.0000 0.76780  0.97600  0.31810  Biso   1.000  H
  C51      1.0000 0.10940  0.04160  0.71737  Biso   1.000  C
  C52      1.0000 0.89060  0.95840  0.28263  Biso   1.000  C
  H39      1.0000 0.10870  0.99950  0.75620  Biso   1.000  H
  H40      1.0000 0.89130  0.00050  0.24380  Biso   1.000  H
  C53      1.0000 0.03620  0.08793  0.70350  Biso   1.000  C
  C54      1.0000 0.96380  0.91207  0.29650  Biso   1.000  C
  H41      1.0000 0.98300  0.07690  0.73130  Biso   1.000  H
  H42      1.0000 0.01700  0.92310  0.26870  Biso   1.000  H
  C55      1.0000 0.04080  0.15076  0.64854  Biso   1.000  C
  C56      1.0000 0.95920  0.84924  0.35146  Biso   1.000  C
  H43      1.0000 0.99090  0.18330  0.63790  Biso   1.000  H
  H44      1.0000 0.00910  0.81670  0.36210  Biso   1.000  H
  C57      1.0000 0.40550  0.31231  0.51882  Biso   1.000  C
  C58      1.0000 0.59450  0.68769  0.48118  Biso   1.000  C
  N33      1.0000 0.36780  0.27267  0.57763  Biso   1.000  N
  N34      1.0000 0.63220  0.72733  0.42237  Biso   1.000  N
  C59      1.0000 0.40200  0.31030  0.65750  Biso   1.000  C
  C60      1.0000 0.59800  0.68970  0.34250  Biso   1.000  C
  H45      1.0000 0.37620  0.28210  0.70020  Biso   1.000  H
  H46      1.0000 0.62380  0.71790  0.29980  Biso   1.000  H
  C61      1.0000 0.47220  0.38750  0.68020  Biso   1.000  C
  C62      1.0000 0.52780  0.61250  0.31980  Biso   1.000  C
  H47      1.0000 0.49380  0.41250  0.73700  Biso   1.000  H
  H48      1.0000 0.50620  0.58750  0.26300  Biso   1.000  H
  C63      1.0000 0.51130  0.42830  0.61730  Biso   1.000  C
  C64      1.0000 0.48870  0.57170  0.38270  Biso   1.000  C
  H49      1.0000 0.56040  0.48150  0.63090  Biso   1.000  H
  H50      1.0000 0.43960  0.51850  0.36910  Biso   1.000  H
  C65      1.0000 0.47750  0.39010  0.53530  Biso   1.000  C
  C66      1.0000 0.52250  0.60990  0.46470  Biso   1.000  C
  H51      1.0000 0.50280  0.41620  0.49140  Biso   1.000  H
  H52      1.0000 0.49720  0.58380  0.50860  Biso   1.000  H
  C67      1.0000 0.40420  0.19200  0.42223  Biso   1.000  C
  C68      1.0000 0.59580  0.80800  0.57777  Biso   1.000  C
  N35      1.0000 0.37130  0.12712  0.46265  Biso   1.000  N
  N36      1.0000 0.62870  0.87288  0.53735  Biso   1.000  N
  C69      1.0000 0.40050  0.05380  0.45120  Biso   1.000  C
  C70      1.0000 0.59950  0.94620  0.54880  Biso   1.000  C
  H53      1.0000 0.37830  0.00680  0.48060  Biso   1.000  H
  H54      1.0000 0.62170  0.99320  0.51940  Biso   1.000  H
  C71      1.0000 0.46140  0.04570  0.39830  Biso   1.000  C
  C72      1.0000 0.53860  0.95430  0.60170  Biso   1.000  C
  H55      1.0000 0.47940  0.99330  0.39020  Biso   1.000  H
  H56      1.0000 0.52060  0.00670  0.60980  Biso   1.000  H
  C73      1.0000 0.49580  0.11430  0.35740  Biso   1.000  C
  C74      1.0000 0.50420  0.88570  0.64260  Biso   1.000  C
  H57      1.0000 0.53820  0.10980  0.32090  Biso   1.000  H
  H58      1.0000 0.46180  0.89020  0.67910  Biso   1.000  H
  C75      1.0000 0.46830  0.19020  0.36960  Biso   1.000  C
  C76      1.0000 0.53170  0.80980  0.63040  Biso   1.000  C
  H59      1.0000 0.49230  0.23900  0.34300  Biso   1.000  H
  H60      1.0000 0.50770  0.76100  0.65700  Biso   1.000  H
  C77      1.0000 0.15020  0.28208  0.08132  Biso   1.000  C
  C78      1.0000 0.84980  0.71792  0.91868  Biso   1.000  C
  N37      1.0000 0.06697  0.22474  0.03584  Biso   1.000  N
  N38      1.0000 0.93303  0.77526  0.96416  Biso   1.000  N
  C79      1.0000 0.00370  0.25140  0.97194  Biso   1.000  C
  C80      1.0000 0.99630  0.74860  0.02806  Biso   1.000  C
  H61      1.0000 0.94560  0.21090  0.93820  Biso   1.000  H
  H62      1.0000 0.05440  0.78910  0.06180  Biso   1.000  H
  C81      1.0000 0.01960  0.33480  0.95353  Biso   1.000  C
  C82      1.0000 0.98040  0.66520  0.04647  Biso   1.000  C
  H63      1.0000 0.97170  0.35240  0.91010  Biso   1.000  H
  H64      1.0000 0.02830  0.64760  0.08990  Biso   1.000  H
  C83      1.0000 0.10750  0.39264  0.99996  Biso   1.000  C
  C84      1.0000 0.89250  0.60736  0.00004  Biso   1.000  C
  H65      1.0000 0.12110  0.45050  0.98780  Biso   1.000  H
  H66      1.0000 0.87890  0.54950  0.01220  Biso   1.000  H
  C85      1.0000 0.17510  0.36619  0.06370  Biso   1.000  C
  C86      1.0000 0.82490  0.63381  0.93630  Biso   1.000  C
  H67      1.0000 0.23690  0.40450  0.09470  Biso   1.000  H
  H68      1.0000 0.76310  0.59550  0.90530  Biso   1.000  H
  C87      1.0000 0.25680  0.18328  0.13151  Biso   1.000  C
  C88      1.0000 0.74320  0.81672  0.86849  Biso   1.000  C
  N39      1.0000 0.19117  0.11385  0.08506  Biso   1.000  N
  N40      1.0000 0.80883  0.88615  0.91494  Biso   1.000  N
  C89      1.0000 0.23010  0.05181  0.05764  Biso   1.000  C
  C90      1.0000 0.76990  0.94819  0.94236  Biso   1.000  C
  H69      1.0000 0.18450  0.00340  0.02290  Biso   1.000  H
  H70      1.0000 0.81550  0.99660  0.97710  Biso   1.000  H
  C91      1.0000 0.33280  0.05620  0.07810  Biso   1.000  C
  C92      1.0000 0.66720  0.94380  0.92190  Biso   1.000  C
  H71      1.0000 0.35780  0.01180  0.05760  Biso   1.000  H
  H72      1.0000 0.64220  0.98820  0.94240  Biso   1.000  H
  C93      1.0000 0.40000  0.12673  0.12943  Biso   1.000  C
  C94      1.0000 0.60000  0.87327  0.87057  Biso   1.000  C
  H73      1.0000 0.47120  0.13010  0.14590  Biso   1.000  H
  H74      1.0000 0.52880  0.86990  0.85410  Biso   1.000  H
  C95      1.0000 0.36200  0.19178  0.15620  Biso   1.000  C
  C96      1.0000 0.63800  0.80822  0.84380  Biso   1.000  C
  H75      1.0000 0.40640  0.24090  0.19050  Biso   1.000  H
  H76      1.0000 0.59360  0.75910  0.80950  Biso   1.000  H
  Cl11     1.0000 0.09500  0.70954  0.28414  Biso   1.000  Cl
  Cl12     1.0000 0.90500  0.29046  0.71586  Biso   1.000  Cl
  O1       1.0000 0.35330  0.81750  0.00810  Biso   1.000  O
  O2       1.0000 0.64670  0.18250  0.99190  Biso   1.000  O
  C97      1.0000 0.31120  0.81400  0.07810  Biso   1.000  C
  C98      1.0000 0.68880  0.18600  0.92190  Biso   1.000  C
  H77      1.0000 0.26490  0.75720  0.07630  Biso   1.000  H
  H78      1.0000 0.73510  0.24280  0.92370  Biso   1.000  H
  H79      1.0000 0.27160  0.85770  0.07760  Biso   1.000  H
  H80      1.0000 0.72840  0.14230  0.92240  Biso   1.000  H
  C99      1.0000 0.39840  0.83020  0.15620  Biso   1.000  C
  C100     1.0000 0.60160  0.16980  0.84380  Biso   1.000  C
  H81      1.0000 0.42870  0.89200  0.17210  Biso   1.000  H
  H82      1.0000 0.57130  0.10800  0.82790  Biso   1.000  H
  H83      1.0000 0.37700  0.80380  0.20440  Biso   1.000  H
  H84      1.0000 0.62300  0.19620  0.79560  Biso   1.000  H
  C101     1.0000 0.47030  0.78720  0.12710  Biso   1.000  C
  C102     1.0000 0.52970  0.21280  0.87290  Biso   1.000  C
  H85      1.0000 0.45030  0.72470  0.12890  Biso   1.000  H
  H86      1.0000 0.54970  0.27530  0.87110  Biso   1.000  H
  H87      1.0000 0.54140  0.80960  0.16180  Biso   1.000  H
  H88      1.0000 0.45860  0.19040  0.83820  Biso   1.000  H
  C103     1.0000 0.45840  0.81030  0.03650  Biso   1.000  C
  C104     1.0000 0.54160  0.18970  0.96350  Biso   1.000  C
  H89      1.0000 0.50680  0.86500  0.03470  Biso   1.000  H
  H90      1.0000 0.49320  0.13500  0.96530  Biso   1.000  H
  H91      1.0000 0.47070  0.76520  0.00080  Biso   1.000  H
  H92      1.0000 0.52930  0.23480  0.99920  Biso   1.000  H
  O3       1.0000 0.14992  0.56792  0.19222  Biso   1.000  O
  O4       1.0000 0.85008  0.43208  0.80778  Biso   1.000  O
  H93      1.0000 0.12600  0.60820  0.20750  Biso   1.000  H
  H94      1.0000 0.87400  0.39180  0.79250  Biso   1.000  H
  C105     1.0000 0.24820  0.59330  0.17930  Biso   1.000  C
  C106     1.0000 0.75180  0.40670  0.82070  Biso   1.000  C
  H95      1.0000 0.29250  0.63500  0.22560  Biso   1.000  H
  H96      1.0000 0.70750  0.36500  0.77440  Biso   1.000  H
  H97      1.0000 0.24380  0.61890  0.12570  Biso   1.000  H
  H98      1.0000 0.75620  0.38110  0.87430  Biso   1.000  H
  H99      1.0000 0.27670  0.54330  0.17700  Biso   1.000  H
  H100     1.0000 0.72330  0.45670  0.82300  Biso   1.000  H
  O5       1.0000 0.51802  0.38939  0.32546  Biso   1.000  O
  O6       1.0000 0.48198  0.61061  0.67454  Biso   1.000  O
  H101     1.0000 0.51760  0.39580  0.26450  Biso   1.000  H
  H102     1.0000 0.48240  0.60420  0.73550  Biso   1.000  H
  C107     1.0000 0.62400  0.41730  0.36870  Biso   1.000  C
  C108     1.0000 0.37600  0.58270  0.63130  Biso   1.000  C
  H103     1.0000 0.63860  0.47670  0.39350  Biso   1.000  H
  H104     1.0000 0.36140  0.52330  0.60650  Biso   1.000  H
  H105     1.0000 0.66530  0.41420  0.32910  Biso   1.000  H
  H106     1.0000 0.33470  0.58580  0.67090  Biso   1.000  H
  H107     1.0000 0.64060  0.38110  0.41410  Biso   1.000  H
  H108     1.0000 0.35940  0.61890  0.58590  Biso   1.000  H
  O7       1.0000 0.20520  0.91890  0.31920  Biso   1.000  O
  O8       1.0000 0.79480  0.08110  0.68080  Biso   1.000  O
  H109     1.0000 0.18920  0.86520  0.31760  Biso   1.000  H
  H110     1.0000 0.81080  0.13480  0.68240  Biso   1.000  H
  C109     1.0000 0.24410  0.94290  0.25060  Biso   1.000  C
  C110     1.0000 0.75590  0.05710  0.74940  Biso   1.000  C
  H111     1.0000 0.24750  0.00270  0.24430  Biso   1.000  H
  H112     1.0000 0.75250  0.99730  0.75570  Biso   1.000  H
  H113     1.0000 0.20310  0.90720  0.19960  Biso   1.000  H
  H114     1.0000 0.79690  0.09280  0.80040  Biso   1.000  H
  H115     1.0000 0.31530  0.93430  0.26260  Biso   1.000  H
  H116     1.0000 0.68470  0.06570  0.73740  Biso   1.000  H
  O9       1.0000 0.20250  0.97260  0.48310  Biso   1.000  O
  O10      1.0000 0.79750  0.02740  0.51690  Biso   1.000  O
  H117     1.0000 0.18210  0.95800  0.43030  Biso   1.000  H
  H118     1.0000 0.81790  0.04200  0.56970  Biso   1.000  H
  C111     1.0000 0.19160  0.89770  0.52800  Biso   1.000  C
  C112     1.0000 0.80840  0.10230  0.47200  Biso   1.000  C
  H119     1.0000 0.26240  0.88890  0.55580  Biso   1.000  H
  H120     1.0000 0.73760  0.11110  0.44420  Biso   1.000  H
  H121     1.0000 0.15790  0.84460  0.48710  Biso   1.000  H
  H122     1.0000 0.84210  0.15540  0.51290  Biso   1.000  H
  H123     1.0000 0.15570  0.89910  0.56970  Biso   1.000  H
  H124     1.0000 0.84430  0.10090  0.43030  Biso   1.000  H
  O11      1.0000 0.26950  0.73150  0.43870  Biso   1.000  O
  O12      1.0000 0.73050  0.26850  0.56130  Biso   1.000  O
  H125     1.0000 0.21650  0.74590  0.40770  Biso   1.000  H
  H126     1.0000 0.78350  0.25410  0.59230  Biso   1.000  H
  C113     1.0000 0.35750  0.77640  0.41210  Biso   1.000  C
  C114     1.0000 0.64250  0.22360  0.58790  Biso   1.000  C
  H127     1.0000 0.33880  0.81830  0.37460  Biso   1.000  H
  H128     1.0000 0.66120  0.18170  0.62540  Biso   1.000  H
  H129     1.0000 0.38070  0.73390  0.38330  Biso   1.000  H
  H130     1.0000 0.61930  0.26610  0.61670  Biso   1.000  H
  H131     1.0000 0.41030  0.80390  0.46270  Biso   1.000  H
  H132     1.0000 0.58970  0.19610  0.53730  Biso   1.000  H
