data_image0
_cell_length_a       15.598
_cell_length_b       9.1215
_cell_length_c       18.2202
_cell_angle_alpha    90
_cell_angle_beta     107.959
_cell_angle_gamma    90

_symmetry_space_group_name_H-M    "P 1"
_symmetry_int_tables_number       1

loop_
  _symmetry_equiv_pos_as_xyz
  'x, y, z'

loop_
  _atom_site_label
  _atom_site_occupancy
  _atom_site_fract_x
  _atom_site_fract_y
  _atom_site_fract_z
  _atom_site_thermal_displace_type
  _atom_site_B_iso_or_equiv
  _atom_site_type_symbol
  Cu1      1.0000 0.00000  0.45675  0.25000  Biso   1.000  Cu
  Cu2      1.0000 0.50000  0.95675  0.25000  Biso   1.000  Cu
  Cu3      1.0000 0.00000  0.54325  0.75000  Biso   1.000  Cu
  Cu4      1.0000 0.50000  0.04325  0.75000  Biso   1.000  Cu
  Cl1      1.0000 0.31598  0.54724  0.39140  Biso   1.000  Cl
  Cl2      1.0000 0.68402  0.54724  0.10860  Biso   1.000  Cl
  Cl3      1.0000 0.81598  0.04724  0.39140  Biso   1.000  Cl
  Cl4      1.0000 0.18402  0.04724  0.10860  Biso   1.000  Cl
  Cl5      1.0000 0.68402  0.45276  0.60860  Biso   1.000  Cl
  Cl6      1.0000 0.31598  0.45276  0.89140  Biso   1.000  Cl
  Cl7      1.0000 0.18402  0.95276  0.60860  Biso   1.000  Cl
  Cl8      1.0000 0.81598  0.95276  0.89140  Biso   1.000  Cl
  Cl9      1.0000 0.44904  0.76608  0.50041  Biso   1.000  Cl
  Cl10     1.0000 0.55096  0.76608  0.99959  Biso   1.000  Cl
  Cl11     1.0000 0.94904  0.26608  0.50041  Biso   1.000  Cl
  Cl12     1.0000 0.05096  0.26608  0.99959  Biso   1.000  Cl
  Cl13     1.0000 0.55096  0.23392  0.49959  Biso   1.000  Cl
  Cl14     1.0000 0.44904  0.23392  0.00041  Biso   1.000  Cl
  Cl15     1.0000 0.05096  0.73392  0.49959  Biso   1.000  Cl
  Cl16     1.0000 0.94904  0.73392  0.00041  Biso   1.000  Cl
  N1       1.0000 0.10516  0.46207  0.20778  Biso   1.000  N
  N2       1.0000 0.89484  0.46207  0.29222  Biso   1.000  N
  N3       1.0000 0.60516  0.96207  0.20778  Biso   1.000  N
  N4       1.0000 0.39484  0.96207  0.29222  Biso   1.000  N
  N5       1.0000 0.89484  0.53793  0.79222  Biso   1.000  N
  N6       1.0000 0.10516  0.53793  0.70778  Biso   1.000  N
  N7       1.0000 0.39484  0.03793  0.79222  Biso   1.000  N
  N8       1.0000 0.60516  0.03793  0.70778  Biso   1.000  N
  N9       1.0000 0.00000  0.23000  0.25000  Biso   1.000  N
  N10      1.0000 0.50000  0.73000  0.25000  Biso   1.000  N
  N11      1.0000 0.00000  0.77000  0.75000  Biso   1.000  N
  N12      1.0000 0.50000  0.27000  0.75000  Biso   1.000  N
  O1       1.0000 0.12413  0.41990  0.41200  Biso   1.000  O
  O2       1.0000 0.87587  0.41990  0.08800  Biso   1.000  O
  O3       1.0000 0.62413  0.91990  0.41200  Biso   1.000  O
  O4       1.0000 0.37587  0.91990  0.08800  Biso   1.000  O
  O5       1.0000 0.87587  0.58010  0.58800  Biso   1.000  O
  O6       1.0000 0.12413  0.58010  0.91200  Biso   1.000  O
  O7       1.0000 0.37587  0.08010  0.58800  Biso   1.000  O
  O8       1.0000 0.62413  0.08010  0.91200  Biso   1.000  O
  O9       1.0000 0.07620  0.60664  0.33277  Biso   1.000  O
  O10      1.0000 0.92380  0.60664  0.16723  Biso   1.000  O
  O11      1.0000 0.57620  0.10664  0.33277  Biso   1.000  O
  O12      1.0000 0.42380  0.10664  0.16723  Biso   1.000  O
  O13      1.0000 0.92380  0.39336  0.66723  Biso   1.000  O
  O14      1.0000 0.07620  0.39336  0.83277  Biso   1.000  O
  O15      1.0000 0.42380  0.89336  0.66723  Biso   1.000  O
  O16      1.0000 0.57620  0.89336  0.83277  Biso   1.000  O
  C1       1.0000 0.12433  0.54850  0.39398  Biso   1.000  C
  C2       1.0000 0.87567  0.54850  0.10602  Biso   1.000  C
  C3       1.0000 0.62433  0.04850  0.39398  Biso   1.000  C
  C4       1.0000 0.37567  0.04850  0.10602  Biso   1.000  C
  C5       1.0000 0.87567  0.45150  0.60602  Biso   1.000  C
  C6       1.0000 0.12433  0.45150  0.89398  Biso   1.000  C
  C7       1.0000 0.37567  0.95150  0.60602  Biso   1.000  C
  C8       1.0000 0.62433  0.95150  0.89398  Biso   1.000  C
  C9       1.0000 0.18946  0.65290  0.44956  Biso   1.000  C
  C10      1.0000 0.81054  0.65290  0.05044  Biso   1.000  C
  C11      1.0000 0.68946  0.15290  0.44956  Biso   1.000  C
  C12      1.0000 0.31054  0.15290  0.05044  Biso   1.000  C
  C13      1.0000 0.81054  0.34710  0.55044  Biso   1.000  C
  C14      1.0000 0.18946  0.34710  0.94956  Biso   1.000  C
  C15      1.0000 0.31054  0.84710  0.55044  Biso   1.000  C
  C16      1.0000 0.68946  0.84710  0.94956  Biso   1.000  C
  C17      1.0000 0.27933  0.65870  0.45242  Biso   1.000  C
  C18      1.0000 0.72067  0.65870  0.04758  Biso   1.000  C
  C19      1.0000 0.77933  0.15870  0.45242  Biso   1.000  C
  C20      1.0000 0.22067  0.15870  0.04758  Biso   1.000  C
  C21      1.0000 0.72067  0.34130  0.54758  Biso   1.000  C
  C22      1.0000 0.27933  0.34130  0.95242  Biso   1.000  C
  C23      1.0000 0.22067  0.84130  0.54758  Biso   1.000  C
  C24      1.0000 0.77933  0.84130  0.95242  Biso   1.000  C
  C25      1.0000 0.33870  0.75530  0.50162  Biso   1.000  C
  C26      1.0000 0.66130  0.75530  0.99838  Biso   1.000  C
  C27      1.0000 0.83870  0.25530  0.50162  Biso   1.000  C
  C28      1.0000 0.16130  0.25530  0.99838  Biso   1.000  C
  C29      1.0000 0.66130  0.24470  0.49838  Biso   1.000  C
  C30      1.0000 0.33870  0.24470  0.00162  Biso   1.000  C
  C31      1.0000 0.16130  0.74470  0.49838  Biso   1.000  C
  C32      1.0000 0.83870  0.74470  0.00162  Biso   1.000  C
  C33      1.0000 0.17516  0.37070  0.23137  Biso   1.000  C
  C34      1.0000 0.82484  0.37070  0.26863  Biso   1.000  C
  C35      1.0000 0.67516  0.87070  0.23137  Biso   1.000  C
  C36      1.0000 0.32484  0.87070  0.26863  Biso   1.000  C
  C37      1.0000 0.82484  0.62930  0.76863  Biso   1.000  C
  C38      1.0000 0.17516  0.62930  0.73137  Biso   1.000  C
  C39      1.0000 0.32484  0.12930  0.76863  Biso   1.000  C
  C40      1.0000 0.67516  0.12930  0.73137  Biso   1.000  C
  H1       1.0000 0.17390  0.29800  0.26680  Biso   1.000  H
  H2       1.0000 0.82610  0.29800  0.23320  Biso   1.000  H
  H3       1.0000 0.67390  0.79800  0.26680  Biso   1.000  H
  H4       1.0000 0.32610  0.79800  0.23320  Biso   1.000  H
  H5       1.0000 0.82610  0.70200  0.73320  Biso   1.000  H
  H6       1.0000 0.17390  0.70200  0.76680  Biso   1.000  H
  H7       1.0000 0.32610  0.20200  0.73320  Biso   1.000  H
  H8       1.0000 0.67390  0.20200  0.76680  Biso   1.000  H
  C41      1.0000 0.24890  0.37960  0.20559  Biso   1.000  C
  C42      1.0000 0.75110  0.37960  0.29441  Biso   1.000  C
  C43      1.0000 0.74890  0.87960  0.20559  Biso   1.000  C
  C44      1.0000 0.25110  0.87960  0.29441  Biso   1.000  C
  C45      1.0000 0.75110  0.62040  0.79441  Biso   1.000  C
  C46      1.0000 0.24890  0.62040  0.70559  Biso   1.000  C
  C47      1.0000 0.25110  0.12040  0.79441  Biso   1.000  C
  C48      1.0000 0.74890  0.12040  0.70559  Biso   1.000  C
  H9       1.0000 0.29630  0.31350  0.22310  Biso   1.000  H
  H10      1.0000 0.70370  0.31350  0.27690  Biso   1.000  H
  H11      1.0000 0.79630  0.81350  0.22310  Biso   1.000  H
  H12      1.0000 0.20370  0.81350  0.27690  Biso   1.000  H
  H13      1.0000 0.70370  0.68650  0.77690  Biso   1.000  H
  H14      1.0000 0.29630  0.68650  0.72310  Biso   1.000  H
  H15      1.0000 0.20370  0.18650  0.77690  Biso   1.000  H
  H16      1.0000 0.79630  0.18650  0.72310  Biso   1.000  H
  C49      1.0000 0.25191  0.48670  0.15389  Biso   1.000  C
  C50      1.0000 0.74809  0.48670  0.34611  Biso   1.000  C
  C51      1.0000 0.75191  0.98670  0.15389  Biso   1.000  C
  C52      1.0000 0.24809  0.98670  0.34611  Biso   1.000  C
  C53      1.0000 0.74809  0.51330  0.84611  Biso   1.000  C
  C54      1.0000 0.25191  0.51330  0.65389  Biso   1.000  C
  C55      1.0000 0.24809  0.01330  0.84611  Biso   1.000  C
  C56      1.0000 0.75191  0.01330  0.65389  Biso   1.000  C
  H17      1.0000 0.30090  0.49380  0.13520  Biso   1.000  H
  H18      1.0000 0.69910  0.49380  0.36480  Biso   1.000  H
  H19      1.0000 0.80090  0.99380  0.13520  Biso   1.000  H
  H20      1.0000 0.19910  0.99380  0.36480  Biso   1.000  H
  H21      1.0000 0.69910  0.50620  0.86480  Biso   1.000  H
  H22      1.0000 0.30090  0.50620  0.63520  Biso   1.000  H
  H23      1.0000 0.19910  0.00620  0.86480  Biso   1.000  H
  H24      1.0000 0.80090  0.00620  0.63520  Biso   1.000  H
  C57      1.0000 0.18167  0.58300  0.13015  Biso   1.000  C
  C58      1.0000 0.81833  0.58300  0.36985  Biso   1.000  C
  C59      1.0000 0.68167  0.08300  0.13015  Biso   1.000  C
  C60      1.0000 0.31833  0.08300  0.36985  Biso   1.000  C
  C61      1.0000 0.81833  0.41700  0.86985  Biso   1.000  C
  C62      1.0000 0.18167  0.41700  0.63015  Biso   1.000  C
  C63      1.0000 0.31833  0.91700  0.86985  Biso   1.000  C
  C64      1.0000 0.68167  0.91700  0.63015  Biso   1.000  C
  H25      1.0000 0.18230  0.65730  0.09530  Biso   1.000  H
  H26      1.0000 0.81770  0.65730  0.40470  Biso   1.000  H
  H27      1.0000 0.68230  0.15730  0.09530  Biso   1.000  H
  H28      1.0000 0.31770  0.15730  0.40470  Biso   1.000  H
  H29      1.0000 0.81770  0.34270  0.90470  Biso   1.000  H
  H30      1.0000 0.18230  0.34270  0.59530  Biso   1.000  H
  H31      1.0000 0.31770  0.84270  0.90470  Biso   1.000  H
  H32      1.0000 0.68230  0.84270  0.59530  Biso   1.000  H
  C65      1.0000 0.10993  0.56840  0.15865  Biso   1.000  C
  C66      1.0000 0.89007  0.56840  0.34135  Biso   1.000  C
  C67      1.0000 0.60993  0.06840  0.15865  Biso   1.000  C
  C68      1.0000 0.39007  0.06840  0.34135  Biso   1.000  C
  C69      1.0000 0.89007  0.43160  0.84135  Biso   1.000  C
  C70      1.0000 0.10993  0.43160  0.65865  Biso   1.000  C
  C71      1.0000 0.39007  0.93160  0.84135  Biso   1.000  C
  C72      1.0000 0.60993  0.93160  0.65865  Biso   1.000  C
  H33      1.0000 0.06280  0.63530  0.14300  Biso   1.000  H
  H34      1.0000 0.93720  0.63530  0.35700  Biso   1.000  H
  H35      1.0000 0.56280  0.13530  0.14300  Biso   1.000  H
  H36      1.0000 0.43720  0.13530  0.35700  Biso   1.000  H
  H37      1.0000 0.93720  0.36470  0.85700  Biso   1.000  H
  H38      1.0000 0.06280  0.36470  0.64300  Biso   1.000  H
  H39      1.0000 0.43720  0.86470  0.85700  Biso   1.000  H
  H40      1.0000 0.56280  0.86470  0.64300  Biso   1.000  H
  C73      1.0000 0.99188  0.15520  0.18505  Biso   1.000  C
  C74      1.0000 0.00812  0.15520  0.31495  Biso   1.000  C
  C75      1.0000 0.49188  0.65520  0.18505  Biso   1.000  C
  C76      1.0000 0.50812  0.65520  0.31495  Biso   1.000  C
  C77      1.0000 0.00812  0.84480  0.81495  Biso   1.000  C
  C78      1.0000 0.99188  0.84480  0.68505  Biso   1.000  C
  C79      1.0000 0.50812  0.34480  0.81495  Biso   1.000  C
  C80      1.0000 0.49188  0.34480  0.68505  Biso   1.000  C
  H41      1.0000 0.98580  0.20660  0.13970  Biso   1.000  H
  H42      1.0000 0.01420  0.20660  0.36030  Biso   1.000  H
  H43      1.0000 0.48580  0.70660  0.13970  Biso   1.000  H
  H44      1.0000 0.51420  0.70660  0.36030  Biso   1.000  H
  H45      1.0000 0.01420  0.79340  0.86030  Biso   1.000  H
  H46      1.0000 0.98580  0.79340  0.63970  Biso   1.000  H
  H47      1.0000 0.51420  0.29340  0.86030  Biso   1.000  H
  H48      1.0000 0.48580  0.29340  0.63970  Biso   1.000  H
  C81      1.0000 0.99219  0.00420  0.18337  Biso   1.000  C
  C82      1.0000 0.00781  0.00420  0.31663  Biso   1.000  C
  C83      1.0000 0.49219  0.50420  0.18337  Biso   1.000  C
  C84      1.0000 0.50781  0.50420  0.31663  Biso   1.000  C
  C85      1.0000 0.00781  0.99580  0.81663  Biso   1.000  C
  C86      1.0000 0.99219  0.99580  0.68337  Biso   1.000  C
  C87      1.0000 0.50781  0.49580  0.81663  Biso   1.000  C
  C88      1.0000 0.49219  0.49580  0.68337  Biso   1.000  C
  H49      1.0000 0.98720  0.95460  0.13760  Biso   1.000  H
  H50      1.0000 0.01280  0.95460  0.36240  Biso   1.000  H
  H51      1.0000 0.48720  0.45460  0.13760  Biso   1.000  H
  H52      1.0000 0.51280  0.45460  0.36240  Biso   1.000  H
  H53      1.0000 0.01280  0.04540  0.86240  Biso   1.000  H
  H54      1.0000 0.98720  0.04540  0.63760  Biso   1.000  H
  H55      1.0000 0.51280  0.54540  0.86240  Biso   1.000  H
  H56      1.0000 0.48720  0.54540  0.63760  Biso   1.000  H
  C89      1.0000 0.00000  0.92810  0.25000  Biso   1.000  C
  C90      1.0000 0.50000  0.42810  0.25000  Biso   1.000  C
  C91      1.0000 0.00000  0.07190  0.75000  Biso   1.000  C
  C92      1.0000 0.50000  0.57190  0.75000  Biso   1.000  C
  H57      1.0000 0.00000  0.82610  0.25000  Biso   1.000  H
  H58      1.0000 0.50000  0.32610  0.25000  Biso   1.000  H
  H59      1.0000 0.00000  0.17390  0.75000  Biso   1.000  H
  H60      1.0000 0.50000  0.67390  0.75000  Biso   1.000  H
