data_image0
_cell_length_a       16.5065
_cell_length_b       9.2452
_cell_length_c       9.7468
_cell_angle_alpha    90
_cell_angle_beta     101.617
_cell_angle_gamma    90

_symmetry_space_group_name_H-M    "P 1"
_symmetry_int_tables_number       1

loop_
  _symmetry_equiv_pos_as_xyz
  'x, y, z'

loop_
  _atom_site_label
  _atom_site_occupancy
  _atom_site_fract_x
  _atom_site_fract_y
  _atom_site_fract_z
  _atom_site_thermal_displace_type
  _atom_site_B_iso_or_equiv
  _atom_site_type_symbol
  Cu1      1.0000 0.31534  0.10277  0.58263  Biso   1.000  Cu
  Cu2      1.0000 0.31534  0.39723  0.08263  Biso   1.000  Cu
  Cu3      1.0000 0.68466  0.89723  0.41737  Biso   1.000  Cu
  Cu4      1.0000 0.68466  0.60277  0.91737  Biso   1.000  Cu
  O1       1.0000 0.30421  0.20301  0.75710  Biso   1.000  O
  O2       1.0000 0.30421  0.29699  0.25710  Biso   1.000  O
  O3       1.0000 0.69579  0.79699  0.24290  Biso   1.000  O
  O4       1.0000 0.69579  0.70301  0.74290  Biso   1.000  O
  O5       1.0000 0.35761  0.20412  0.98616  Biso   1.000  O
  O6       1.0000 0.35761  0.29588  0.48616  Biso   1.000  O
  O7       1.0000 0.64239  0.79588  0.01384  Biso   1.000  O
  O8       1.0000 0.64239  0.70412  0.51384  Biso   1.000  O
  O9       1.0000 0.34087  0.95790  0.45042  Biso   1.000  O
  O10      1.0000 0.34087  0.54210  0.95042  Biso   1.000  O
  O11      1.0000 0.65913  0.04210  0.54958  Biso   1.000  O
  O12      1.0000 0.65913  0.45790  0.04958  Biso   1.000  O
  O13      1.0000 0.43566  0.79570  0.42169  Biso   1.000  O
  O14      1.0000 0.43566  0.70430  0.92169  Biso   1.000  O
  O15      1.0000 0.56434  0.20430  0.57831  Biso   1.000  O
  O16      1.0000 0.56434  0.29570  0.07831  Biso   1.000  O
  N1       1.0000 0.42724  0.05360  0.69059  Biso   1.000  N
  N2       1.0000 0.42724  0.44640  0.19059  Biso   1.000  N
  N3       1.0000 0.57276  0.94640  0.30941  Biso   1.000  N
  N4       1.0000 0.57276  0.55360  0.80941  Biso   1.000  N
  H1       1.0000 0.45660  0.10900  0.66770  Biso   1.000  H
  H2       1.0000 0.45660  0.39100  0.16770  Biso   1.000  H
  H3       1.0000 0.54340  0.89100  0.33230  Biso   1.000  H
  H4       1.0000 0.54340  0.60900  0.83230  Biso   1.000  H
  N5       1.0000 0.19558  0.11420  0.49380  Biso   1.000  N
  N6       1.0000 0.19558  0.38580  0.99380  Biso   1.000  N
  N7       1.0000 0.80442  0.88580  0.50620  Biso   1.000  N
  N8       1.0000 0.80442  0.61420  0.00620  Biso   1.000  N
  N9       1.0000 0.91515  0.05780  0.18280  Biso   1.000  N
  N10      1.0000 0.91515  0.44220  0.68280  Biso   1.000  N
  N11      1.0000 0.08485  0.94220  0.81720  Biso   1.000  N
  N12      1.0000 0.08485  0.55780  0.31720  Biso   1.000  N
  C1       1.0000 0.42901  0.07030  0.84180  Biso   1.000  C
  C2       1.0000 0.42901  0.42970  0.34180  Biso   1.000  C
  C3       1.0000 0.57099  0.92970  0.15820  Biso   1.000  C
  C4       1.0000 0.57099  0.57030  0.65820  Biso   1.000  C
  H5       1.0000 0.42370  0.97620  0.88330  Biso   1.000  H
  H6       1.0000 0.42370  0.52380  0.38330  Biso   1.000  H
  H7       1.0000 0.57630  0.02380  0.11670  Biso   1.000  H
  H8       1.0000 0.57630  0.47620  0.61670  Biso   1.000  H
  H9       1.0000 0.48140  0.11210  0.88760  Biso   1.000  H
  H10      1.0000 0.48140  0.38790  0.38760  Biso   1.000  H
  H11      1.0000 0.51860  0.88790  0.11240  Biso   1.000  H
  H12      1.0000 0.51860  0.61210  0.61240  Biso   1.000  H
  C5       1.0000 0.35849  0.16750  0.86370  Biso   1.000  C
  C6       1.0000 0.35849  0.33250  0.36370  Biso   1.000  C
  C7       1.0000 0.64151  0.83250  0.13630  Biso   1.000  C
  C8       1.0000 0.64151  0.66750  0.63630  Biso   1.000  C
  C9       1.0000 0.45042  0.91020  0.64460  Biso   1.000  C
  C10      1.0000 0.45042  0.58980  0.14460  Biso   1.000  C
  C11      1.0000 0.54958  0.08980  0.35540  Biso   1.000  C
  C12      1.0000 0.54958  0.41020  0.85540  Biso   1.000  C
  H13      1.0000 0.50990  0.90540  0.65220  Biso   1.000  H
  H14      1.0000 0.50990  0.59460  0.15220  Biso   1.000  H
  H15      1.0000 0.49010  0.09460  0.34780  Biso   1.000  H
  H16      1.0000 0.49010  0.40540  0.84780  Biso   1.000  H
  H17      1.0000 0.43460  0.83580  0.70430  Biso   1.000  H
  H18      1.0000 0.43460  0.66420  0.20430  Biso   1.000  H
  H19      1.0000 0.56540  0.16420  0.29570  Biso   1.000  H
  H20      1.0000 0.56540  0.33580  0.79570  Biso   1.000  H
  C13      1.0000 0.40701  0.88430  0.49330  Biso   1.000  C
  C14      1.0000 0.40701  0.61570  0.99330  Biso   1.000  C
  C15      1.0000 0.59299  0.11570  0.50670  Biso   1.000  C
  C16      1.0000 0.59299  0.38430  0.00670  Biso   1.000  C
  C17      1.0000 0.14212  0.18810  0.55280  Biso   1.000  C
  C18      1.0000 0.14212  0.31190  0.05280  Biso   1.000  C
  C19      1.0000 0.85788  0.81190  0.44720  Biso   1.000  C
  C20      1.0000 0.85788  0.68810  0.94720  Biso   1.000  C
  H21      1.0000 0.16170  0.23580  0.63690  Biso   1.000  H
  H22      1.0000 0.16170  0.26420  0.13690  Biso   1.000  H
  H23      1.0000 0.83830  0.76420  0.36310  Biso   1.000  H
  H24      1.0000 0.83830  0.73580  0.86310  Biso   1.000  H
  C21      1.0000 0.05879  0.19640  0.49390  Biso   1.000  C
  C22      1.0000 0.05879  0.30360  0.99390  Biso   1.000  C
  C23      1.0000 0.94121  0.80360  0.50610  Biso   1.000  C
  C24      1.0000 0.94121  0.69640  0.00610  Biso   1.000  C
  H25      1.0000 0.02390  0.24980  0.53850  Biso   1.000  H
  H26      1.0000 0.02390  0.25020  0.03850  Biso   1.000  H
  H27      1.0000 0.97610  0.75020  0.46150  Biso   1.000  H
  H28      1.0000 0.97610  0.74980  0.96150  Biso   1.000  H
  C25      1.0000 0.02681  0.12650  0.36960  Biso   1.000  C
  C26      1.0000 0.02681  0.37350  0.86960  Biso   1.000  C
  C27      1.0000 0.97319  0.87350  0.63040  Biso   1.000  C
  C28      1.0000 0.97319  0.62650  0.13040  Biso   1.000  C
  C29      1.0000 0.08249  0.05030  0.31020  Biso   1.000  C
  C30      1.0000 0.08249  0.44970  0.81020  Biso   1.000  C
  C31      1.0000 0.91751  0.94970  0.68980  Biso   1.000  C
  C32      1.0000 0.91751  0.55030  0.18980  Biso   1.000  C
  H29      1.0000 0.06430  0.00040  0.22680  Biso   1.000  H
  H30      1.0000 0.06430  0.49960  0.72680  Biso   1.000  H
  H31      1.0000 0.93570  0.99960  0.77320  Biso   1.000  H
  H32      1.0000 0.93570  0.50040  0.27320  Biso   1.000  H
  C33      1.0000 0.16520  0.04740  0.37330  Biso   1.000  C
  C34      1.0000 0.16520  0.45260  0.87330  Biso   1.000  C
  C35      1.0000 0.83480  0.95260  0.62670  Biso   1.000  C
  C36      1.0000 0.83480  0.54740  0.12670  Biso   1.000  C
  H33      1.0000 0.20150  0.99630  0.32960  Biso   1.000  H
  H34      1.0000 0.20150  0.50370  0.82960  Biso   1.000  H
  H35      1.0000 0.79850  0.00370  0.67040  Biso   1.000  H
  H36      1.0000 0.79850  0.49630  0.17040  Biso   1.000  H
  C37      1.0000 0.93720  0.12980  0.30410  Biso   1.000  C
  C38      1.0000 0.93720  0.37020  0.80410  Biso   1.000  C
  C39      1.0000 0.06280  0.87020  0.69590  Biso   1.000  C
  C40      1.0000 0.06280  0.62980  0.19590  Biso   1.000  C
  C41      1.0000 0.83420  0.06070  0.12180  Biso   1.000  C
  C42      1.0000 0.83420  0.43930  0.62180  Biso   1.000  C
  C43      1.0000 0.16580  0.93930  0.87820  Biso   1.000  C
  C44      1.0000 0.16580  0.56070  0.37820  Biso   1.000  C
  H37      1.0000 0.81760  0.00970  0.03860  Biso   1.000  H
  H38      1.0000 0.81760  0.49030  0.53860  Biso   1.000  H
  H39      1.0000 0.18240  0.99030  0.96140  Biso   1.000  H
  H40      1.0000 0.18240  0.50970  0.46140  Biso   1.000  H
  C45      1.0000 0.77510  0.13320  0.17370  Biso   1.000  C
  C46      1.0000 0.77510  0.36680  0.67370  Biso   1.000  C
  C47      1.0000 0.22490  0.86680  0.82630  Biso   1.000  C
  C48      1.0000 0.22490  0.63320  0.32630  Biso   1.000  C
  H41      1.0000 0.72030  0.13480  0.12590  Biso   1.000  H
  H42      1.0000 0.72030  0.36520  0.62590  Biso   1.000  H
  H43      1.0000 0.27970  0.86520  0.87410  Biso   1.000  H
  H44      1.0000 0.27970  0.63480  0.37410  Biso   1.000  H
  C49      1.0000 0.79880  0.20310  0.29770  Biso   1.000  C
  C50      1.0000 0.79880  0.29690  0.79770  Biso   1.000  C
  C51      1.0000 0.20120  0.79690  0.70230  Biso   1.000  C
  C52      1.0000 0.20120  0.70310  0.20230  Biso   1.000  C
  H45      1.0000 0.76000  0.25200  0.33740  Biso   1.000  H
  H46      1.0000 0.76000  0.24800  0.83740  Biso   1.000  H
  H47      1.0000 0.24000  0.74800  0.66260  Biso   1.000  H
  H48      1.0000 0.24000  0.75200  0.16260  Biso   1.000  H
  C53      1.0000 0.88096  0.20120  0.36480  Biso   1.000  C
  C54      1.0000 0.88096  0.29880  0.86480  Biso   1.000  C
  C55      1.0000 0.11904  0.79880  0.63520  Biso   1.000  C
  C56      1.0000 0.11904  0.70120  0.13520  Biso   1.000  C
  H49      1.0000 0.89780  0.24810  0.45020  Biso   1.000  H
  H50      1.0000 0.89780  0.25190  0.95020  Biso   1.000  H
  H51      1.0000 0.10220  0.75190  0.54980  Biso   1.000  H
  H52      1.0000 0.10220  0.74810  0.04980  Biso   1.000  H
  O17      1.0000 0.34748  0.55630  0.64300  Biso   1.000  O
  O18      1.0000 0.34748  0.94370  0.14300  Biso   1.000  O
  O19      1.0000 0.65252  0.44370  0.35700  Biso   1.000  O
  O20      1.0000 0.65252  0.05630  0.85700  Biso   1.000  O
  H53      1.0000 0.35370  0.55770  0.72050  Biso   1.000  H
  H54      1.0000 0.35370  0.94230  0.22050  Biso   1.000  H
  H55      1.0000 0.64630  0.44230  0.27950  Biso   1.000  H
  H56      1.0000 0.64630  0.05770  0.77950  Biso   1.000  H
  H57      1.0000 0.35390  0.47730  0.61830  Biso   1.000  H
  H58      1.0000 0.35390  0.02270  0.11830  Biso   1.000  H
  H59      1.0000 0.64610  0.52270  0.38170  Biso   1.000  H
  H60      1.0000 0.64610  0.97730  0.88170  Biso   1.000  H
