data_image0
_cell_length_a       14.1204
_cell_length_b       6.0967
_cell_length_c       7.7964
_cell_angle_alpha    90
_cell_angle_beta     90
_cell_angle_gamma    90

_symmetry_space_group_name_H-M    "P 1"
_symmetry_int_tables_number       1

loop_
  _symmetry_equiv_pos_as_xyz
  'x, y, z'

loop_
  _atom_site_label
  _atom_site_occupancy
  _atom_site_fract_x
  _atom_site_fract_y
  _atom_site_fract_z
  _atom_site_thermal_displace_type
  _atom_site_B_iso_or_equiv
  _atom_site_type_symbol
  I1       1.0000 0.50000  0.21287  0.25021  Biso   1.000  I
  I2       1.0000 0.00000  0.78713  0.75021  Biso   1.000  I
  Cu1      1.0000 0.50000  0.19897  0.62204  Biso   1.000  Cu
  Cu2      1.0000 0.00000  0.80103  0.12204  Biso   1.000  Cu
  N1       1.0000 0.64310  0.19980  0.64540  Biso   1.000  N
  N2       1.0000 0.85690  0.80020  0.14540  Biso   1.000  N
  N3       1.0000 0.14310  0.80020  0.14540  Biso   1.000  N
  N4       1.0000 0.35690  0.19980  0.64540  Biso   1.000  N
  N5       1.0000 0.78950  0.10740  0.70100  Biso   1.000  N
  N6       1.0000 0.71050  0.89260  0.20100  Biso   1.000  N
  N7       1.0000 0.28950  0.89260  0.20100  Biso   1.000  N
  N8       1.0000 0.21050  0.10740  0.70100  Biso   1.000  N
  H1       1.0000 0.83830  0.02920  0.73540  Biso   1.000  H
  H2       1.0000 0.66170  0.97080  0.23540  Biso   1.000  H
  H3       1.0000 0.33830  0.97080  0.23540  Biso   1.000  H
  H4       1.0000 0.16170  0.02920  0.73540  Biso   1.000  H
  N9       1.0000 0.50000  0.51560  0.66790  Biso   1.000  N
  N10      1.0000 0.00000  0.48440  0.16790  Biso   1.000  N
  N11      1.0000 0.50000  0.88310  0.67080  Biso   1.000  N
  N12      1.0000 0.00000  0.11690  0.17080  Biso   1.000  N
  C1       1.0000 0.70350  0.36660  0.59940  Biso   1.000  C
  C2       1.0000 0.79650  0.63340  0.09940  Biso   1.000  C
  C3       1.0000 0.20350  0.63340  0.09940  Biso   1.000  C
  C4       1.0000 0.29650  0.36660  0.59940  Biso   1.000  C
  H5       1.0000 0.68440  0.50170  0.54970  Biso   1.000  H
  H6       1.0000 0.81560  0.49830  0.04970  Biso   1.000  H
  H7       1.0000 0.18440  0.49830  0.04970  Biso   1.000  H
  H8       1.0000 0.31560  0.50170  0.54970  Biso   1.000  H
  C5       1.0000 0.79300  0.31170  0.63460  Biso   1.000  C
  C6       1.0000 0.70700  0.68830  0.13460  Biso   1.000  C
  C7       1.0000 0.29300  0.68830  0.13460  Biso   1.000  C
  C8       1.0000 0.20700  0.31170  0.63460  Biso   1.000  C
  H9       1.0000 0.84790  0.39870  0.61670  Biso   1.000  H
  H10      1.0000 0.65210  0.60130  0.11670  Biso   1.000  H
  H11      1.0000 0.34790  0.60130  0.11670  Biso   1.000  H
  H12      1.0000 0.15210  0.39870  0.61670  Biso   1.000  H
  C9       1.0000 0.69900  0.04470  0.70500  Biso   1.000  C
  C10      1.0000 0.80100  0.95530  0.20500  Biso   1.000  C
  C11      1.0000 0.19900  0.95530  0.20500  Biso   1.000  C
  C12      1.0000 0.30100  0.04470  0.70500  Biso   1.000  C
  H13      1.0000 0.67770  0.90630  0.74570  Biso   1.000  H
  H14      1.0000 0.82230  0.09370  0.24570  Biso   1.000  H
  H15      1.0000 0.17770  0.09370  0.24570  Biso   1.000  H
  H16      1.0000 0.32230  0.90630  0.74570  Biso   1.000  H
  C13      1.0000 0.50000  0.58540  0.83420  Biso   1.000  C
  C14      1.0000 0.00000  0.41460  0.33420  Biso   1.000  C
  H17      1.0000 0.50000  0.49360  0.93270  Biso   1.000  H
  H18      1.0000 0.00000  0.50640  0.43270  Biso   1.000  H
  C15      1.0000 0.50000  0.70190  0.57640  Biso   1.000  C
  C16      1.0000 0.00000  0.29810  0.07640  Biso   1.000  C
  H19      1.0000 0.50000  0.70400  0.45460  Biso   1.000  H
  H20      1.0000 0.00000  0.29600  0.95460  Biso   1.000  H
  C17      1.0000 0.50000  0.80780  0.83540  Biso   1.000  C
  C18      1.0000 0.00000  0.19220  0.33540  Biso   1.000  C
  H21      1.0000 0.50000  0.89710  0.93520  Biso   1.000  H
  H22      1.0000 0.00000  0.10290  0.43520  Biso   1.000  H
