data_image0
_cell_length_a       13.9745
_cell_length_b       26.897
_cell_length_c       17.034
_cell_angle_alpha    90
_cell_angle_beta     90
_cell_angle_gamma    90

_symmetry_space_group_name_H-M    "P 1"
_symmetry_int_tables_number       1

loop_
  _symmetry_equiv_pos_as_xyz
  'x, y, z'

loop_
  _atom_site_label
  _atom_site_occupancy
  _atom_site_fract_x
  _atom_site_fract_y
  _atom_site_fract_z
  _atom_site_thermal_displace_type
  _atom_site_B_iso_or_equiv
  _atom_site_type_symbol
  Cu1      1.0000 0.59612  0.20256  0.25155  Biso   1.000  Cu
  Cu2      1.0000 0.90388  0.29744  0.75155  Biso   1.000  Cu
  Cu3      1.0000 0.40388  0.20256  0.24845  Biso   1.000  Cu
  Cu4      1.0000 0.09612  0.29744  0.74845  Biso   1.000  Cu
  Cu5      1.0000 0.40388  0.79744  0.74845  Biso   1.000  Cu
  Cu6      1.0000 0.09612  0.70256  0.24845  Biso   1.000  Cu
  Cu7      1.0000 0.59612  0.79744  0.75155  Biso   1.000  Cu
  Cu8      1.0000 0.90388  0.70256  0.25155  Biso   1.000  Cu
  C1       1.0000 0.62450  0.12770  0.88440  Biso   1.000  C
  C2       1.0000 0.87550  0.37230  0.38440  Biso   1.000  C
  C3       1.0000 0.37550  0.12770  0.61560  Biso   1.000  C
  C4       1.0000 0.12450  0.37230  0.11560  Biso   1.000  C
  C5       1.0000 0.37550  0.87230  0.11560  Biso   1.000  C
  C6       1.0000 0.12450  0.62770  0.61560  Biso   1.000  C
  C7       1.0000 0.62450  0.87230  0.38440  Biso   1.000  C
  C8       1.0000 0.87550  0.62770  0.88440  Biso   1.000  C
  C9       1.0000 0.62730  0.10720  0.80470  Biso   1.000  C
  C10      1.0000 0.87270  0.39280  0.30470  Biso   1.000  C
  C11      1.0000 0.37270  0.10720  0.69530  Biso   1.000  C
  C12      1.0000 0.12730  0.39280  0.19530  Biso   1.000  C
  C13      1.0000 0.37270  0.89280  0.19530  Biso   1.000  C
  C14      1.0000 0.12730  0.60720  0.69530  Biso   1.000  C
  C15      1.0000 0.62730  0.89280  0.30470  Biso   1.000  C
  C16      1.0000 0.87270  0.60720  0.80470  Biso   1.000  C
  C17      1.0000 0.63160  0.05570  0.79290  Biso   1.000  C
  C18      1.0000 0.86840  0.44430  0.29290  Biso   1.000  C
  C19      1.0000 0.36840  0.05570  0.70710  Biso   1.000  C
  C20      1.0000 0.13160  0.44430  0.20710  Biso   1.000  C
  C21      1.0000 0.36840  0.94430  0.20710  Biso   1.000  C
  C22      1.0000 0.13160  0.55570  0.70710  Biso   1.000  C
  C23      1.0000 0.63160  0.94430  0.29290  Biso   1.000  C
  C24      1.0000 0.86840  0.55570  0.79290  Biso   1.000  C
  C25      1.0000 0.63510  0.02280  0.85740  Biso   1.000  C
  C26      1.0000 0.86490  0.47720  0.35740  Biso   1.000  C
  C27      1.0000 0.36490  0.02280  0.64260  Biso   1.000  C
  C28      1.0000 0.13510  0.47720  0.14260  Biso   1.000  C
  C29      1.0000 0.36490  0.97720  0.14260  Biso   1.000  C
  C30      1.0000 0.13510  0.52280  0.64260  Biso   1.000  C
  C31      1.0000 0.63510  0.97720  0.35740  Biso   1.000  C
  C32      1.0000 0.86490  0.52280  0.85740  Biso   1.000  C
  C33      1.0000 0.63010  0.04230  0.93800  Biso   1.000  C
  C34      1.0000 0.86990  0.45770  0.43800  Biso   1.000  C
  C35      1.0000 0.36990  0.04230  0.56200  Biso   1.000  C
  C36      1.0000 0.13010  0.45770  0.06200  Biso   1.000  C
  C37      1.0000 0.36990  0.95770  0.06200  Biso   1.000  C
  C38      1.0000 0.13010  0.54230  0.56200  Biso   1.000  C
  C39      1.0000 0.63010  0.95770  0.43800  Biso   1.000  C
  C40      1.0000 0.86990  0.54230  0.93800  Biso   1.000  C
  C41      1.0000 0.62490  0.13870  0.74030  Biso   1.000  C
  C42      1.0000 0.87510  0.36130  0.24030  Biso   1.000  C
  C43      1.0000 0.37510  0.13870  0.75970  Biso   1.000  C
  C44      1.0000 0.12490  0.36130  0.25970  Biso   1.000  C
  C45      1.0000 0.37510  0.86130  0.25970  Biso   1.000  C
  C46      1.0000 0.12490  0.63870  0.75970  Biso   1.000  C
  C47      1.0000 0.62490  0.86130  0.24030  Biso   1.000  C
  C48      1.0000 0.87510  0.63870  0.74030  Biso   1.000  C
  H1       1.0000 0.62280  0.17370  0.74790  Biso   1.000  H
  H2       1.0000 0.87720  0.32630  0.24790  Biso   1.000  H
  H3       1.0000 0.37720  0.17370  0.75210  Biso   1.000  H
  H4       1.0000 0.12280  0.32630  0.25210  Biso   1.000  H
  H5       1.0000 0.37720  0.82630  0.25210  Biso   1.000  H
  H6       1.0000 0.12280  0.67370  0.75210  Biso   1.000  H
  H7       1.0000 0.62280  0.82630  0.24790  Biso   1.000  H
  H8       1.0000 0.87720  0.67370  0.74790  Biso   1.000  H
  C49      1.0000 0.62550  0.11880  0.66290  Biso   1.000  C
  C50      1.0000 0.87450  0.38120  0.16290  Biso   1.000  C
  C51      1.0000 0.37450  0.11880  0.83710  Biso   1.000  C
  C52      1.0000 0.12550  0.38120  0.33710  Biso   1.000  C
  C53      1.0000 0.37450  0.88120  0.33710  Biso   1.000  C
  C54      1.0000 0.12550  0.61880  0.83710  Biso   1.000  C
  C55      1.0000 0.62550  0.88120  0.16290  Biso   1.000  C
  C56      1.0000 0.87450  0.61880  0.66290  Biso   1.000  C
  H9       1.0000 0.62280  0.14060  0.61900  Biso   1.000  H
  H10      1.0000 0.87720  0.35940  0.11900  Biso   1.000  H
  H11      1.0000 0.37720  0.14060  0.88100  Biso   1.000  H
  H12      1.0000 0.12280  0.35940  0.38100  Biso   1.000  H
  H13      1.0000 0.37720  0.85940  0.38100  Biso   1.000  H
  H14      1.0000 0.12280  0.64060  0.88100  Biso   1.000  H
  H15      1.0000 0.62280  0.85940  0.11900  Biso   1.000  H
  H16      1.0000 0.87720  0.64060  0.61900  Biso   1.000  H
  C57      1.0000 0.62980  0.06970  0.65160  Biso   1.000  C
  C58      1.0000 0.87020  0.43030  0.15160  Biso   1.000  C
  C59      1.0000 0.37020  0.06970  0.84840  Biso   1.000  C
  C60      1.0000 0.12980  0.43030  0.34840  Biso   1.000  C
  C61      1.0000 0.37020  0.93030  0.34840  Biso   1.000  C
  C62      1.0000 0.12980  0.56970  0.84840  Biso   1.000  C
  C63      1.0000 0.62980  0.93030  0.15160  Biso   1.000  C
  C64      1.0000 0.87020  0.56970  0.65160  Biso   1.000  C
  H17      1.0000 0.63020  0.05700  0.59950  Biso   1.000  H
  H18      1.0000 0.86980  0.44300  0.09950  Biso   1.000  H
  H19      1.0000 0.36980  0.05700  0.90050  Biso   1.000  H
  H20      1.0000 0.13020  0.44300  0.40050  Biso   1.000  H
  H21      1.0000 0.36980  0.94300  0.40050  Biso   1.000  H
  H22      1.0000 0.13020  0.55700  0.90050  Biso   1.000  H
  H23      1.0000 0.63020  0.94300  0.09950  Biso   1.000  H
  H24      1.0000 0.86980  0.55700  0.59950  Biso   1.000  H
  C65      1.0000 0.63370  0.03570  0.71590  Biso   1.000  C
  C66      1.0000 0.86630  0.46430  0.21590  Biso   1.000  C
  C67      1.0000 0.36630  0.03570  0.78410  Biso   1.000  C
  C68      1.0000 0.13370  0.46430  0.28410  Biso   1.000  C
  C69      1.0000 0.36630  0.96430  0.28410  Biso   1.000  C
  C70      1.0000 0.13370  0.53570  0.78410  Biso   1.000  C
  C71      1.0000 0.63370  0.96430  0.21590  Biso   1.000  C
  C72      1.0000 0.86630  0.53570  0.71590  Biso   1.000  C
  C73      1.0000 0.64010  0.98430  0.70630  Biso   1.000  C
  C74      1.0000 0.85990  0.51570  0.20630  Biso   1.000  C
  C75      1.0000 0.35990  0.98430  0.79370  Biso   1.000  C
  C76      1.0000 0.14010  0.51570  0.29370  Biso   1.000  C
  C77      1.0000 0.35990  0.01570  0.29370  Biso   1.000  C
  C78      1.0000 0.14010  0.48430  0.79370  Biso   1.000  C
  C79      1.0000 0.64010  0.01570  0.20630  Biso   1.000  C
  C80      1.0000 0.85990  0.48430  0.70630  Biso   1.000  C
  H25      1.0000 0.64020  0.97070  0.65490  Biso   1.000  H
  H26      1.0000 0.85980  0.52930  0.15490  Biso   1.000  H
  H27      1.0000 0.35980  0.97070  0.84510  Biso   1.000  H
  H28      1.0000 0.14020  0.52930  0.34510  Biso   1.000  H
  H29      1.0000 0.35980  0.02930  0.34510  Biso   1.000  H
  H30      1.0000 0.14020  0.47070  0.84510  Biso   1.000  H
  H31      1.0000 0.64020  0.02930  0.15490  Biso   1.000  H
  H32      1.0000 0.85980  0.47070  0.65490  Biso   1.000  H
  C81      1.0000 0.64600  0.95370  0.76830  Biso   1.000  C
  C82      1.0000 0.85400  0.54630  0.26830  Biso   1.000  C
  C83      1.0000 0.35400  0.95370  0.73170  Biso   1.000  C
  C84      1.0000 0.14600  0.54630  0.23170  Biso   1.000  C
  C85      1.0000 0.35400  0.04630  0.23170  Biso   1.000  C
  C86      1.0000 0.14600  0.45370  0.73170  Biso   1.000  C
  C87      1.0000 0.64600  0.04630  0.26830  Biso   1.000  C
  C88      1.0000 0.85400  0.45370  0.76830  Biso   1.000  C
  H33      1.0000 0.65120  0.91890  0.76030  Biso   1.000  H
  H34      1.0000 0.84880  0.58110  0.26030  Biso   1.000  H
  H35      1.0000 0.34880  0.91890  0.73970  Biso   1.000  H
  H36      1.0000 0.15120  0.58110  0.23970  Biso   1.000  H
  H37      1.0000 0.34880  0.08110  0.23970  Biso   1.000  H
  H38      1.0000 0.15120  0.41890  0.73970  Biso   1.000  H
  H39      1.0000 0.65120  0.08110  0.26030  Biso   1.000  H
  H40      1.0000 0.84880  0.41890  0.76030  Biso   1.000  H
  C89      1.0000 0.64450  0.97290  0.84530  Biso   1.000  C
  C90      1.0000 0.85550  0.52710  0.34530  Biso   1.000  C
  C91      1.0000 0.35550  0.97290  0.65470  Biso   1.000  C
  C92      1.0000 0.14450  0.52710  0.15470  Biso   1.000  C
  C93      1.0000 0.35550  0.02710  0.15470  Biso   1.000  C
  C94      1.0000 0.14450  0.47290  0.65470  Biso   1.000  C
  C95      1.0000 0.64450  0.02710  0.34530  Biso   1.000  C
  C96      1.0000 0.85550  0.47290  0.84530  Biso   1.000  C
  H41      1.0000 0.65000  0.95110  0.88880  Biso   1.000  H
  H42      1.0000 0.85000  0.54890  0.38880  Biso   1.000  H
  H43      1.0000 0.35000  0.95110  0.61120  Biso   1.000  H
  H44      1.0000 0.15000  0.54890  0.11120  Biso   1.000  H
  H45      1.0000 0.35000  0.04890  0.11120  Biso   1.000  H
  H46      1.0000 0.15000  0.45110  0.61120  Biso   1.000  H
  H47      1.0000 0.65000  0.04890  0.38880  Biso   1.000  H
  H48      1.0000 0.85000  0.45110  0.88880  Biso   1.000  H
  C97      1.0000 0.62220  0.11384  0.02720  Biso   1.000  C
  C98      1.0000 0.87780  0.38616  0.52720  Biso   1.000  C
  C99      1.0000 0.37780  0.11384  0.47280  Biso   1.000  C
  C100     1.0000 0.12220  0.38616  0.97280  Biso   1.000  C
  C101     1.0000 0.37780  0.88616  0.97280  Biso   1.000  C
  C102     1.0000 0.12220  0.61384  0.47280  Biso   1.000  C
  C103     1.0000 0.62220  0.88616  0.52720  Biso   1.000  C
  C104     1.0000 0.87780  0.61384  0.02720  Biso   1.000  C
  H49      1.0000 0.64670  0.14840  0.02730  Biso   1.000  H
  H50      1.0000 0.85330  0.35160  0.52730  Biso   1.000  H
  H51      1.0000 0.35330  0.14840  0.47270  Biso   1.000  H
  H52      1.0000 0.14670  0.35160  0.97270  Biso   1.000  H
  H53      1.0000 0.35330  0.85160  0.97270  Biso   1.000  H
  H54      1.0000 0.14670  0.64840  0.47270  Biso   1.000  H
  H55      1.0000 0.64670  0.85160  0.52730  Biso   1.000  H
  H56      1.0000 0.85330  0.64840  0.02730  Biso   1.000  H
  H57      1.0000 0.66440  0.09370  0.06140  Biso   1.000  H
  H58      1.0000 0.83560  0.40630  0.56140  Biso   1.000  H
  H59      1.0000 0.33560  0.09370  0.43860  Biso   1.000  H
  H60      1.0000 0.16440  0.40630  0.93860  Biso   1.000  H
  H61      1.0000 0.33560  0.90630  0.93860  Biso   1.000  H
  H62      1.0000 0.16440  0.59370  0.43860  Biso   1.000  H
  H63      1.0000 0.66440  0.90630  0.56140  Biso   1.000  H
  H64      1.0000 0.83560  0.59370  0.06140  Biso   1.000  H
  C105     1.0000 0.52200  0.11336  0.06040  Biso   1.000  C
  C106     1.0000 0.97800  0.38664  0.56040  Biso   1.000  C
  C107     1.0000 0.47800  0.11336  0.43960  Biso   1.000  C
  C108     1.0000 0.02200  0.38664  0.93960  Biso   1.000  C
  C109     1.0000 0.47800  0.88664  0.93960  Biso   1.000  C
  C110     1.0000 0.02200  0.61336  0.43960  Biso   1.000  C
  C111     1.0000 0.52200  0.88664  0.56040  Biso   1.000  C
  C112     1.0000 0.97800  0.61336  0.06040  Biso   1.000  C
  H65      1.0000 0.50240  0.07850  0.06970  Biso   1.000  H
  H66      1.0000 0.99760  0.42150  0.56970  Biso   1.000  H
  H67      1.0000 0.49760  0.07850  0.43030  Biso   1.000  H
  H68      1.0000 0.00240  0.42150  0.93030  Biso   1.000  H
  H69      1.0000 0.49760  0.92150  0.93030  Biso   1.000  H
  H70      1.0000 0.00240  0.57850  0.43030  Biso   1.000  H
  H71      1.0000 0.50240  0.92150  0.56970  Biso   1.000  H
  H72      1.0000 0.99760  0.57850  0.06970  Biso   1.000  H
  H73      1.0000 0.47770  0.12770  0.02100  Biso   1.000  H
  H74      1.0000 0.02230  0.37230  0.52100  Biso   1.000  H
  H75      1.0000 0.52230  0.12770  0.47900  Biso   1.000  H
  H76      1.0000 0.97770  0.37230  0.97900  Biso   1.000  H
  H77      1.0000 0.52230  0.87230  0.97900  Biso   1.000  H
  H78      1.0000 0.97770  0.62770  0.47900  Biso   1.000  H
  H79      1.0000 0.47770  0.87230  0.52100  Biso   1.000  H
  H80      1.0000 0.02230  0.62770  0.02100  Biso   1.000  H
  C113     1.0000 0.51240  0.14219  0.13630  Biso   1.000  C
  C114     1.0000 0.98760  0.35781  0.63630  Biso   1.000  C
  C115     1.0000 0.48760  0.14219  0.36370  Biso   1.000  C
  C116     1.0000 0.01240  0.35781  0.86370  Biso   1.000  C
  C117     1.0000 0.48760  0.85781  0.86370  Biso   1.000  C
  C118     1.0000 0.01240  0.64219  0.36370  Biso   1.000  C
  C119     1.0000 0.51240  0.85781  0.63630  Biso   1.000  C
  C120     1.0000 0.98760  0.64219  0.13630  Biso   1.000  C
  C121     1.0000 0.62580  0.41200  0.48250  Biso   1.000  C
  C122     1.0000 0.87420  0.08800  0.98250  Biso   1.000  C
  C123     1.0000 0.37420  0.41200  0.01750  Biso   1.000  C
  C124     1.0000 0.12580  0.08800  0.51750  Biso   1.000  C
  C125     1.0000 0.37420  0.58800  0.51750  Biso   1.000  C
  C126     1.0000 0.12580  0.91200  0.01750  Biso   1.000  C
  C127     1.0000 0.62580  0.58800  0.98250  Biso   1.000  C
  C128     1.0000 0.87420  0.91200  0.48250  Biso   1.000  C
  C129     1.0000 0.62830  0.46500  0.50320  Biso   1.000  C
  C130     1.0000 0.87170  0.03500  0.00320  Biso   1.000  C
  C131     1.0000 0.37170  0.46500  0.99680  Biso   1.000  C
  C132     1.0000 0.12830  0.03500  0.49680  Biso   1.000  C
  C133     1.0000 0.37170  0.53500  0.49680  Biso   1.000  C
  C134     1.0000 0.12830  0.96500  0.99680  Biso   1.000  C
  C135     1.0000 0.62830  0.53500  0.00320  Biso   1.000  C
  C136     1.0000 0.87170  0.96500  0.50320  Biso   1.000  C
  C137     1.0000 0.62210  0.50180  0.44390  Biso   1.000  C
  C138     1.0000 0.87790  0.99820  0.94390  Biso   1.000  C
  C139     1.0000 0.37790  0.50180  0.05610  Biso   1.000  C
  C140     1.0000 0.12210  0.99820  0.55610  Biso   1.000  C
  C141     1.0000 0.37790  0.49820  0.55610  Biso   1.000  C
  C142     1.0000 0.12210  0.00180  0.05610  Biso   1.000  C
  C143     1.0000 0.62210  0.49820  0.94390  Biso   1.000  C
  C144     1.0000 0.87790  0.00180  0.44390  Biso   1.000  C
  C145     1.0000 0.61140  0.48790  0.36450  Biso   1.000  C
  C146     1.0000 0.88860  0.01210  0.86450  Biso   1.000  C
  C147     1.0000 0.38860  0.48790  0.13550  Biso   1.000  C
  C148     1.0000 0.11140  0.01210  0.63550  Biso   1.000  C
  C149     1.0000 0.38860  0.51210  0.63550  Biso   1.000  C
  C150     1.0000 0.11140  0.98790  0.13550  Biso   1.000  C
  C151     1.0000 0.61140  0.51210  0.86450  Biso   1.000  C
  C152     1.0000 0.88860  0.98790  0.36450  Biso   1.000  C
  C153     1.0000 0.61160  0.43560  0.34340  Biso   1.000  C
  C154     1.0000 0.88840  0.06440  0.84340  Biso   1.000  C
  C155     1.0000 0.38840  0.43560  0.15660  Biso   1.000  C
  C156     1.0000 0.11160  0.06440  0.65660  Biso   1.000  C
  C157     1.0000 0.38840  0.56440  0.65660  Biso   1.000  C
  C158     1.0000 0.11160  0.93560  0.15660  Biso   1.000  C
  C159     1.0000 0.61160  0.56440  0.84340  Biso   1.000  C
  C160     1.0000 0.88840  0.93560  0.34340  Biso   1.000  C
  C161     1.0000 0.63850  0.47800  0.57990  Biso   1.000  C
  C162     1.0000 0.86150  0.02200  0.07990  Biso   1.000  C
  C163     1.0000 0.36150  0.47800  0.92010  Biso   1.000  C
  C164     1.0000 0.13850  0.02200  0.42010  Biso   1.000  C
  C165     1.0000 0.36150  0.52200  0.42010  Biso   1.000  C
  C166     1.0000 0.13850  0.97800  0.92010  Biso   1.000  C
  C167     1.0000 0.63850  0.52200  0.07990  Biso   1.000  C
  C168     1.0000 0.86150  0.97800  0.57990  Biso   1.000  C
  H81      1.0000 0.64310  0.45310  0.61940  Biso   1.000  H
  H82      1.0000 0.85690  0.04690  0.11940  Biso   1.000  H
  H83      1.0000 0.35690  0.45310  0.88060  Biso   1.000  H
  H84      1.0000 0.14310  0.04690  0.38060  Biso   1.000  H
  H85      1.0000 0.35690  0.54690  0.38060  Biso   1.000  H
  H86      1.0000 0.14310  0.95310  0.88060  Biso   1.000  H
  H87      1.0000 0.64310  0.54690  0.11940  Biso   1.000  H
  H88      1.0000 0.85690  0.95310  0.61940  Biso   1.000  H
  C169     1.0000 0.64230  0.52950  0.60040  Biso   1.000  C
  C170     1.0000 0.85770  0.97050  0.10040  Biso   1.000  C
  C171     1.0000 0.35770  0.52950  0.89960  Biso   1.000  C
  C172     1.0000 0.14230  0.97050  0.39960  Biso   1.000  C
  C173     1.0000 0.35770  0.47050  0.39960  Biso   1.000  C
  C174     1.0000 0.14230  0.02950  0.89960  Biso   1.000  C
  C175     1.0000 0.64230  0.47050  0.10040  Biso   1.000  C
  C176     1.0000 0.85770  0.02950  0.60040  Biso   1.000  C
  H89      1.0000 0.64920  0.53890  0.65390  Biso   1.000  H
  H90      1.0000 0.85080  0.96110  0.15390  Biso   1.000  H
  H91      1.0000 0.35080  0.53890  0.84610  Biso   1.000  H
  H92      1.0000 0.14920  0.96110  0.34610  Biso   1.000  H
  H93      1.0000 0.35080  0.46110  0.34610  Biso   1.000  H
  H94      1.0000 0.14920  0.03890  0.84610  Biso   1.000  H
  H95      1.0000 0.64920  0.46110  0.15390  Biso   1.000  H
  H96      1.0000 0.85080  0.03890  0.65390  Biso   1.000  H
  C177     1.0000 0.63600  0.56540  0.54360  Biso   1.000  C
  C178     1.0000 0.86400  0.93460  0.04360  Biso   1.000  C
  C179     1.0000 0.36400  0.56540  0.95640  Biso   1.000  C
  C180     1.0000 0.13600  0.93460  0.45640  Biso   1.000  C
  C181     1.0000 0.36400  0.43460  0.45640  Biso   1.000  C
  C182     1.0000 0.13600  0.06540  0.95640  Biso   1.000  C
  C183     1.0000 0.63600  0.43460  0.04360  Biso   1.000  C
  C184     1.0000 0.86400  0.06540  0.54360  Biso   1.000  C
  H97      1.0000 0.63960  0.59950  0.55820  Biso   1.000  H
  H98      1.0000 0.86040  0.90050  0.05820  Biso   1.000  H
  H99      1.0000 0.36040  0.59950  0.94180  Biso   1.000  H
  H100     1.0000 0.13960  0.90050  0.44180  Biso   1.000  H
  H101     1.0000 0.36040  0.40050  0.44180  Biso   1.000  H
  H102     1.0000 0.13960  0.09950  0.94180  Biso   1.000  H
  H103     1.0000 0.63960  0.40050  0.05820  Biso   1.000  H
  H104     1.0000 0.86040  0.09950  0.55820  Biso   1.000  H
  C185     1.0000 0.62440  0.55290  0.46450  Biso   1.000  C
  C186     1.0000 0.87560  0.94710  0.96450  Biso   1.000  C
  C187     1.0000 0.37560  0.55290  0.03550  Biso   1.000  C
  C188     1.0000 0.12440  0.94710  0.53550  Biso   1.000  C
  C189     1.0000 0.37560  0.44710  0.53550  Biso   1.000  C
  C190     1.0000 0.12440  0.05290  0.03550  Biso   1.000  C
  C191     1.0000 0.62440  0.44710  0.96450  Biso   1.000  C
  C192     1.0000 0.87560  0.05290  0.46450  Biso   1.000  C
  C193     1.0000 0.61700  0.58790  0.40310  Biso   1.000  C
  C194     1.0000 0.88300  0.91210  0.90310  Biso   1.000  C
  C195     1.0000 0.38300  0.58790  0.09690  Biso   1.000  C
  C196     1.0000 0.11700  0.91210  0.59690  Biso   1.000  C
  C197     1.0000 0.38300  0.41210  0.59690  Biso   1.000  C
  C198     1.0000 0.11700  0.08790  0.09690  Biso   1.000  C
  C199     1.0000 0.61700  0.41210  0.90310  Biso   1.000  C
  C200     1.0000 0.88300  0.08790  0.40310  Biso   1.000  C
  H105     1.0000 0.61990  0.62240  0.41510  Biso   1.000  H
  H106     1.0000 0.88010  0.87760  0.91510  Biso   1.000  H
  H107     1.0000 0.38010  0.62240  0.08490  Biso   1.000  H
  H108     1.0000 0.11990  0.87760  0.58490  Biso   1.000  H
  H109     1.0000 0.38010  0.37760  0.58490  Biso   1.000  H
  H110     1.0000 0.11990  0.12240  0.08490  Biso   1.000  H
  H111     1.0000 0.61990  0.37760  0.91510  Biso   1.000  H
  H112     1.0000 0.88010  0.12240  0.41510  Biso   1.000  H
  C201     1.0000 0.60620  0.57370  0.32850  Biso   1.000  C
  C202     1.0000 0.89380  0.92630  0.82850  Biso   1.000  C
  C203     1.0000 0.39380  0.57370  0.17150  Biso   1.000  C
  C204     1.0000 0.10620  0.92630  0.67150  Biso   1.000  C
  C205     1.0000 0.39380  0.42630  0.67150  Biso   1.000  C
  C206     1.0000 0.10620  0.07370  0.17150  Biso   1.000  C
  C207     1.0000 0.60620  0.42630  0.82850  Biso   1.000  C
  C208     1.0000 0.89380  0.07370  0.32850  Biso   1.000  C
  H113     1.0000 0.60070  0.59810  0.28850  Biso   1.000  H
  H114     1.0000 0.89930  0.90190  0.78850  Biso   1.000  H
  H115     1.0000 0.39930  0.59810  0.21150  Biso   1.000  H
  H116     1.0000 0.10070  0.90190  0.71150  Biso   1.000  H
  H117     1.0000 0.39930  0.40190  0.71150  Biso   1.000  H
  H118     1.0000 0.10070  0.09810  0.21150  Biso   1.000  H
  H119     1.0000 0.60070  0.40190  0.78850  Biso   1.000  H
  H120     1.0000 0.89930  0.09810  0.28850  Biso   1.000  H
  C209     1.0000 0.60280  0.52390  0.30860  Biso   1.000  C
  C210     1.0000 0.89720  0.97610  0.80860  Biso   1.000  C
  C211     1.0000 0.39720  0.52390  0.19140  Biso   1.000  C
  C212     1.0000 0.10280  0.97610  0.69140  Biso   1.000  C
  C213     1.0000 0.39720  0.47610  0.69140  Biso   1.000  C
  C214     1.0000 0.10280  0.02390  0.19140  Biso   1.000  C
  C215     1.0000 0.60280  0.47610  0.80860  Biso   1.000  C
  C216     1.0000 0.89720  0.02390  0.30860  Biso   1.000  C
  H121     1.0000 0.59430  0.51470  0.25520  Biso   1.000  H
  H122     1.0000 0.90570  0.98530  0.75520  Biso   1.000  H
  H123     1.0000 0.40570  0.51470  0.24480  Biso   1.000  H
  H124     1.0000 0.09430  0.98530  0.74480  Biso   1.000  H
  H125     1.0000 0.40570  0.48530  0.74480  Biso   1.000  H
  H126     1.0000 0.09430  0.01470  0.24480  Biso   1.000  H
  H127     1.0000 0.59430  0.48530  0.75520  Biso   1.000  H
  H128     1.0000 0.90570  0.01470  0.25520  Biso   1.000  H
  C217     1.0000 0.62070  0.34781  0.38130  Biso   1.000  C
  C218     1.0000 0.87930  0.15219  0.88130  Biso   1.000  C
  C219     1.0000 0.37930  0.34781  0.11870  Biso   1.000  C
  C220     1.0000 0.12070  0.15219  0.61870  Biso   1.000  C
  C221     1.0000 0.37930  0.65219  0.61870  Biso   1.000  C
  C222     1.0000 0.12070  0.84781  0.11870  Biso   1.000  C
  C223     1.0000 0.62070  0.65219  0.88130  Biso   1.000  C
  C224     1.0000 0.87930  0.84781  0.38130  Biso   1.000  C
  H129     1.0000 0.66210  0.32910  0.41800  Biso   1.000  H
  H130     1.0000 0.83790  0.17090  0.91800  Biso   1.000  H
  H131     1.0000 0.33790  0.32910  0.08200  Biso   1.000  H
  H132     1.0000 0.16210  0.17090  0.58200  Biso   1.000  H
  H133     1.0000 0.33790  0.67090  0.58200  Biso   1.000  H
  H134     1.0000 0.16210  0.82910  0.08200  Biso   1.000  H
  H135     1.0000 0.66210  0.67090  0.91800  Biso   1.000  H
  H136     1.0000 0.83790  0.82910  0.41800  Biso   1.000  H
  H137     1.0000 0.64790  0.34430  0.32790  Biso   1.000  H
  H138     1.0000 0.85210  0.15570  0.82790  Biso   1.000  H
  H139     1.0000 0.35210  0.34430  0.17210  Biso   1.000  H
  H140     1.0000 0.14790  0.15570  0.67210  Biso   1.000  H
  H141     1.0000 0.35210  0.65570  0.67210  Biso   1.000  H
  H142     1.0000 0.14790  0.84430  0.17210  Biso   1.000  H
  H143     1.0000 0.64790  0.65570  0.82790  Biso   1.000  H
  H144     1.0000 0.85210  0.84430  0.32790  Biso   1.000  H
  C225     1.0000 0.51920  0.32539  0.38270  Biso   1.000  C
  C226     1.0000 0.98080  0.17461  0.88270  Biso   1.000  C
  C227     1.0000 0.48080  0.32539  0.11730  Biso   1.000  C
  C228     1.0000 0.01920  0.17461  0.61730  Biso   1.000  C
  C229     1.0000 0.48080  0.67461  0.61730  Biso   1.000  C
  C230     1.0000 0.01920  0.82539  0.11730  Biso   1.000  C
  C231     1.0000 0.51920  0.67461  0.88270  Biso   1.000  C
  C232     1.0000 0.98080  0.82539  0.38270  Biso   1.000  C
  H145     1.0000 0.49740  0.32240  0.43780  Biso   1.000  H
  H146     1.0000 0.00260  0.17760  0.93780  Biso   1.000  H
  H147     1.0000 0.50260  0.32240  0.06220  Biso   1.000  H
  H148     1.0000 0.99740  0.17760  0.56220  Biso   1.000  H
  H149     1.0000 0.50260  0.67760  0.56220  Biso   1.000  H
  H150     1.0000 0.99740  0.82240  0.06220  Biso   1.000  H
  H151     1.0000 0.49740  0.67760  0.93780  Biso   1.000  H
  H152     1.0000 0.00260  0.82240  0.43780  Biso   1.000  H
  H153     1.0000 0.47470  0.34810  0.35500  Biso   1.000  H
  H154     1.0000 0.02530  0.15190  0.85500  Biso   1.000  H
  H155     1.0000 0.52530  0.34810  0.14500  Biso   1.000  H
  H156     1.0000 0.97470  0.15190  0.64500  Biso   1.000  H
  H157     1.0000 0.52530  0.65190  0.64500  Biso   1.000  H
  H158     1.0000 0.97470  0.84810  0.14500  Biso   1.000  H
  H159     1.0000 0.47470  0.65190  0.85500  Biso   1.000  H
  H160     1.0000 0.02530  0.84810  0.35500  Biso   1.000  H
  C233     1.0000 0.51580  0.27518  0.34450  Biso   1.000  C
  C234     1.0000 0.98420  0.22482  0.84450  Biso   1.000  C
  C235     1.0000 0.48420  0.27518  0.15550  Biso   1.000  C
  C236     1.0000 0.01580  0.22482  0.65550  Biso   1.000  C
  C237     1.0000 0.48420  0.72482  0.65550  Biso   1.000  C
  C238     1.0000 0.01580  0.77518  0.15550  Biso   1.000  C
  C239     1.0000 0.51580  0.72482  0.84450  Biso   1.000  C
  C240     1.0000 0.98420  0.77518  0.34450  Biso   1.000  C
  C241     1.0000 0.79810  0.18286  0.18990  Biso   1.000  C
  C242     1.0000 0.70190  0.31714  0.68990  Biso   1.000  C
  C243     1.0000 0.20190  0.18286  0.31010  Biso   1.000  C
  C244     1.0000 0.29810  0.31714  0.81010  Biso   1.000  C
  C245     1.0000 0.20190  0.81714  0.81010  Biso   1.000  C
  C246     1.0000 0.29810  0.68286  0.31010  Biso   1.000  C
  C247     1.0000 0.79810  0.81714  0.68990  Biso   1.000  C
  C248     1.0000 0.70190  0.68286  0.18990  Biso   1.000  C
  H161     1.0000 0.76440  0.16820  0.14730  Biso   1.000  H
  H162     1.0000 0.73560  0.33180  0.64730  Biso   1.000  H
  H163     1.0000 0.23560  0.16820  0.35270  Biso   1.000  H
  H164     1.0000 0.26440  0.33180  0.85270  Biso   1.000  H
  H165     1.0000 0.23560  0.83180  0.85270  Biso   1.000  H
  H166     1.0000 0.26440  0.66820  0.35270  Biso   1.000  H
  H167     1.0000 0.76440  0.83180  0.64730  Biso   1.000  H
  H168     1.0000 0.73560  0.66820  0.14730  Biso   1.000  H
  C249     1.0000 0.89680  0.18348  0.18720  Biso   1.000  C
  C250     1.0000 0.60320  0.31652  0.68720  Biso   1.000  C
  C251     1.0000 0.10320  0.18348  0.31280  Biso   1.000  C
  C252     1.0000 0.39680  0.31652  0.81280  Biso   1.000  C
  C253     1.0000 0.10320  0.81652  0.81280  Biso   1.000  C
  C254     1.0000 0.39680  0.68348  0.31280  Biso   1.000  C
  C255     1.0000 0.89680  0.81652  0.68720  Biso   1.000  C
  C256     1.0000 0.60320  0.68348  0.18720  Biso   1.000  C
  H169     1.0000 0.92950  0.17070  0.14270  Biso   1.000  H
  H170     1.0000 0.57050  0.32930  0.64270  Biso   1.000  H
  H171     1.0000 0.07050  0.17070  0.35730  Biso   1.000  H
  H172     1.0000 0.42950  0.32930  0.85730  Biso   1.000  H
  H173     1.0000 0.07050  0.82930  0.85730  Biso   1.000  H
  H174     1.0000 0.42950  0.67070  0.35730  Biso   1.000  H
  H175     1.0000 0.92950  0.82930  0.64270  Biso   1.000  H
  H176     1.0000 0.57050  0.67070  0.14270  Biso   1.000  H
  C257     1.0000 0.94750  0.20269  0.24950  Biso   1.000  C
  C258     1.0000 0.55250  0.29731  0.74950  Biso   1.000  C
  C259     1.0000 0.05250  0.20269  0.25050  Biso   1.000  C
  C260     1.0000 0.44750  0.29731  0.75050  Biso   1.000  C
  C261     1.0000 0.05250  0.79731  0.75050  Biso   1.000  C
  C262     1.0000 0.44750  0.70269  0.25050  Biso   1.000  C
  C263     1.0000 0.94750  0.79731  0.74950  Biso   1.000  C
  C264     1.0000 0.55250  0.70269  0.24950  Biso   1.000  C
  C265     1.0000 0.89530  0.22150  0.31150  Biso   1.000  C
  C266     1.0000 0.60470  0.27850  0.81150  Biso   1.000  C
  C267     1.0000 0.10470  0.22150  0.18850  Biso   1.000  C
  C268     1.0000 0.39530  0.27850  0.68850  Biso   1.000  C
  C269     1.0000 0.10470  0.77850  0.68850  Biso   1.000  C
  C270     1.0000 0.39530  0.72150  0.18850  Biso   1.000  C
  C271     1.0000 0.89530  0.77850  0.81150  Biso   1.000  C
  C272     1.0000 0.60470  0.72150  0.31150  Biso   1.000  C
  H177     1.0000 0.92690  0.23440  0.35650  Biso   1.000  H
  H178     1.0000 0.57310  0.26560  0.85650  Biso   1.000  H
  H179     1.0000 0.07310  0.23440  0.14350  Biso   1.000  H
  H180     1.0000 0.42690  0.26560  0.64350  Biso   1.000  H
  H181     1.0000 0.07310  0.76560  0.64350  Biso   1.000  H
  H182     1.0000 0.42690  0.73440  0.14350  Biso   1.000  H
  H183     1.0000 0.92690  0.76560  0.85650  Biso   1.000  H
  H184     1.0000 0.57310  0.73440  0.35650  Biso   1.000  H
  C273     1.0000 0.79730  0.22132  0.30750  Biso   1.000  C
  C274     1.0000 0.70270  0.27868  0.80750  Biso   1.000  C
  C275     1.0000 0.20270  0.22132  0.19250  Biso   1.000  C
  C276     1.0000 0.29730  0.27868  0.69250  Biso   1.000  C
  C277     1.0000 0.20270  0.77868  0.69250  Biso   1.000  C
  C278     1.0000 0.29730  0.72132  0.19250  Biso   1.000  C
  C279     1.0000 0.79730  0.77868  0.80750  Biso   1.000  C
  C280     1.0000 0.70270  0.72132  0.30750  Biso   1.000  C
  H185     1.0000 0.76270  0.23620  0.34930  Biso   1.000  H
  H186     1.0000 0.73730  0.26380  0.84930  Biso   1.000  H
  H187     1.0000 0.23730  0.23620  0.15070  Biso   1.000  H
  H188     1.0000 0.26270  0.26380  0.65070  Biso   1.000  H
  H189     1.0000 0.23730  0.76380  0.65070  Biso   1.000  H
  H190     1.0000 0.26270  0.73620  0.15070  Biso   1.000  H
  H191     1.0000 0.76270  0.76380  0.84930  Biso   1.000  H
  H192     1.0000 0.73730  0.73620  0.34930  Biso   1.000  H
  N1       1.0000 0.62610  0.09393  0.94610  Biso   1.000  N
  N2       1.0000 0.87390  0.40607  0.44610  Biso   1.000  N
  N3       1.0000 0.37390  0.09393  0.55390  Biso   1.000  N
  N4       1.0000 0.12610  0.40607  0.05390  Biso   1.000  N
  N5       1.0000 0.37390  0.90607  0.05390  Biso   1.000  N
  N6       1.0000 0.12610  0.59393  0.55390  Biso   1.000  N
  N7       1.0000 0.62610  0.90607  0.44610  Biso   1.000  N
  N8       1.0000 0.87390  0.59393  0.94610  Biso   1.000  N
  N9       1.0000 0.62020  0.40059  0.40360  Biso   1.000  N
  N10      1.0000 0.87980  0.09941  0.90360  Biso   1.000  N
  N11      1.0000 0.37980  0.40059  0.09640  Biso   1.000  N
  N12      1.0000 0.12020  0.09941  0.59640  Biso   1.000  N
  N13      1.0000 0.37980  0.59941  0.59640  Biso   1.000  N
  N14      1.0000 0.12020  0.90059  0.09640  Biso   1.000  N
  N15      1.0000 0.62020  0.59941  0.90360  Biso   1.000  N
  N16      1.0000 0.87980  0.90059  0.40360  Biso   1.000  N
  N17      1.0000 0.74780  0.20173  0.24910  Biso   1.000  N
  N18      1.0000 0.75220  0.29827  0.74910  Biso   1.000  N
  N19      1.0000 0.25220  0.20173  0.25090  Biso   1.000  N
  N20      1.0000 0.24780  0.29827  0.75090  Biso   1.000  N
  N21      1.0000 0.25220  0.79827  0.75090  Biso   1.000  N
  N22      1.0000 0.24780  0.70173  0.25090  Biso   1.000  N
  N23      1.0000 0.74780  0.79827  0.74910  Biso   1.000  N
  N24      1.0000 0.75220  0.70173  0.24910  Biso   1.000  N
  O1       1.0000 0.62100  0.17218  0.89780  Biso   1.000  O
  O2       1.0000 0.87900  0.32782  0.39780  Biso   1.000  O
  O3       1.0000 0.37900  0.17218  0.60220  Biso   1.000  O
  O4       1.0000 0.12100  0.32782  0.10220  Biso   1.000  O
  O5       1.0000 0.37900  0.82782  0.10220  Biso   1.000  O
  O6       1.0000 0.12100  0.67218  0.60220  Biso   1.000  O
  O7       1.0000 0.62100  0.82782  0.39780  Biso   1.000  O
  O8       1.0000 0.87900  0.67218  0.89780  Biso   1.000  O
  O9       1.0000 0.62920  0.01596  0.99570  Biso   1.000  O
  O10      1.0000 0.87080  0.48404  0.49570  Biso   1.000  O
  O11      1.0000 0.37080  0.01596  0.50430  Biso   1.000  O
  O12      1.0000 0.12920  0.48404  0.00430  Biso   1.000  O
  O13      1.0000 0.37080  0.98404  0.00430  Biso   1.000  O
  O14      1.0000 0.12920  0.51596  0.50430  Biso   1.000  O
  O15      1.0000 0.62920  0.98404  0.49570  Biso   1.000  O
  O16      1.0000 0.87080  0.51596  0.99570  Biso   1.000  O
  O17      1.0000 0.59040  0.15348  0.17025  Biso   1.000  O
  O18      1.0000 0.90960  0.34652  0.67025  Biso   1.000  O
  O19      1.0000 0.40960  0.15348  0.32975  Biso   1.000  O
  O20      1.0000 0.09040  0.34652  0.82975  Biso   1.000  O
  O21      1.0000 0.40960  0.84652  0.82975  Biso   1.000  O
  O22      1.0000 0.09040  0.65348  0.32975  Biso   1.000  O
  O23      1.0000 0.59040  0.84652  0.67025  Biso   1.000  O
  O24      1.0000 0.90960  0.65348  0.17025  Biso   1.000  O
  O25      1.0000 0.43120  0.15401  0.15928  Biso   1.000  O
  O26      1.0000 0.06880  0.34599  0.65928  Biso   1.000  O
  O27      1.0000 0.56880  0.15401  0.34072  Biso   1.000  O
  O28      1.0000 0.93120  0.34599  0.84072  Biso   1.000  O
  O29      1.0000 0.56880  0.84599  0.84072  Biso   1.000  O
  O30      1.0000 0.93120  0.65401  0.34072  Biso   1.000  O
  O31      1.0000 0.43120  0.84599  0.65928  Biso   1.000  O
  O32      1.0000 0.06880  0.65401  0.15928  Biso   1.000  O
  O33      1.0000 0.62930  0.37888  0.53120  Biso   1.000  O
  O34      1.0000 0.87070  0.12112  0.03120  Biso   1.000  O
  O35      1.0000 0.37070  0.37888  0.96880  Biso   1.000  O
  O36      1.0000 0.12930  0.12112  0.46880  Biso   1.000  O
  O37      1.0000 0.37070  0.62112  0.46880  Biso   1.000  O
  O38      1.0000 0.12930  0.87888  0.96880  Biso   1.000  O
  O39      1.0000 0.62930  0.62112  0.03120  Biso   1.000  O
  O40      1.0000 0.87070  0.87888  0.53120  Biso   1.000  O
  O41      1.0000 0.60640  0.42112  0.27570  Biso   1.000  O
  O42      1.0000 0.89360  0.07888  0.77570  Biso   1.000  O
  O43      1.0000 0.39360  0.42112  0.22430  Biso   1.000  O
  O44      1.0000 0.10640  0.07888  0.72430  Biso   1.000  O
  O45      1.0000 0.39360  0.57888  0.72430  Biso   1.000  O
  O46      1.0000 0.10640  0.92112  0.22430  Biso   1.000  O
  O47      1.0000 0.60640  0.57888  0.77570  Biso   1.000  O
  O48      1.0000 0.89360  0.92112  0.27570  Biso   1.000  O
  O49      1.0000 0.59330  0.25546  0.32670  Biso   1.000  O
  O50      1.0000 0.90670  0.24454  0.82670  Biso   1.000  O
  O51      1.0000 0.40670  0.25546  0.17330  Biso   1.000  O
  O52      1.0000 0.09330  0.24454  0.67330  Biso   1.000  O
  O53      1.0000 0.40670  0.74454  0.67330  Biso   1.000  O
  O54      1.0000 0.09330  0.75546  0.17330  Biso   1.000  O
  O55      1.0000 0.59330  0.74454  0.82670  Biso   1.000  O
  O56      1.0000 0.90670  0.75546  0.32670  Biso   1.000  O
  O57      1.0000 0.43400  0.25675  0.32970  Biso   1.000  O
  O58      1.0000 0.06600  0.24325  0.82970  Biso   1.000  O
  O59      1.0000 0.56600  0.25675  0.17030  Biso   1.000  O
  O60      1.0000 0.93400  0.24325  0.67030  Biso   1.000  O
  O61      1.0000 0.56600  0.74325  0.67030  Biso   1.000  O
  O62      1.0000 0.93400  0.75675  0.17030  Biso   1.000  O
  O63      1.0000 0.43400  0.74325  0.82970  Biso   1.000  O
  O64      1.0000 0.06600  0.75675  0.32970  Biso   1.000  O
