data_image0
_cell_length_a       13.9313
_cell_length_b       22.1401
_cell_length_c       14.2574
_cell_angle_alpha    90
_cell_angle_beta     117.621
_cell_angle_gamma    90

_symmetry_space_group_name_H-M    "P 1"
_symmetry_int_tables_number       1

loop_
  _symmetry_equiv_pos_as_xyz
  'x, y, z'

loop_
  _atom_site_label
  _atom_site_occupancy
  _atom_site_fract_x
  _atom_site_fract_y
  _atom_site_fract_z
  _atom_site_thermal_displace_type
  _atom_site_B_iso_or_equiv
  _atom_site_type_symbol
  Cu1      1.0000 0.59929  0.49406  0.01444  Biso   1.000  Cu
  Cu2      1.0000 0.90071  0.99406  0.48556  Biso   1.000  Cu
  Cu3      1.0000 0.40071  0.50594  0.98556  Biso   1.000  Cu
  Cu4      1.0000 0.09929  0.00594  0.51444  Biso   1.000  Cu
  C1       1.0000 0.65420  0.80023  0.82480  Biso   1.000  C
  C2       1.0000 0.84580  0.30023  0.67520  Biso   1.000  C
  C3       1.0000 0.34580  0.19977  0.17520  Biso   1.000  C
  C4       1.0000 0.15420  0.69977  0.32480  Biso   1.000  C
  C5       1.0000 0.73970  0.82620  0.80220  Biso   1.000  C
  C6       1.0000 0.76030  0.32620  0.69780  Biso   1.000  C
  C7       1.0000 0.26030  0.17380  0.19780  Biso   1.000  C
  C8       1.0000 0.23970  0.67380  0.30220  Biso   1.000  C
  C9       1.0000 0.81150  0.78870  0.78620  Biso   1.000  C
  C10      1.0000 0.68850  0.28870  0.71380  Biso   1.000  C
  C11      1.0000 0.18850  0.21130  0.21380  Biso   1.000  C
  C12      1.0000 0.31150  0.71130  0.28620  Biso   1.000  C
  C13      1.0000 0.80350  0.72490  0.78800  Biso   1.000  C
  C14      1.0000 0.69650  0.22490  0.71200  Biso   1.000  C
  C15      1.0000 0.19650  0.27510  0.21200  Biso   1.000  C
  C16      1.0000 0.30350  0.77510  0.28800  Biso   1.000  C
  C17      1.0000 0.71660  0.69761  0.80580  Biso   1.000  C
  C18      1.0000 0.78340  0.19761  0.69420  Biso   1.000  C
  C19      1.0000 0.28340  0.30239  0.19420  Biso   1.000  C
  C20      1.0000 0.21660  0.80239  0.30580  Biso   1.000  C
  C21      1.0000 0.74750  0.88820  0.79720  Biso   1.000  C
  C22      1.0000 0.75250  0.38820  0.70280  Biso   1.000  C
  C23      1.0000 0.25250  0.11180  0.20280  Biso   1.000  C
  C24      1.0000 0.24750  0.61180  0.29720  Biso   1.000  C
  H1       1.0000 0.69870  0.91360  0.80820  Biso   1.000  H
  H2       1.0000 0.80130  0.41360  0.69180  Biso   1.000  H
  H3       1.0000 0.30130  0.08640  0.19180  Biso   1.000  H
  H4       1.0000 0.19870  0.58640  0.30820  Biso   1.000  H
  C25      1.0000 0.82780  0.91360  0.77570  Biso   1.000  C
  C26      1.0000 0.67220  0.41360  0.72430  Biso   1.000  C
  C27      1.0000 0.17220  0.08640  0.22430  Biso   1.000  C
  C28      1.0000 0.32780  0.58640  0.27570  Biso   1.000  C
  H5       1.0000 0.83290  0.95630  0.77200  Biso   1.000  H
  H6       1.0000 0.66710  0.45630  0.72800  Biso   1.000  H
  H7       1.0000 0.16710  0.04370  0.22800  Biso   1.000  H
  H8       1.0000 0.33290  0.54370  0.27200  Biso   1.000  H
  C29      1.0000 0.89870  0.87700  0.75990  Biso   1.000  C
  C30      1.0000 0.60130  0.37700  0.74010  Biso   1.000  C
  C31      1.0000 0.10130  0.12300  0.24010  Biso   1.000  C
  C32      1.0000 0.39870  0.62300  0.25990  Biso   1.000  C
  H9       1.0000 0.95210  0.89500  0.74500  Biso   1.000  H
  H10      1.0000 0.54790  0.39500  0.75500  Biso   1.000  H
  H11      1.0000 0.04790  0.10500  0.25500  Biso   1.000  H
  H12      1.0000 0.45210  0.60500  0.24500  Biso   1.000  H
  C33      1.0000 0.89450  0.81370  0.76530  Biso   1.000  C
  C34      1.0000 0.60550  0.31370  0.73470  Biso   1.000  C
  C35      1.0000 0.10550  0.18630  0.23470  Biso   1.000  C
  C36      1.0000 0.39450  0.68630  0.26530  Biso   1.000  C
  C37      1.0000 0.96590  0.77410  0.75160  Biso   1.000  C
  C38      1.0000 0.53410  0.27410  0.74840  Biso   1.000  C
  C39      1.0000 0.03410  0.22590  0.24840  Biso   1.000  C
  C40      1.0000 0.46590  0.72590  0.25160  Biso   1.000  C
  H13      1.0000 0.02240  0.79050  0.73980  Biso   1.000  H
  H14      1.0000 0.47760  0.29050  0.76020  Biso   1.000  H
  H15      1.0000 0.97760  0.20950  0.26020  Biso   1.000  H
  H16      1.0000 0.52240  0.70950  0.23980  Biso   1.000  H
  C41      1.0000 0.95670  0.71360  0.75460  Biso   1.000  C
  C42      1.0000 0.54330  0.21360  0.74540  Biso   1.000  C
  C43      1.0000 0.04330  0.28640  0.24540  Biso   1.000  C
  C44      1.0000 0.45670  0.78640  0.25460  Biso   1.000  C
  H17      1.0000 0.00640  0.68820  0.74500  Biso   1.000  H
  H18      1.0000 0.49360  0.18820  0.75500  Biso   1.000  H
  H19      1.0000 0.99360  0.31180  0.25500  Biso   1.000  H
  H20      1.0000 0.50640  0.81180  0.24500  Biso   1.000  H
  C45      1.0000 0.87350  0.68780  0.77200  Biso   1.000  C
  C46      1.0000 0.62650  0.18780  0.72800  Biso   1.000  C
  C47      1.0000 0.12650  0.31220  0.22800  Biso   1.000  C
  C48      1.0000 0.37350  0.81220  0.27200  Biso   1.000  C
  H21      1.0000 0.86610  0.64520  0.77260  Biso   1.000  H
  H22      1.0000 0.63390  0.14520  0.72740  Biso   1.000  H
  H23      1.0000 0.13390  0.35480  0.22740  Biso   1.000  H
  H24      1.0000 0.36610  0.85480  0.27260  Biso   1.000  H
  C49      1.0000 0.56720  0.71000  0.85090  Biso   1.000  C
  C50      1.0000 0.93280  0.21000  0.64910  Biso   1.000  C
  C51      1.0000 0.43280  0.29000  0.14910  Biso   1.000  C
  C52      1.0000 0.06720  0.79000  0.35090  Biso   1.000  C
  H25      1.0000 0.55110  0.66840  0.82230  Biso   1.000  H
  H26      1.0000 0.94890  0.16840  0.67770  Biso   1.000  H
  H27      1.0000 0.44890  0.33160  0.17770  Biso   1.000  H
  H28      1.0000 0.05110  0.83160  0.32230  Biso   1.000  H
  H29      1.0000 0.49960  0.73390  0.81570  Biso   1.000  H
  H30      1.0000 0.00040  0.23390  0.68430  Biso   1.000  H
  H31      1.0000 0.50040  0.26610  0.18430  Biso   1.000  H
  H32      1.0000 0.99960  0.76610  0.31570  Biso   1.000  H
  C53      1.0000 0.60440  0.70842  0.96850  Biso   1.000  C
  C54      1.0000 0.89560  0.20842  0.53150  Biso   1.000  C
  C55      1.0000 0.39560  0.29158  0.03150  Biso   1.000  C
  C56      1.0000 0.10440  0.79158  0.46850  Biso   1.000  C
  H33      1.0000 0.62330  0.74990  0.99730  Biso   1.000  H
  H34      1.0000 0.87670  0.24990  0.50270  Biso   1.000  H
  H35      1.0000 0.37670  0.25010  0.00270  Biso   1.000  H
  H36      1.0000 0.12330  0.75010  0.49730  Biso   1.000  H
  H37      1.0000 0.67060  0.68330  0.00310  Biso   1.000  H
  H38      1.0000 0.82940  0.18330  0.49690  Biso   1.000  H
  H39      1.0000 0.32940  0.31670  0.99690  Biso   1.000  H
  H40      1.0000 0.17060  0.81670  0.50310  Biso   1.000  H
  C57      1.0000 0.51830  0.68300  0.99490  Biso   1.000  C
  C58      1.0000 0.98170  0.18300  0.50510  Biso   1.000  C
  C59      1.0000 0.48170  0.31700  0.00510  Biso   1.000  C
  C60      1.0000 0.01830  0.81700  0.49490  Biso   1.000  C
  H41      1.0000 0.53450  0.69680  0.06680  Biso   1.000  H
  H42      1.0000 0.96550  0.19680  0.43320  Biso   1.000  H
  H43      1.0000 0.46550  0.30320  0.93320  Biso   1.000  H
  H44      1.0000 0.03450  0.80320  0.56680  Biso   1.000  H
  H45      1.0000 0.44740  0.70040  0.94490  Biso   1.000  H
  H46      1.0000 0.05260  0.20040  0.55510  Biso   1.000  H
  H47      1.0000 0.55260  0.29960  0.05510  Biso   1.000  H
  H48      1.0000 0.94740  0.79960  0.44490  Biso   1.000  H
  C61      1.0000 0.50760  0.61480  0.99120  Biso   1.000  C
  C62      1.0000 0.99240  0.11480  0.50880  Biso   1.000  C
  C63      1.0000 0.49240  0.38520  0.00880  Biso   1.000  C
  C64      1.0000 0.00760  0.88520  0.49120  Biso   1.000  C
  C65      1.0000 0.57370  0.31730  0.44490  Biso   1.000  C
  C66      1.0000 0.92630  0.81730  0.05510  Biso   1.000  C
  C67      1.0000 0.42630  0.68270  0.55510  Biso   1.000  C
  C68      1.0000 0.07370  0.18270  0.94490  Biso   1.000  C
  C69      1.0000 0.51480  0.26274  0.44760  Biso   1.000  C
  C70      1.0000 0.98520  0.76274  0.05240  Biso   1.000  C
  C71      1.0000 0.48520  0.73726  0.55240  Biso   1.000  C
  C72      1.0000 0.01480  0.23726  0.94760  Biso   1.000  C
  C73      1.0000 0.42640  0.26750  0.46700  Biso   1.000  C
  C74      1.0000 0.07360  0.76750  0.03300  Biso   1.000  C
  C75      1.0000 0.57360  0.73250  0.53300  Biso   1.000  C
  C76      1.0000 0.92640  0.23250  0.96700  Biso   1.000  C
  C77      1.0000 0.38710  0.32420  0.47860  Biso   1.000  C
  C78      1.0000 0.11290  0.82420  0.02140  Biso   1.000  C
  C79      1.0000 0.61290  0.67580  0.52140  Biso   1.000  C
  C80      1.0000 0.88710  0.17580  0.97860  Biso   1.000  C
  C81      1.0000 0.43810  0.37981  0.46650  Biso   1.000  C
  C82      1.0000 0.06190  0.87981  0.03350  Biso   1.000  C
  C83      1.0000 0.56190  0.62019  0.53350  Biso   1.000  C
  C84      1.0000 0.93810  0.12019  0.96650  Biso   1.000  C
  C85      1.0000 0.55020  0.20720  0.43260  Biso   1.000  C
  C86      1.0000 0.94980  0.70720  0.06740  Biso   1.000  C
  C87      1.0000 0.44980  0.79280  0.56740  Biso   1.000  C
  C88      1.0000 0.05020  0.29280  0.93260  Biso   1.000  C
  H49      1.0000 0.61150  0.20400  0.42040  Biso   1.000  H
  H50      1.0000 0.88850  0.70400  0.07960  Biso   1.000  H
  H51      1.0000 0.38850  0.79600  0.57960  Biso   1.000  H
  H52      1.0000 0.11150  0.29600  0.92040  Biso   1.000  H
  C89      1.0000 0.49260  0.15500  0.43590  Biso   1.000  C
  C90      1.0000 0.00740  0.65500  0.06410  Biso   1.000  C
  C91      1.0000 0.50740  0.84500  0.56410  Biso   1.000  C
  C92      1.0000 0.99260  0.34500  0.93590  Biso   1.000  C
  H53      1.0000 0.51370  0.11660  0.42210  Biso   1.000  H
  H54      1.0000 0.98630  0.61660  0.07790  Biso   1.000  H
  H55      1.0000 0.48630  0.88340  0.57790  Biso   1.000  H
  H56      1.0000 0.01370  0.38340  0.92210  Biso   1.000  H
  C93      1.0000 0.40980  0.15860  0.45770  Biso   1.000  C
  C94      1.0000 0.09020  0.65860  0.04230  Biso   1.000  C
  C95      1.0000 0.59020  0.84140  0.54230  Biso   1.000  C
  C96      1.0000 0.90980  0.34140  0.95770  Biso   1.000  C
  H57      1.0000 0.37620  0.12240  0.46300  Biso   1.000  H
  H58      1.0000 0.12380  0.62240  0.03700  Biso   1.000  H
  H59      1.0000 0.62380  0.87760  0.53700  Biso   1.000  H
  H60      1.0000 0.87620  0.37760  0.96300  Biso   1.000  H
  C97      1.0000 0.36990  0.21410  0.47340  Biso   1.000  C
  C98      1.0000 0.13010  0.71410  0.02660  Biso   1.000  C
  C99      1.0000 0.63010  0.78590  0.52660  Biso   1.000  C
  C100     1.0000 0.86990  0.28590  0.97340  Biso   1.000  C
  C101     1.0000 0.28230  0.22060  0.49610  Biso   1.000  C
  C102     1.0000 0.21770  0.72060  0.00390  Biso   1.000  C
  C103     1.0000 0.71770  0.77940  0.50390  Biso   1.000  C
  C104     1.0000 0.78230  0.27940  0.99610  Biso   1.000  C
  H61      1.0000 0.24580  0.18580  0.50230  Biso   1.000  H
  H62      1.0000 0.25420  0.68580  0.99770  Biso   1.000  H
  H63      1.0000 0.75420  0.81420  0.49770  Biso   1.000  H
  H64      1.0000 0.74580  0.31420  0.00230  Biso   1.000  H
  C105     1.0000 0.25080  0.27460  0.50880  Biso   1.000  C
  C106     1.0000 0.24920  0.77460  0.99120  Biso   1.000  C
  C107     1.0000 0.74920  0.72540  0.49120  Biso   1.000  C
  C108     1.0000 0.75080  0.22540  0.00880  Biso   1.000  C
  H65      1.0000 0.19210  0.27760  0.52490  Biso   1.000  H
  H66      1.0000 0.30790  0.77760  0.97510  Biso   1.000  H
  H67      1.0000 0.80790  0.72240  0.47510  Biso   1.000  H
  H68      1.0000 0.69210  0.22240  0.02490  Biso   1.000  H
  C109     1.0000 0.30000  0.32790  0.49950  Biso   1.000  C
  C110     1.0000 0.20000  0.82790  0.00050  Biso   1.000  C
  C111     1.0000 0.70000  0.67210  0.50050  Biso   1.000  C
  C112     1.0000 0.80000  0.17210  0.99950  Biso   1.000  C
  H69      1.0000 0.27370  0.36610  0.50750  Biso   1.000  H
  H70      1.0000 0.22630  0.86610  0.99250  Biso   1.000  H
  H71      1.0000 0.72630  0.63390  0.49250  Biso   1.000  H
  H72      1.0000 0.77370  0.13390  0.00750  Biso   1.000  H
  C113     1.0000 0.58700  0.42745  0.44680  Biso   1.000  C
  C114     1.0000 0.91300  0.92745  0.05320  Biso   1.000  C
  C115     1.0000 0.41300  0.57255  0.55320  Biso   1.000  C
  C116     1.0000 0.08700  0.07255  0.94680  Biso   1.000  C
  H73      1.0000 0.66620  0.42070  0.48210  Biso   1.000  H
  H74      1.0000 0.83380  0.92070  0.01790  Biso   1.000  H
  H75      1.0000 0.33380  0.57930  0.51790  Biso   1.000  H
  H76      1.0000 0.16620  0.07930  0.98210  Biso   1.000  H
  H77      1.0000 0.57160  0.46160  0.48270  Biso   1.000  H
  H78      1.0000 0.92840  0.96160  0.01730  Biso   1.000  H
  H79      1.0000 0.42840  0.53840  0.51730  Biso   1.000  H
  H80      1.0000 0.07160  0.03840  0.98270  Biso   1.000  H
  C117     1.0000 0.54880  0.44332  0.33140  Biso   1.000  C
  C118     1.0000 0.95120  0.94332  0.16860  Biso   1.000  C
  C119     1.0000 0.45120  0.55668  0.66860  Biso   1.000  C
  C120     1.0000 0.04880  0.05668  0.83140  Biso   1.000  C
  H81      1.0000 0.47130  0.45480  0.29880  Biso   1.000  H
  H82      1.0000 0.02870  0.95480  0.20120  Biso   1.000  H
  H83      1.0000 0.52870  0.54520  0.70120  Biso   1.000  H
  H84      1.0000 0.97130  0.04520  0.79880  Biso   1.000  H
  H85      1.0000 0.55520  0.40710  0.29380  Biso   1.000  H
  H86      1.0000 0.94480  0.90710  0.20620  Biso   1.000  H
  H87      1.0000 0.44480  0.59290  0.70620  Biso   1.000  H
  H88      1.0000 0.05520  0.09290  0.79380  Biso   1.000  H
  C121     1.0000 0.61260  0.49470  0.31630  Biso   1.000  C
  C122     1.0000 0.88740  0.99470  0.18370  Biso   1.000  C
  C123     1.0000 0.38740  0.50530  0.68370  Biso   1.000  C
  C124     1.0000 0.11260  0.00530  0.81630  Biso   1.000  C
  H89      1.0000 0.59970  0.53250  0.34570  Biso   1.000  H
  H90      1.0000 0.90030  0.03250  0.15430  Biso   1.000  H
  H91      1.0000 0.40030  0.46750  0.65430  Biso   1.000  H
  H92      1.0000 0.09970  0.96750  0.84570  Biso   1.000  H
  H93      1.0000 0.69110  0.48550  0.35420  Biso   1.000  H
  H94      1.0000 0.80890  0.98550  0.14580  Biso   1.000  H
  H95      1.0000 0.30890  0.51450  0.64580  Biso   1.000  H
  H96      1.0000 0.19110  0.01450  0.85420  Biso   1.000  H
  C125     1.0000 0.57700  0.50244  0.19950  Biso   1.000  C
  C126     1.0000 0.92300  0.00244  0.30050  Biso   1.000  C
  C127     1.0000 0.42300  0.49756  0.80050  Biso   1.000  C
  C128     1.0000 0.07700  0.99756  0.69950  Biso   1.000  C
  C129     1.0000 0.76070  0.52185  0.93740  Biso   1.000  C
  C130     1.0000 0.73930  0.02185  0.56260  Biso   1.000  C
  C131     1.0000 0.23930  0.47815  0.06260  Biso   1.000  C
  C132     1.0000 0.26070  0.97815  0.43740  Biso   1.000  C
  H97      1.0000 0.69640  0.53910  0.88320  Biso   1.000  H
  H98      1.0000 0.80360  0.03910  0.61680  Biso   1.000  H
  H99      1.0000 0.30360  0.46090  0.11680  Biso   1.000  H
  H100     1.0000 0.19640  0.96090  0.38320  Biso   1.000  H
  C133     1.0000 0.85330  0.52336  0.92570  Biso   1.000  C
  C134     1.0000 0.64670  0.02336  0.57430  Biso   1.000  C
  C135     1.0000 0.14670  0.47664  0.07430  Biso   1.000  C
  C136     1.0000 0.35330  0.97664  0.42570  Biso   1.000  C
  H101     1.0000 0.85160  0.54030  0.86370  Biso   1.000  H
  H102     1.0000 0.64840  0.04030  0.63630  Biso   1.000  H
  H103     1.0000 0.14840  0.45970  0.13630  Biso   1.000  H
  H104     1.0000 0.35160  0.95970  0.36370  Biso   1.000  H
  C137     1.0000 0.94960  0.50002  0.00520  Biso   1.000  C
  C138     1.0000 0.55040  0.00002  0.49480  Biso   1.000  C
  C139     1.0000 0.05040  0.49998  0.99480  Biso   1.000  C
  C140     1.0000 0.44960  0.99998  0.50520  Biso   1.000  C
  C141     1.0000 0.94560  0.47702  0.09380  Biso   1.000  C
  C142     1.0000 0.55440  0.97702  0.40620  Biso   1.000  C
  C143     1.0000 0.05440  0.52298  0.90620  Biso   1.000  C
  C144     1.0000 0.44560  0.02298  0.59380  Biso   1.000  C
  H105     1.0000 0.00940  0.46180  0.15140  Biso   1.000  H
  H106     1.0000 0.49060  0.96180  0.34860  Biso   1.000  H
  H107     1.0000 0.99060  0.53820  0.84860  Biso   1.000  H
  H108     1.0000 0.50940  0.03820  0.65140  Biso   1.000  H
  C145     1.0000 0.84880  0.47626  0.09830  Biso   1.000  C
  C146     1.0000 0.65120  0.97626  0.40170  Biso   1.000  C
  C147     1.0000 0.15120  0.52374  0.90170  Biso   1.000  C
  C148     1.0000 0.34880  0.02374  0.59830  Biso   1.000  C
  H109     1.0000 0.84790  0.45990  0.15940  Biso   1.000  H
  H110     1.0000 0.65210  0.95990  0.34060  Biso   1.000  H
  H111     1.0000 0.15210  0.54010  0.84060  Biso   1.000  H
  H112     1.0000 0.34790  0.04010  0.65940  Biso   1.000  H
  N1       1.0000 0.65030  0.73679  0.82670  Biso   1.000  N
  N2       1.0000 0.84970  0.23679  0.67330  Biso   1.000  N
  N3       1.0000 0.34970  0.26321  0.17330  Biso   1.000  N
  N4       1.0000 0.15030  0.76321  0.32670  Biso   1.000  N
  N5       1.0000 0.53240  0.37303  0.45630  Biso   1.000  N
  N6       1.0000 0.96760  0.87303  0.04370  Biso   1.000  N
  N7       1.0000 0.46760  0.62697  0.54370  Biso   1.000  N
  N8       1.0000 0.03240  0.12697  0.95630  Biso   1.000  N
  N9       1.0000 0.75640  0.49748  0.02070  Biso   1.000  N
  N10      1.0000 0.74360  0.99748  0.47930  Biso   1.000  N
  N11      1.0000 0.24360  0.50252  0.97930  Biso   1.000  N
  N12      1.0000 0.25640  0.00252  0.52070  Biso   1.000  N
  O1       1.0000 0.58960  0.83028  0.83870  Biso   1.000  O
  O2       1.0000 0.91040  0.33028  0.66130  Biso   1.000  O
  O3       1.0000 0.41040  0.16972  0.16130  Biso   1.000  O
  O4       1.0000 0.08960  0.66972  0.33870  Biso   1.000  O
  O5       1.0000 0.70130  0.64332  0.80200  Biso   1.000  O
  O6       1.0000 0.79870  0.14332  0.69800  Biso   1.000  O
  O7       1.0000 0.29870  0.35668  0.19800  Biso   1.000  O
  O8       1.0000 0.20130  0.85668  0.30200  Biso   1.000  O
  O9       1.0000 0.58790  0.58360  0.00480  Biso   1.000  O
  O10      1.0000 0.91210  0.08360  0.49520  Biso   1.000  O
  O11      1.0000 0.41210  0.41640  0.99520  Biso   1.000  O
  O12      1.0000 0.08790  0.91640  0.50480  Biso   1.000  O
  O13      1.0000 0.41810  0.59375  0.97840  Biso   1.000  O
  O14      1.0000 0.08190  0.09375  0.52160  Biso   1.000  O
  O15      1.0000 0.58190  0.40625  0.02160  Biso   1.000  O
  O16      1.0000 0.91810  0.90625  0.47840  Biso   1.000  O
  O17      1.0000 0.65400  0.31613  0.43200  Biso   1.000  O
  O18      1.0000 0.84600  0.81613  0.06800  Biso   1.000  O
  O19      1.0000 0.34600  0.68387  0.56800  Biso   1.000  O
  O20      1.0000 0.15400  0.18387  0.93200  Biso   1.000  O
  O21      1.0000 0.40210  0.43007  0.46570  Biso   1.000  O
  O22      1.0000 0.09790  0.93007  0.03430  Biso   1.000  O
  O23      1.0000 0.59790  0.56993  0.53430  Biso   1.000  O
  O24      1.0000 0.90210  0.06993  0.96570  Biso   1.000  O
  O25      1.0000 0.64650  0.49759  0.16750  Biso   1.000  O
  O26      1.0000 0.85350  0.99759  0.33250  Biso   1.000  O
  O27      1.0000 0.35350  0.50241  0.83250  Biso   1.000  O
  O28      1.0000 0.14650  0.00241  0.66750  Biso   1.000  O
  O29      1.0000 0.47720  0.51116  0.14095  Biso   1.000  O
  O30      1.0000 0.02280  0.01116  0.35905  Biso   1.000  O
  O31      1.0000 0.52280  0.48884  0.85905  Biso   1.000  O
  O32      1.0000 0.97720  0.98884  0.64095  Biso   1.000  O
  C149     1.0000 0.13170  0.47730  0.38940  Biso   1.000  C
  C150     1.0000 0.36830  0.97730  0.11060  Biso   1.000  C
  C151     1.0000 0.86830  0.52270  0.61060  Biso   1.000  C
  C152     1.0000 0.63170  0.02270  0.88940  Biso   1.000  C
  H113     1.0000 0.17670  0.50540  0.44590  Biso   1.000  H
  H114     1.0000 0.32330  0.00540  0.05410  Biso   1.000  H
  H115     1.0000 0.82330  0.49460  0.55410  Biso   1.000  H
  H116     1.0000 0.67670  0.99460  0.94590  Biso   1.000  H
  H117     1.0000 0.12210  0.43980  0.42080  Biso   1.000  H
  H118     1.0000 0.37790  0.93980  0.07920  Biso   1.000  H
  H119     1.0000 0.87790  0.56020  0.57920  Biso   1.000  H
  H120     1.0000 0.62210  0.06020  0.92080  Biso   1.000  H
  H121     1.0000 0.06080  0.49570  0.34540  Biso   1.000  H
  H122     1.0000 0.43920  0.99570  0.15460  Biso   1.000  H
  H123     1.0000 0.93920  0.50430  0.65460  Biso   1.000  H
  H124     1.0000 0.56080  0.00430  0.84540  Biso   1.000  H
  O33      1.0000 0.18210  0.46435  0.32720  Biso   1.000  O
  O34      1.0000 0.31790  0.96435  0.17280  Biso   1.000  O
  O35      1.0000 0.81790  0.53565  0.67280  Biso   1.000  O
  O36      1.0000 0.68210  0.03565  0.82720  Biso   1.000  O
  H125     1.0000 0.25140  0.45470  0.37130  Biso   1.000  H
  H126     1.0000 0.24860  0.95470  0.12870  Biso   1.000  H
  H127     1.0000 0.74860  0.54530  0.62870  Biso   1.000  H
  H128     1.0000 0.75140  0.04530  0.87130  Biso   1.000  H
  C153     1.0000 0.15590  0.38610  0.74150  Biso   1.000  C
  C154     1.0000 0.34410  0.88610  0.75850  Biso   1.000  C
  C155     1.0000 0.84410  0.61390  0.25850  Biso   1.000  C
  C156     1.0000 0.65590  0.11390  0.24150  Biso   1.000  C
  H129     1.0000 0.09010  0.38030  0.75040  Biso   1.000  H
  H130     1.0000 0.40990  0.88030  0.74960  Biso   1.000  H
  H131     1.0000 0.90990  0.61970  0.24960  Biso   1.000  H
  H132     1.0000 0.59010  0.11970  0.25040  Biso   1.000  H
  H133     1.0000 0.20690  0.41130  0.80120  Biso   1.000  H
  H134     1.0000 0.29310  0.91130  0.69880  Biso   1.000  H
  H135     1.0000 0.79310  0.58870  0.19880  Biso   1.000  H
  H136     1.0000 0.70690  0.08870  0.30120  Biso   1.000  H
  Cl1      1.0000 0.21560  0.31570  0.74960  Biso   1.000  Cl
  Cl2      1.0000 0.28440  0.81570  0.75040  Biso   1.000  Cl
  Cl3      1.0000 0.78440  0.68430  0.25040  Biso   1.000  Cl
  Cl4      1.0000 0.71560  0.18430  0.24960  Biso   1.000  Cl
  Cl5      1.0000 0.12040  0.42480  0.62530  Biso   1.000  Cl
  Cl6      1.0000 0.37960  0.92480  0.87470  Biso   1.000  Cl
  Cl7      1.0000 0.87960  0.57520  0.37470  Biso   1.000  Cl
  Cl8      1.0000 0.62040  0.07520  0.12530  Biso   1.000  Cl
  C157     1.0000 0.16700  0.39600  0.73700  Biso   1.000  C
  C158     1.0000 0.33300  0.89600  0.76300  Biso   1.000  C
  C159     1.0000 0.83300  0.60400  0.26300  Biso   1.000  C
  C160     1.0000 0.66700  0.10400  0.23700  Biso   1.000  C
  H137     1.0000 0.11310  0.36520  0.73080  Biso   1.000  H
  H138     1.0000 0.38690  0.86520  0.76920  Biso   1.000  H
  H139     1.0000 0.88690  0.63480  0.26920  Biso   1.000  H
  H140     1.0000 0.61310  0.13480  0.23080  Biso   1.000  H
  H141     1.0000 0.20300  0.41100  0.81090  Biso   1.000  H
  H142     1.0000 0.29700  0.91100  0.68910  Biso   1.000  H
  H143     1.0000 0.79700  0.58900  0.18910  Biso   1.000  H
  H144     1.0000 0.70300  0.08900  0.31090  Biso   1.000  H
  Cl9      1.0000 0.26590  0.36280  0.70640  Biso   1.000  Cl
  Cl10     1.0000 0.23410  0.86280  0.79360  Biso   1.000  Cl
  Cl11     1.0000 0.73410  0.63720  0.29360  Biso   1.000  Cl
  Cl12     1.0000 0.76590  0.13720  0.20640  Biso   1.000  Cl
  Cl13     1.0000 0.10420  0.45500  0.65150  Biso   1.000  Cl
  Cl14     1.0000 0.39580  0.95500  0.84850  Biso   1.000  Cl
  Cl15     1.0000 0.89580  0.54500  0.34850  Biso   1.000  Cl
  Cl16     1.0000 0.60420  0.04500  0.15150  Biso   1.000  Cl
  C161     1.0000 0.26680  0.14170  0.78640  Biso   1.000  C
  C162     1.0000 0.23320  0.64170  0.71360  Biso   1.000  C
  C163     1.0000 0.73320  0.85830  0.21360  Biso   1.000  C
  C164     1.0000 0.76680  0.35830  0.28640  Biso   1.000  C
  H145     1.0000 0.24190  0.11600  0.72260  Biso   1.000  H
  H146     1.0000 0.25810  0.61600  0.77740  Biso   1.000  H
  H147     1.0000 0.75810  0.88400  0.27740  Biso   1.000  H
  H148     1.0000 0.74190  0.38400  0.22260  Biso   1.000  H
  H149     1.0000 0.21290  0.13820  0.81310  Biso   1.000  H
  H150     1.0000 0.28710  0.63820  0.68690  Biso   1.000  H
  H151     1.0000 0.78710  0.86180  0.18690  Biso   1.000  H
  H152     1.0000 0.71290  0.36180  0.31310  Biso   1.000  H
  Cl17     1.0000 0.27010  0.21270  0.75190  Biso   1.000  Cl
  Cl18     1.0000 0.22990  0.71270  0.74810  Biso   1.000  Cl
  Cl19     1.0000 0.72990  0.78730  0.24810  Biso   1.000  Cl
  Cl20     1.0000 0.77010  0.28730  0.25190  Biso   1.000  Cl
  Cl21     1.0000 0.39070  0.11400  0.88280  Biso   1.000  Cl
  Cl22     1.0000 0.10930  0.61400  0.61720  Biso   1.000  Cl
  Cl23     1.0000 0.60930  0.88600  0.11720  Biso   1.000  Cl
  Cl24     1.0000 0.89070  0.38600  0.38280  Biso   1.000  Cl
  C165     1.0000 0.28700  0.13480  0.83300  Biso   1.000  C
  C166     1.0000 0.21300  0.63480  0.66700  Biso   1.000  C
  C167     1.0000 0.71300  0.86520  0.16700  Biso   1.000  C
  C168     1.0000 0.78700  0.36520  0.33300  Biso   1.000  C
  H153     1.0000 0.21680  0.11280  0.80480  Biso   1.000  H
  H154     1.0000 0.28320  0.61280  0.69520  Biso   1.000  H
  H155     1.0000 0.78320  0.88720  0.19520  Biso   1.000  H
  H156     1.0000 0.71680  0.38720  0.30480  Biso   1.000  H
  H157     1.0000 0.29170  0.16160  0.89090  Biso   1.000  H
  H158     1.0000 0.20830  0.66160  0.60910  Biso   1.000  H
  H159     1.0000 0.70830  0.83840  0.10910  Biso   1.000  H
  H160     1.0000 0.79170  0.33840  0.39090  Biso   1.000  H
  Cl25     1.0000 0.29110  0.17760  0.73380  Biso   1.000  Cl
  Cl26     1.0000 0.20890  0.67760  0.76620  Biso   1.000  Cl
  Cl27     1.0000 0.70890  0.82240  0.26620  Biso   1.000  Cl
  Cl28     1.0000 0.79110  0.32240  0.23380  Biso   1.000  Cl
  Cl29     1.0000 0.39320  0.08320  0.88300  Biso   1.000  Cl
  Cl30     1.0000 0.10680  0.58320  0.61700  Biso   1.000  Cl
  Cl31     1.0000 0.60680  0.91680  0.11700  Biso   1.000  Cl
  Cl32     1.0000 0.89320  0.41680  0.38300  Biso   1.000  Cl
  C169     1.0000 0.37000  0.12600  0.91600  Biso   1.000  C
  C170     1.0000 0.13000  0.62600  0.58400  Biso   1.000  C
  C171     1.0000 0.63000  0.87400  0.08400  Biso   1.000  C
  C172     1.0000 0.87000  0.37400  0.41600  Biso   1.000  C
  H161     1.0000 0.33280  0.14290  0.95430  Biso   1.000  H
  H162     1.0000 0.16720  0.64290  0.54570  Biso   1.000  H
  H163     1.0000 0.66720  0.85710  0.04570  Biso   1.000  H
  H164     1.0000 0.83280  0.35710  0.45430  Biso   1.000  H
  H165     1.0000 0.38270  0.08210  0.93380  Biso   1.000  H
  H166     1.0000 0.11730  0.58210  0.56620  Biso   1.000  H
  H167     1.0000 0.61730  0.91790  0.06620  Biso   1.000  H
  H168     1.0000 0.88270  0.41790  0.43380  Biso   1.000  H
  Cl33     1.0000 0.49320  0.16230  0.95400  Biso   1.000  Cl
  Cl34     1.0000 0.00680  0.66230  0.54600  Biso   1.000  Cl
  Cl35     1.0000 0.50680  0.83770  0.04600  Biso   1.000  Cl
  Cl36     1.0000 0.99320  0.33770  0.45400  Biso   1.000  Cl
  Cl37     1.0000 0.28730  0.13350  0.77950  Biso   1.000  Cl
  Cl38     1.0000 0.21270  0.63350  0.72050  Biso   1.000  Cl
  Cl39     1.0000 0.71270  0.86650  0.22050  Biso   1.000  Cl
  Cl40     1.0000 0.78730  0.36650  0.27950  Biso   1.000  Cl
