data_image0
_cell_length_a       7.104
_cell_length_b       19.035
_cell_length_c       22.532
_cell_angle_alpha    90
_cell_angle_beta     90
_cell_angle_gamma    90

_symmetry_space_group_name_H-M    "P 1"
_symmetry_int_tables_number       1

loop_
  _symmetry_equiv_pos_as_xyz
  'x, y, z'

loop_
  _atom_site_label
  _atom_site_occupancy
  _atom_site_fract_x
  _atom_site_fract_y
  _atom_site_fract_z
  _atom_site_thermal_displace_type
  _atom_site_B_iso_or_equiv
  _atom_site_type_symbol
  Cu1      1.0000 0.45943  0.18612  0.50931  Biso   1.000  Cu
  Cu2      1.0000 0.04057  0.81388  0.00930  Biso   1.000  Cu
  Cu3      1.0000 0.54057  0.68612  0.99069  Biso   1.000  Cu
  Cu4      1.0000 0.95943  0.31388  0.49070  Biso   1.000  Cu
  Cu5      1.0000 0.54057  0.81388  0.49070  Biso   1.000  Cu
  Cu6      1.0000 0.95943  0.18612  0.99069  Biso   1.000  Cu
  Cu7      1.0000 0.45943  0.31388  0.00930  Biso   1.000  Cu
  Cu8      1.0000 0.04057  0.68612  0.50931  Biso   1.000  Cu
  Br1      1.0000 0.47371  0.19470  0.29367  Biso   1.000  Br
  Br2      1.0000 0.02629  0.80530  0.79367  Biso   1.000  Br
  Br3      1.0000 0.52629  0.69470  0.20633  Biso   1.000  Br
  Br4      1.0000 0.97371  0.30530  0.70633  Biso   1.000  Br
  Br5      1.0000 0.52629  0.80530  0.70633  Biso   1.000  Br
  Br6      1.0000 0.97371  0.19470  0.20633  Biso   1.000  Br
  Br7      1.0000 0.47371  0.30530  0.79367  Biso   1.000  Br
  Br8      1.0000 0.02629  0.69470  0.29367  Biso   1.000  Br
  Br9      1.0000 0.04185  0.94599  0.28796  Biso   1.000  Br
  Br10     1.0000 0.45815  0.05401  0.78796  Biso   1.000  Br
  Br11     1.0000 0.95815  0.44599  0.21204  Biso   1.000  Br
  Br12     1.0000 0.54185  0.55401  0.71204  Biso   1.000  Br
  Br13     1.0000 0.95815  0.05401  0.71204  Biso   1.000  Br
  Br14     1.0000 0.54185  0.94599  0.21204  Biso   1.000  Br
  Br15     1.0000 0.04185  0.55401  0.78796  Biso   1.000  Br
  Br16     1.0000 0.45815  0.44599  0.28796  Biso   1.000  Br
  O1       1.0000 0.45740  0.16910  0.42546  Biso   1.000  O
  O2       1.0000 0.04260  0.83090  0.92546  Biso   1.000  O
  O3       1.0000 0.54260  0.66910  0.07454  Biso   1.000  O
  O4       1.0000 0.95740  0.33090  0.57454  Biso   1.000  O
  O5       1.0000 0.54260  0.83090  0.57454  Biso   1.000  O
  O6       1.0000 0.95740  0.16910  0.07454  Biso   1.000  O
  O7       1.0000 0.45740  0.33090  0.92546  Biso   1.000  O
  O8       1.0000 0.04260  0.66910  0.42546  Biso   1.000  O
  N1       1.0000 0.36070  0.09290  0.52706  Biso   1.000  N
  N2       1.0000 0.13930  0.90710  0.02706  Biso   1.000  N
  N3       1.0000 0.63930  0.59290  0.97294  Biso   1.000  N
  N4       1.0000 0.86070  0.40710  0.47294  Biso   1.000  N
  N5       1.0000 0.63930  0.90710  0.47294  Biso   1.000  N
  N6       1.0000 0.86070  0.09290  0.97294  Biso   1.000  N
  N7       1.0000 0.36070  0.40710  0.02706  Biso   1.000  N
  N8       1.0000 0.13930  0.59290  0.52706  Biso   1.000  N
  N9       1.0000 0.45830  0.19955  0.59970  Biso   1.000  N
  N10      1.0000 0.04170  0.80045  0.09970  Biso   1.000  N
  N11      1.0000 0.54170  0.69955  0.90030  Biso   1.000  N
  N12      1.0000 0.95830  0.30045  0.40030  Biso   1.000  N
  N13      1.0000 0.54170  0.80045  0.40030  Biso   1.000  N
  N14      1.0000 0.95830  0.19955  0.90030  Biso   1.000  N
  N15      1.0000 0.45830  0.30045  0.09970  Biso   1.000  N
  N16      1.0000 0.04170  0.69955  0.59970  Biso   1.000  N
  N17      1.0000 0.58330  0.27770  0.49534  Biso   1.000  N
  N18      1.0000 0.91670  0.72230  0.99534  Biso   1.000  N
  N19      1.0000 0.41670  0.77770  0.00466  Biso   1.000  N
  N20      1.0000 0.08330  0.22230  0.50466  Biso   1.000  N
  N21      1.0000 0.41670  0.72230  0.50466  Biso   1.000  N
  N22      1.0000 0.08330  0.27770  0.00466  Biso   1.000  N
  N23      1.0000 0.58330  0.22230  0.99534  Biso   1.000  N
  N24      1.0000 0.91670  0.77770  0.49534  Biso   1.000  N
  N25      1.0000 0.48130  0.32809  0.49274  Biso   1.000  N
  N26      1.0000 0.01870  0.67191  0.99274  Biso   1.000  N
  N27      1.0000 0.51870  0.82809  0.00726  Biso   1.000  N
  N28      1.0000 0.98130  0.17191  0.50726  Biso   1.000  N
  N29      1.0000 0.51870  0.67191  0.50726  Biso   1.000  N
  N30      1.0000 0.98130  0.32809  0.00726  Biso   1.000  N
  N31      1.0000 0.48130  0.17191  0.99274  Biso   1.000  N
  N32      1.0000 0.01870  0.82809  0.49274  Biso   1.000  N
  N33      1.0000 0.38830  0.37787  0.49031  Biso   1.000  N
  N34      1.0000 0.11170  0.62213  0.99031  Biso   1.000  N
  N35      1.0000 0.61170  0.87787  0.00969  Biso   1.000  N
  N36      1.0000 0.88830  0.12213  0.50969  Biso   1.000  N
  N37      1.0000 0.61170  0.62213  0.50969  Biso   1.000  N
  N38      1.0000 0.88830  0.37787  0.00969  Biso   1.000  N
  N39      1.0000 0.38830  0.12213  0.99031  Biso   1.000  N
  N40      1.0000 0.11170  0.87787  0.49031  Biso   1.000  N
  C1       1.0000 0.27960  0.06125  0.42626  Biso   1.000  C
  C2       1.0000 0.22040  0.93875  0.92626  Biso   1.000  C
  C3       1.0000 0.72040  0.56125  0.07374  Biso   1.000  C
  C4       1.0000 0.77960  0.43875  0.57374  Biso   1.000  C
  C5       1.0000 0.72040  0.93875  0.57374  Biso   1.000  C
  C6       1.0000 0.77960  0.06125  0.07374  Biso   1.000  C
  C7       1.0000 0.27960  0.43875  0.92626  Biso   1.000  C
  C8       1.0000 0.22040  0.56125  0.42626  Biso   1.000  C
  C9       1.0000 0.36940  0.11902  0.39811  Biso   1.000  C
  C10      1.0000 0.13060  0.88098  0.89811  Biso   1.000  C
  C11      1.0000 0.63060  0.61902  0.10189  Biso   1.000  C
  C12      1.0000 0.86940  0.38098  0.60189  Biso   1.000  C
  C13      1.0000 0.63060  0.88098  0.60189  Biso   1.000  C
  C14      1.0000 0.86940  0.11902  0.10189  Biso   1.000  C
  C15      1.0000 0.36940  0.38098  0.89811  Biso   1.000  C
  C16      1.0000 0.13060  0.61902  0.39811  Biso   1.000  C
  C17      1.0000 0.35500  0.12038  0.33516  Biso   1.000  C
  C18      1.0000 0.14500  0.87962  0.83516  Biso   1.000  C
  C19      1.0000 0.64500  0.62038  0.16484  Biso   1.000  C
  C20      1.0000 0.85500  0.37962  0.66484  Biso   1.000  C
  C21      1.0000 0.64500  0.87962  0.66484  Biso   1.000  C
  C22      1.0000 0.85500  0.12038  0.16484  Biso   1.000  C
  C23      1.0000 0.35500  0.37962  0.83516  Biso   1.000  C
  C24      1.0000 0.14500  0.62038  0.33516  Biso   1.000  C
  C25      1.0000 0.26000  0.07060  0.30284  Biso   1.000  C
  C26      1.0000 0.24000  0.92940  0.80284  Biso   1.000  C
  C27      1.0000 0.74000  0.57060  0.19716  Biso   1.000  C
  C28      1.0000 0.76000  0.42940  0.69716  Biso   1.000  C
  C29      1.0000 0.74000  0.92940  0.69716  Biso   1.000  C
  C30      1.0000 0.76000  0.07060  0.19716  Biso   1.000  C
  C31      1.0000 0.26000  0.42940  0.80284  Biso   1.000  C
  C32      1.0000 0.24000  0.57060  0.30284  Biso   1.000  C
  H1       1.0000 0.25390  0.07370  0.26170  Biso   1.000  H
  H2       1.0000 0.24610  0.92630  0.76170  Biso   1.000  H
  H3       1.0000 0.74610  0.57370  0.23830  Biso   1.000  H
  H4       1.0000 0.75390  0.42630  0.73830  Biso   1.000  H
  H5       1.0000 0.74610  0.92630  0.73830  Biso   1.000  H
  H6       1.0000 0.75390  0.07370  0.23830  Biso   1.000  H
  H7       1.0000 0.25390  0.42630  0.76170  Biso   1.000  H
  H8       1.0000 0.24610  0.57370  0.26170  Biso   1.000  H
  C33      1.0000 0.17280  0.01541  0.33262  Biso   1.000  C
  C34      1.0000 0.32720  0.98459  0.83262  Biso   1.000  C
  C35      1.0000 0.82720  0.51541  0.16738  Biso   1.000  C
  C36      1.0000 0.67280  0.48459  0.66738  Biso   1.000  C
  C37      1.0000 0.82720  0.98459  0.66738  Biso   1.000  C
  C38      1.0000 0.67280  0.01541  0.16738  Biso   1.000  C
  C39      1.0000 0.17280  0.48459  0.83262  Biso   1.000  C
  C40      1.0000 0.32720  0.51541  0.33262  Biso   1.000  C
  C41      1.0000 0.18190  0.01040  0.39306  Biso   1.000  C
  C42      1.0000 0.31810  0.98960  0.89306  Biso   1.000  C
  C43      1.0000 0.81810  0.51040  0.10694  Biso   1.000  C
  C44      1.0000 0.68190  0.48960  0.60694  Biso   1.000  C
  C45      1.0000 0.81810  0.98960  0.60694  Biso   1.000  C
  C46      1.0000 0.68190  0.01040  0.10694  Biso   1.000  C
  C47      1.0000 0.18190  0.48960  0.89306  Biso   1.000  C
  C48      1.0000 0.31810  0.51040  0.39306  Biso   1.000  C
  H9       1.0000 0.12320  0.97320  0.41230  Biso   1.000  H
  H10      1.0000 0.37680  0.02680  0.91230  Biso   1.000  H
  H11      1.0000 0.87680  0.47320  0.08770  Biso   1.000  H
  H12      1.0000 0.62320  0.52680  0.58770  Biso   1.000  H
  H13      1.0000 0.87680  0.02680  0.58770  Biso   1.000  H
  H14      1.0000 0.62320  0.97320  0.08770  Biso   1.000  H
  H15      1.0000 0.12320  0.52680  0.91230  Biso   1.000  H
  H16      1.0000 0.37680  0.47320  0.41230  Biso   1.000  H
  C49      1.0000 0.28440  0.05107  0.48978  Biso   1.000  C
  C50      1.0000 0.21560  0.94893  0.98978  Biso   1.000  C
  C51      1.0000 0.71560  0.55107  0.01022  Biso   1.000  C
  C52      1.0000 0.78440  0.44893  0.51022  Biso   1.000  C
  C53      1.0000 0.71560  0.94893  0.51022  Biso   1.000  C
  C54      1.0000 0.78440  0.05107  0.01022  Biso   1.000  C
  C55      1.0000 0.28440  0.44893  0.98978  Biso   1.000  C
  C56      1.0000 0.21560  0.55107  0.48978  Biso   1.000  C
  H17      1.0000 0.22740  0.01080  0.50470  Biso   1.000  H
  H18      1.0000 0.27260  0.98920  0.00470  Biso   1.000  H
  H19      1.0000 0.77260  0.51080  0.99530  Biso   1.000  H
  H20      1.0000 0.72740  0.48920  0.49530  Biso   1.000  H
  H21      1.0000 0.77260  0.98920  0.49530  Biso   1.000  H
  H22      1.0000 0.72740  0.01080  0.99530  Biso   1.000  H
  H23      1.0000 0.22740  0.48920  0.00470  Biso   1.000  H
  H24      1.0000 0.27260  0.51080  0.50470  Biso   1.000  H
  C57      1.0000 0.35040  0.07746  0.59077  Biso   1.000  C
  C58      1.0000 0.14960  0.92254  0.09077  Biso   1.000  C
  C59      1.0000 0.64960  0.57746  0.90923  Biso   1.000  C
  C60      1.0000 0.85040  0.42254  0.40923  Biso   1.000  C
  C61      1.0000 0.64960  0.92254  0.40923  Biso   1.000  C
  C62      1.0000 0.85040  0.07746  0.90923  Biso   1.000  C
  C63      1.0000 0.35040  0.42254  0.09077  Biso   1.000  C
  C64      1.0000 0.14960  0.57746  0.59077  Biso   1.000  C
  H25      1.0000 0.46620  0.05560  0.60420  Biso   1.000  H
  H26      1.0000 0.03380  0.94440  0.10420  Biso   1.000  H
  H27      1.0000 0.53380  0.55560  0.89580  Biso   1.000  H
  H28      1.0000 0.96620  0.44440  0.39580  Biso   1.000  H
  H29      1.0000 0.53380  0.94440  0.39580  Biso   1.000  H
  H30      1.0000 0.96620  0.05560  0.89580  Biso   1.000  H
  H31      1.0000 0.46620  0.44440  0.10420  Biso   1.000  H
  H32      1.0000 0.03380  0.55560  0.60420  Biso   1.000  H
  H33      1.0000 0.24650  0.04590  0.59900  Biso   1.000  H
  H34      1.0000 0.25350  0.95410  0.09900  Biso   1.000  H
  H35      1.0000 0.75350  0.54590  0.90100  Biso   1.000  H
  H36      1.0000 0.74650  0.45410  0.40100  Biso   1.000  H
  H37      1.0000 0.75350  0.95410  0.40100  Biso   1.000  H
  H38      1.0000 0.74650  0.04590  0.90100  Biso   1.000  H
  H39      1.0000 0.24650  0.45410  0.09900  Biso   1.000  H
  H40      1.0000 0.25350  0.54590  0.59900  Biso   1.000  H
  C65      1.0000 0.32090  0.14716  0.62200  Biso   1.000  C
  C66      1.0000 0.17910  0.85284  0.12200  Biso   1.000  C
  C67      1.0000 0.67910  0.64716  0.87800  Biso   1.000  C
  C68      1.0000 0.82090  0.35284  0.37800  Biso   1.000  C
  C69      1.0000 0.67910  0.85284  0.37800  Biso   1.000  C
  C70      1.0000 0.82090  0.14716  0.87800  Biso   1.000  C
  C71      1.0000 0.32090  0.35284  0.12200  Biso   1.000  C
  C72      1.0000 0.17910  0.64716  0.62200  Biso   1.000  C
  H41      1.0000 0.19380  0.16380  0.61480  Biso   1.000  H
  H42      1.0000 0.30620  0.83620  0.11480  Biso   1.000  H
  H43      1.0000 0.80620  0.66380  0.88520  Biso   1.000  H
  H44      1.0000 0.69380  0.33620  0.38520  Biso   1.000  H
  H45      1.0000 0.80620  0.83620  0.38520  Biso   1.000  H
  H46      1.0000 0.69380  0.16380  0.88520  Biso   1.000  H
  H47      1.0000 0.19380  0.33620  0.11480  Biso   1.000  H
  H48      1.0000 0.30620  0.66380  0.61480  Biso   1.000  H
  H49      1.0000 0.33690  0.14110  0.66440  Biso   1.000  H
  H50      1.0000 0.16310  0.85890  0.16440  Biso   1.000  H
  H51      1.0000 0.66310  0.64110  0.83560  Biso   1.000  H
  H52      1.0000 0.83690  0.35890  0.33560  Biso   1.000  H
  H53      1.0000 0.66310  0.85890  0.33560  Biso   1.000  H
  H54      1.0000 0.83690  0.14110  0.83560  Biso   1.000  H
  H55      1.0000 0.33690  0.35890  0.16440  Biso   1.000  H
  H56      1.0000 0.16310  0.64110  0.66440  Biso   1.000  H
  C73      1.0000 0.64790  0.18597  0.62413  Biso   1.000  C
  C74      1.0000 0.85210  0.81403  0.12413  Biso   1.000  C
  C75      1.0000 0.35210  0.68597  0.87587  Biso   1.000  C
  C76      1.0000 0.14790  0.31403  0.37587  Biso   1.000  C
  C77      1.0000 0.35210  0.81403  0.37587  Biso   1.000  C
  C78      1.0000 0.14790  0.18597  0.87587  Biso   1.000  C
  C79      1.0000 0.64790  0.31403  0.12413  Biso   1.000  C
  C80      1.0000 0.85210  0.68597  0.62413  Biso   1.000  C
  H57      1.0000 0.64270  0.18720  0.66670  Biso   1.000  H
  H58      1.0000 0.85730  0.81280  0.16670  Biso   1.000  H
  H59      1.0000 0.35730  0.68720  0.83330  Biso   1.000  H
  H60      1.0000 0.14270  0.31280  0.33330  Biso   1.000  H
  H61      1.0000 0.35730  0.81280  0.33330  Biso   1.000  H
  H62      1.0000 0.14270  0.18720  0.83330  Biso   1.000  H
  H63      1.0000 0.64270  0.31280  0.16670  Biso   1.000  H
  H64      1.0000 0.85730  0.68720  0.66670  Biso   1.000  H
  H65      1.0000 0.73350  0.22130  0.61020  Biso   1.000  H
  H66      1.0000 0.76650  0.77870  0.11020  Biso   1.000  H
  H67      1.0000 0.26650  0.72130  0.88980  Biso   1.000  H
  H68      1.0000 0.23350  0.27870  0.38980  Biso   1.000  H
  H69      1.0000 0.26650  0.77870  0.38980  Biso   1.000  H
  H70      1.0000 0.23350  0.22130  0.88980  Biso   1.000  H
  H71      1.0000 0.73350  0.27870  0.11020  Biso   1.000  H
  H72      1.0000 0.76650  0.72130  0.61020  Biso   1.000  H
  H73      1.0000 0.69050  0.14060  0.61130  Biso   1.000  H
  H74      1.0000 0.80950  0.85940  0.11130  Biso   1.000  H
  H75      1.0000 0.30950  0.64060  0.88870  Biso   1.000  H
  H76      1.0000 0.19050  0.35940  0.38870  Biso   1.000  H
  H77      1.0000 0.30950  0.85940  0.38870  Biso   1.000  H
  H78      1.0000 0.19050  0.14060  0.88870  Biso   1.000  H
  H79      1.0000 0.69050  0.35940  0.11130  Biso   1.000  H
  H80      1.0000 0.80950  0.64060  0.61130  Biso   1.000  H
  C81      1.0000 0.39810  0.27085  0.61868  Biso   1.000  C
  C82      1.0000 0.10190  0.72915  0.11868  Biso   1.000  C
  C83      1.0000 0.60190  0.77085  0.88132  Biso   1.000  C
  C84      1.0000 0.89810  0.22915  0.38132  Biso   1.000  C
  C85      1.0000 0.60190  0.72915  0.38132  Biso   1.000  C
  C86      1.0000 0.89810  0.27085  0.88132  Biso   1.000  C
  C87      1.0000 0.39810  0.22915  0.11868  Biso   1.000  C
  C88      1.0000 0.10190  0.77085  0.61868  Biso   1.000  C
  H81      1.0000 0.38950  0.27240  0.66120  Biso   1.000  H
  H82      1.0000 0.11050  0.72760  0.16120  Biso   1.000  H
  H83      1.0000 0.61050  0.77240  0.83880  Biso   1.000  H
  H84      1.0000 0.88950  0.22760  0.33880  Biso   1.000  H
  H85      1.0000 0.61050  0.72760  0.33880  Biso   1.000  H
  H86      1.0000 0.88950  0.27240  0.83880  Biso   1.000  H
  H87      1.0000 0.38950  0.22760  0.16120  Biso   1.000  H
  H88      1.0000 0.11050  0.77240  0.66120  Biso   1.000  H
  H89      1.0000 0.27730  0.28140  0.60180  Biso   1.000  H
  H90      1.0000 0.22270  0.71860  0.10180  Biso   1.000  H
  H91      1.0000 0.72270  0.78140  0.89820  Biso   1.000  H
  H92      1.0000 0.77730  0.21860  0.39820  Biso   1.000  H
  H93      1.0000 0.72270  0.71860  0.39820  Biso   1.000  H
  H94      1.0000 0.77730  0.28140  0.89820  Biso   1.000  H
  H95      1.0000 0.27730  0.21860  0.10180  Biso   1.000  H
  H96      1.0000 0.22270  0.78140  0.60180  Biso   1.000  H
  H97      1.0000 0.48860  0.30480  0.60540  Biso   1.000  H
  H98      1.0000 0.01140  0.69520  0.10540  Biso   1.000  H
  H99      1.0000 0.51140  0.80480  0.89460  Biso   1.000  H
  H100     1.0000 0.98860  0.19520  0.39460  Biso   1.000  H
  H101     1.0000 0.51140  0.69520  0.39460  Biso   1.000  H
  H102     1.0000 0.98860  0.30480  0.89460  Biso   1.000  H
  H103     1.0000 0.48860  0.19520  0.10540  Biso   1.000  H
  H104     1.0000 0.01140  0.80480  0.60540  Biso   1.000  H
