data_image0
_cell_length_a       10.903
_cell_length_b       7.34
_cell_length_c       19.435
_cell_angle_alpha    90
_cell_angle_beta     98.27
_cell_angle_gamma    90

_symmetry_space_group_name_H-M    "P 1"
_symmetry_int_tables_number       1

loop_
  _symmetry_equiv_pos_as_xyz
  'x, y, z'

loop_
  _atom_site_label
  _atom_site_occupancy
  _atom_site_fract_x
  _atom_site_fract_y
  _atom_site_fract_z
  _atom_site_thermal_displace_type
  _atom_site_B_iso_or_equiv
  _atom_site_type_symbol
  Cu1      1.0000 0.11503  0.08862  0.15035  Biso   1.000  Cu
  Cu2      1.0000 0.88497  0.58862  0.34965  Biso   1.000  Cu
  Cu3      1.0000 0.88497  0.91138  0.84965  Biso   1.000  Cu
  Cu4      1.0000 0.11503  0.41138  0.65035  Biso   1.000  Cu
  O1       1.0000 0.97670  0.14850  0.07920  Biso   1.000  O
  O2       1.0000 0.02330  0.64850  0.42080  Biso   1.000  O
  O3       1.0000 0.02330  0.85150  0.92080  Biso   1.000  O
  O4       1.0000 0.97670  0.35150  0.57920  Biso   1.000  O
  C1       1.0000 0.97220  0.22060  0.01880  Biso   1.000  C
  C2       1.0000 0.02780  0.72060  0.48120  Biso   1.000  C
  C3       1.0000 0.02780  0.77940  0.98120  Biso   1.000  C
  C4       1.0000 0.97220  0.27940  0.51880  Biso   1.000  C
  O5       1.0000 0.87390  0.23960  0.97960  Biso   1.000  O
  O6       1.0000 0.12610  0.73960  0.52040  Biso   1.000  O
  O7       1.0000 0.12610  0.76040  0.02040  Biso   1.000  O
  O8       1.0000 0.87390  0.26040  0.47960  Biso   1.000  O
  C5       1.0000 0.09250  0.28150  0.99560  Biso   1.000  C
  C6       1.0000 0.90750  0.78150  0.50440  Biso   1.000  C
  C7       1.0000 0.90750  0.71850  0.00440  Biso   1.000  C
  C8       1.0000 0.09250  0.21850  0.49560  Biso   1.000  C
  C9       1.0000 0.18720  0.35670  0.05230  Biso   1.000  C
  C10      1.0000 0.81280  0.85670  0.44770  Biso   1.000  C
  C11      1.0000 0.81280  0.64330  0.94770  Biso   1.000  C
  C12      1.0000 0.18720  0.14330  0.55230  Biso   1.000  C
  N1       1.0000 0.24490  0.21980  0.10390  Biso   1.000  N
  N2       1.0000 0.75510  0.71980  0.39610  Biso   1.000  N
  N3       1.0000 0.75510  0.78020  0.89610  Biso   1.000  N
  N4       1.0000 0.24490  0.28020  0.60390  Biso   1.000  N
  C13      1.0000 0.31860  0.08270  0.06890  Biso   1.000  C
  C14      1.0000 0.68140  0.58270  0.43110  Biso   1.000  C
  C15      1.0000 0.68140  0.91730  0.93110  Biso   1.000  C
  C16      1.0000 0.31860  0.41730  0.56890  Biso   1.000  C
  C17      1.0000 0.33320  0.32350  0.15670  Biso   1.000  C
  C18      1.0000 0.66680  0.82350  0.34330  Biso   1.000  C
  C19      1.0000 0.66680  0.67650  0.84330  Biso   1.000  C
  C20      1.0000 0.33320  0.17650  0.65670  Biso   1.000  C
  N5       1.0000 0.39650  0.96950  0.11840  Biso   1.000  N
  N6       1.0000 0.60350  0.46950  0.38160  Biso   1.000  N
  N7       1.0000 0.60350  0.03050  0.88160  Biso   1.000  N
  N8       1.0000 0.39650  0.53050  0.61840  Biso   1.000  N
  N9       1.0000 0.41240  0.20550  0.20380  Biso   1.000  N
  N10      1.0000 0.58760  0.70550  0.29620  Biso   1.000  N
  N11      1.0000 0.58760  0.79450  0.79620  Biso   1.000  N
  N12      1.0000 0.41240  0.29450  0.70380  Biso   1.000  N
  C21      1.0000 0.48110  0.08580  0.16340  Biso   1.000  C
  C22      1.0000 0.51890  0.58580  0.33660  Biso   1.000  C
  C23      1.0000 0.51890  0.91420  0.83660  Biso   1.000  C
  C24      1.0000 0.48110  0.41420  0.66340  Biso   1.000  C
  C25      1.0000 0.33010  0.85440  0.16020  Biso   1.000  C
  C26      1.0000 0.66990  0.35440  0.33980  Biso   1.000  C
  C27      1.0000 0.66990  0.14560  0.83980  Biso   1.000  C
  C28      1.0000 0.33010  0.64560  0.66020  Biso   1.000  C
  C29      1.0000 0.34600  0.09760  0.24850  Biso   1.000  C
  C30      1.0000 0.65400  0.59760  0.25150  Biso   1.000  C
  C31      1.0000 0.65400  0.90240  0.75150  Biso   1.000  C
  C32      1.0000 0.34600  0.40240  0.74850  Biso   1.000  C
  N13      1.0000 0.25930  0.95970  0.20890  Biso   1.000  N
  N14      1.0000 0.74070  0.45970  0.29110  Biso   1.000  N
  N15      1.0000 0.74070  0.04030  0.79110  Biso   1.000  N
  N16      1.0000 0.25930  0.54030  0.70890  Biso   1.000  N
  C33      1.0000 0.21980  0.82670  0.25930  Biso   1.000  C
  C34      1.0000 0.78020  0.32670  0.24070  Biso   1.000  C
  C35      1.0000 0.78020  0.17330  0.74070  Biso   1.000  C
  C36      1.0000 0.21980  0.67330  0.75930  Biso   1.000  C
  C37      1.0000 0.11970  0.89890  0.29800  Biso   1.000  C
  C38      1.0000 0.88030  0.39890  0.20200  Biso   1.000  C
  C39      1.0000 0.88030  0.10110  0.70200  Biso   1.000  C
  C40      1.0000 0.11970  0.60110  0.79800  Biso   1.000  C
  C41      1.0000 0.99420  0.89430  0.25350  Biso   1.000  C
  C42      1.0000 0.00580  0.39430  0.24650  Biso   1.000  C
  C43      1.0000 0.00580  0.10570  0.74650  Biso   1.000  C
  C44      1.0000 0.99420  0.60570  0.75350  Biso   1.000  C
  O9       1.0000 0.98770  0.95010  0.19040  Biso   1.000  O
  O10      1.0000 0.01230  0.45010  0.30960  Biso   1.000  O
  O11      1.0000 0.01230  0.04990  0.80960  Biso   1.000  O
  O12      1.0000 0.98770  0.54990  0.69040  Biso   1.000  O
  O13      1.0000 0.90260  0.83530  0.27680  Biso   1.000  O
  O14      1.0000 0.09740  0.33530  0.22320  Biso   1.000  O
  O15      1.0000 0.09740  0.16470  0.72320  Biso   1.000  O
  O16      1.0000 0.90260  0.66470  0.77680  Biso   1.000  O
  H1       1.0000 0.12830  0.17810  0.97570  Biso   1.000  H
  H2       1.0000 0.87170  0.67810  0.52430  Biso   1.000  H
  H3       1.0000 0.87170  0.82190  0.02430  Biso   1.000  H
  H4       1.0000 0.12830  0.32190  0.47570  Biso   1.000  H
  H5       1.0000 0.07360  0.37390  0.96070  Biso   1.000  H
  H6       1.0000 0.92640  0.87390  0.53930  Biso   1.000  H
  H7       1.0000 0.92640  0.62610  0.03930  Biso   1.000  H
  H8       1.0000 0.07360  0.12610  0.46070  Biso   1.000  H
  H9       1.0000 0.14750  0.44760  0.07700  Biso   1.000  H
  H10      1.0000 0.85250  0.94760  0.42300  Biso   1.000  H
  H11      1.0000 0.85250  0.55240  0.92300  Biso   1.000  H
  H12      1.0000 0.14750  0.05240  0.57700  Biso   1.000  H
  H13      1.0000 0.25200  0.41220  0.03100  Biso   1.000  H
  H14      1.0000 0.74800  0.91220  0.46900  Biso   1.000  H
  H15      1.0000 0.74800  0.58780  0.96900  Biso   1.000  H
  H16      1.0000 0.25200  0.08780  0.53100  Biso   1.000  H
  H17      1.0000 0.37020  0.14690  0.04100  Biso   1.000  H
  H18      1.0000 0.62980  0.64690  0.45900  Biso   1.000  H
  H19      1.0000 0.62980  0.85310  0.95900  Biso   1.000  H
  H20      1.0000 0.37020  0.35310  0.54100  Biso   1.000  H
  H21      1.0000 0.26210  0.00550  0.03970  Biso   1.000  H
  H22      1.0000 0.73790  0.50550  0.46030  Biso   1.000  H
  H23      1.0000 0.73790  0.99450  0.96030  Biso   1.000  H
  H24      1.0000 0.26210  0.49450  0.53970  Biso   1.000  H
  H25      1.0000 0.28600  0.39890  0.18360  Biso   1.000  H
  H26      1.0000 0.71400  0.89890  0.31640  Biso   1.000  H
  H27      1.0000 0.71400  0.60110  0.81640  Biso   1.000  H
  H28      1.0000 0.28600  0.10110  0.68360  Biso   1.000  H
  H29      1.0000 0.38470  0.39880  0.13240  Biso   1.000  H
  H30      1.0000 0.61530  0.89880  0.36760  Biso   1.000  H
  H31      1.0000 0.61530  0.60120  0.86760  Biso   1.000  H
  H32      1.0000 0.38470  0.10120  0.63240  Biso   1.000  H
  H33      1.0000 0.53650  0.01140  0.19440  Biso   1.000  H
  H34      1.0000 0.46350  0.51140  0.30560  Biso   1.000  H
  H35      1.0000 0.46350  0.98860  0.80560  Biso   1.000  H
  H36      1.0000 0.53650  0.48860  0.69440  Biso   1.000  H
  H37      1.0000 0.52790  0.15810  0.13520  Biso   1.000  H
  H38      1.0000 0.47210  0.65810  0.36480  Biso   1.000  H
  H39      1.0000 0.47210  0.84190  0.86480  Biso   1.000  H
  H40      1.0000 0.52790  0.34190  0.63520  Biso   1.000  H
  H41      1.0000 0.27270  0.78140  0.12990  Biso   1.000  H
  H42      1.0000 0.72730  0.28140  0.37010  Biso   1.000  H
  H43      1.0000 0.72730  0.21860  0.87010  Biso   1.000  H
  H44      1.0000 0.27270  0.71860  0.62990  Biso   1.000  H
  H45      1.0000 0.38890  0.77660  0.18770  Biso   1.000  H
  H46      1.0000 0.61110  0.27660  0.31230  Biso   1.000  H
  H47      1.0000 0.61110  0.22340  0.81230  Biso   1.000  H
  H48      1.0000 0.38890  0.72340  0.68770  Biso   1.000  H
  H49      1.0000 0.40540  0.03320  0.28080  Biso   1.000  H
  H50      1.0000 0.59460  0.53320  0.21920  Biso   1.000  H
  H51      1.0000 0.59460  0.96680  0.71920  Biso   1.000  H
  H52      1.0000 0.40540  0.46680  0.78080  Biso   1.000  H
  H53      1.0000 0.29850  0.17780  0.27340  Biso   1.000  H
  H54      1.0000 0.70150  0.67780  0.22660  Biso   1.000  H
  H55      1.0000 0.70150  0.82220  0.72660  Biso   1.000  H
  H56      1.0000 0.29850  0.32220  0.77340  Biso   1.000  H
  H57      1.0000 0.18970  0.71890  0.23440  Biso   1.000  H
  H58      1.0000 0.81030  0.21890  0.26560  Biso   1.000  H
  H59      1.0000 0.81030  0.28110  0.76560  Biso   1.000  H
  H60      1.0000 0.18970  0.78110  0.73440  Biso   1.000  H
  H61      1.0000 0.29050  0.79630  0.29270  Biso   1.000  H
  H62      1.0000 0.70950  0.29630  0.20730  Biso   1.000  H
  H63      1.0000 0.70950  0.20370  0.70730  Biso   1.000  H
  H64      1.0000 0.29050  0.70370  0.79270  Biso   1.000  H
  H65      1.0000 0.11680  0.82560  0.33860  Biso   1.000  H
  H66      1.0000 0.88320  0.32560  0.16140  Biso   1.000  H
  H67      1.0000 0.88320  0.17440  0.66140  Biso   1.000  H
  H68      1.0000 0.11680  0.67440  0.83860  Biso   1.000  H
  H69      1.0000 0.13880  0.02260  0.31170  Biso   1.000  H
  H70      1.0000 0.86120  0.52260  0.18830  Biso   1.000  H
  H71      1.0000 0.86120  0.97740  0.68830  Biso   1.000  H
  H72      1.0000 0.13880  0.47740  0.81170  Biso   1.000  H
  O17      1.0000 0.34710  0.78000  0.46190  Biso   1.000  O
  O18      1.0000 0.65290  0.28000  0.03810  Biso   1.000  O
  O19      1.0000 0.65290  0.22000  0.53810  Biso   1.000  O
  O20      1.0000 0.34710  0.72000  0.96190  Biso   1.000  O
  H73      1.0000 0.35410  0.86970  0.42670  Biso   1.000  H
  H74      1.0000 0.64590  0.36970  0.07330  Biso   1.000  H
  H75      1.0000 0.64590  0.13030  0.57330  Biso   1.000  H
  H76      1.0000 0.35410  0.63030  0.92670  Biso   1.000  H
  H77      1.0000 0.27710  0.80810  0.48480  Biso   1.000  H
  H78      1.0000 0.72290  0.30810  0.01520  Biso   1.000  H
  H79      1.0000 0.72290  0.19190  0.51520  Biso   1.000  H
  H80      1.0000 0.27710  0.69190  0.98480  Biso   1.000  H
  O21      1.0000 0.57360  0.86240  0.57460  Biso   1.000  O
  O22      1.0000 0.42640  0.36240  0.92540  Biso   1.000  O
  O23      1.0000 0.42640  0.13760  0.42540  Biso   1.000  O
  O24      1.0000 0.57360  0.63760  0.07460  Biso   1.000  O
  H81      1.0000 0.64810  0.92190  0.56560  Biso   1.000  H
  H82      1.0000 0.35190  0.42190  0.93440  Biso   1.000  H
  H83      1.0000 0.35190  0.07810  0.43440  Biso   1.000  H
  H84      1.0000 0.64810  0.57810  0.06560  Biso   1.000  H
  H85      1.0000 0.57110  0.86030  0.62370  Biso   1.000  H
  H86      1.0000 0.42890  0.36030  0.87630  Biso   1.000  H
  H87      1.0000 0.42890  0.13970  0.37630  Biso   1.000  H
  H88      1.0000 0.57110  0.63970  0.12370  Biso   1.000  H
  O25      1.0000 0.26520  0.43320  0.37710  Biso   1.000  O
  O26      1.0000 0.73480  0.93320  0.12290  Biso   1.000  O
  O27      1.0000 0.73480  0.56680  0.62290  Biso   1.000  O
  O28      1.0000 0.26520  0.06680  0.87710  Biso   1.000  O
  H89      1.0000 0.25290  0.35230  0.41430  Biso   1.000  H
  H90      1.0000 0.74710  0.85230  0.08570  Biso   1.000  H
  H91      1.0000 0.74710  0.64770  0.58570  Biso   1.000  H
  H92      1.0000 0.25290  0.14770  0.91430  Biso   1.000  H
  H93      1.0000 0.18620  0.47330  0.35380  Biso   1.000  H
  H94      1.0000 0.81380  0.97330  0.14620  Biso   1.000  H
  H95      1.0000 0.81380  0.52670  0.64620  Biso   1.000  H
  H96      1.0000 0.18620  0.02670  0.85380  Biso   1.000  H
