data_image0
_cell_length_a       9.703
_cell_length_b       13.184
_cell_length_c       19.825
_cell_angle_alpha    90
_cell_angle_beta     115.12
_cell_angle_gamma    90

_symmetry_space_group_name_H-M    "P 1"
_symmetry_int_tables_number       1

loop_
  _symmetry_equiv_pos_as_xyz
  'x, y, z'

loop_
  _atom_site_label
  _atom_site_occupancy
  _atom_site_fract_x
  _atom_site_fract_y
  _atom_site_fract_z
  _atom_site_thermal_displace_type
  _atom_site_B_iso_or_equiv
  _atom_site_type_symbol
  Cu1      1.0000 0.89732  0.35655  0.44375  Biso   1.000  Cu
  Cu2      1.0000 0.10268  0.85655  0.05625  Biso   1.000  Cu
  Cu3      1.0000 0.10268  0.64345  0.55625  Biso   1.000  Cu
  Cu4      1.0000 0.89732  0.14345  0.94375  Biso   1.000  Cu
  O1       1.0000 0.70660  0.34320  0.35070  Biso   1.000  O
  O2       1.0000 0.29340  0.84320  0.14930  Biso   1.000  O
  O3       1.0000 0.29340  0.65680  0.64930  Biso   1.000  O
  O4       1.0000 0.70660  0.15680  0.85070  Biso   1.000  O
  C1       1.0000 0.69940  0.25130  0.33240  Biso   1.000  C
  C2       1.0000 0.30060  0.75130  0.16760  Biso   1.000  C
  C3       1.0000 0.30060  0.74870  0.66760  Biso   1.000  C
  C4       1.0000 0.69940  0.24870  0.83240  Biso   1.000  C
  O5       1.0000 0.79780  0.18780  0.36750  Biso   1.000  O
  O6       1.0000 0.20220  0.68780  0.13250  Biso   1.000  O
  O7       1.0000 0.20220  0.81220  0.63250  Biso   1.000  O
  O8       1.0000 0.79780  0.31220  0.86750  Biso   1.000  O
  C5       1.0000 0.55960  0.22000  0.26420  Biso   1.000  C
  C6       1.0000 0.44040  0.72000  0.23580  Biso   1.000  C
  C7       1.0000 0.44040  0.78000  0.73580  Biso   1.000  C
  C8       1.0000 0.55960  0.28000  0.76420  Biso   1.000  C
  C9       1.0000 0.45090  0.28800  0.22190  Biso   1.000  C
  C10      1.0000 0.54910  0.78800  0.27810  Biso   1.000  C
  C11      1.0000 0.54910  0.71200  0.77810  Biso   1.000  C
  C12      1.0000 0.45090  0.21200  0.72190  Biso   1.000  C
  C13      1.0000 0.32570  0.25660  0.15830  Biso   1.000  C
  C14      1.0000 0.67430  0.75660  0.34170  Biso   1.000  C
  C15      1.0000 0.67430  0.74340  0.84170  Biso   1.000  C
  C16      1.0000 0.32570  0.24340  0.65830  Biso   1.000  C
  C17      1.0000 0.30970  0.15570  0.13730  Biso   1.000  C
  C18      1.0000 0.69030  0.65570  0.36270  Biso   1.000  C
  C19      1.0000 0.69030  0.84430  0.86270  Biso   1.000  C
  C20      1.0000 0.30970  0.34430  0.63730  Biso   1.000  C
  C21      1.0000 0.41670  0.08580  0.18110  Biso   1.000  C
  C22      1.0000 0.58330  0.58580  0.31890  Biso   1.000  C
  C23      1.0000 0.58330  0.91420  0.81890  Biso   1.000  C
  C24      1.0000 0.41670  0.41420  0.68110  Biso   1.000  C
  C25      1.0000 0.54020  0.11930  0.24350  Biso   1.000  C
  C26      1.0000 0.45980  0.61930  0.25650  Biso   1.000  C
  C27      1.0000 0.45980  0.88070  0.75650  Biso   1.000  C
  C28      1.0000 0.54020  0.38070  0.74350  Biso   1.000  C
  C29      1.0000 0.17920  0.11880  0.06740  Biso   1.000  C
  C30      1.0000 0.82080  0.61880  0.43260  Biso   1.000  C
  C31      1.0000 0.82080  0.88120  0.93260  Biso   1.000  C
  C32      1.0000 0.17920  0.38120  0.56740  Biso   1.000  C
  O9       1.0000 0.17210  0.02890  0.05070  Biso   1.000  O
  O10      1.0000 0.82790  0.52890  0.44930  Biso   1.000  O
  O11      1.0000 0.82790  0.97110  0.94930  Biso   1.000  O
  O12      1.0000 0.17210  0.47110  0.55070  Biso   1.000  O
  O13      1.0000 0.08170  0.18530  0.02910  Biso   1.000  O
  O14      1.0000 0.91830  0.68530  0.47090  Biso   1.000  O
  O15      1.0000 0.91830  0.81470  0.97090  Biso   1.000  O
  O16      1.0000 0.08170  0.31470  0.52910  Biso   1.000  O
  N1       1.0000 0.01430  0.39020  0.38370  Biso   1.000  N
  N2       1.0000 0.98570  0.89020  0.11630  Biso   1.000  N
  N3       1.0000 0.98570  0.60980  0.61630  Biso   1.000  N
  N4       1.0000 0.01430  0.10980  0.88370  Biso   1.000  N
  C33      1.0000 0.97790  0.47150  0.33930  Biso   1.000  C
  C34      1.0000 0.02210  0.97150  0.16070  Biso   1.000  C
  C35      1.0000 0.02210  0.52850  0.66070  Biso   1.000  C
  C36      1.0000 0.97790  0.02850  0.83930  Biso   1.000  C
  C37      1.0000 0.05500  0.50450  0.29860  Biso   1.000  C
  C38      1.0000 0.94500  0.00450  0.20140  Biso   1.000  C
  C39      1.0000 0.94500  0.49550  0.70140  Biso   1.000  C
  C40      1.0000 0.05500  0.99550  0.79860  Biso   1.000  C
  C41      1.0000 0.17500  0.44500  0.30430  Biso   1.000  C
  C42      1.0000 0.82500  0.94500  0.19570  Biso   1.000  C
  C43      1.0000 0.82500  0.55500  0.69570  Biso   1.000  C
  C44      1.0000 0.17500  0.05500  0.80430  Biso   1.000  C
  C45      1.0000 0.21300  0.36300  0.34830  Biso   1.000  C
  C46      1.0000 0.78700  0.86300  0.15170  Biso   1.000  C
  C47      1.0000 0.78700  0.63700  0.65170  Biso   1.000  C
  C48      1.0000 0.21300  0.13700  0.84830  Biso   1.000  C
  C49      1.0000 0.13100  0.33550  0.38800  Biso   1.000  C
  C50      1.0000 0.86900  0.83550  0.11200  Biso   1.000  C
  C51      1.0000 0.86900  0.66450  0.61200  Biso   1.000  C
  C52      1.0000 0.13100  0.16450  0.88800  Biso   1.000  C
  C53      1.0000 0.00600  0.59470  0.24990  Biso   1.000  C
  C54      1.0000 0.99400  0.09470  0.25010  Biso   1.000  C
  C55      1.0000 0.99400  0.40530  0.75010  Biso   1.000  C
  C56      1.0000 0.00600  0.90530  0.74990  Biso   1.000  C
  N5       1.0000 0.77810  0.32540  0.50380  Biso   1.000  N
  N6       1.0000 0.22190  0.82540  0.99620  Biso   1.000  N
  N7       1.0000 0.22190  0.67460  0.49620  Biso   1.000  N
  N8       1.0000 0.77810  0.17460  0.00380  Biso   1.000  N
  C57      1.0000 0.82280  0.25560  0.55690  Biso   1.000  C
  C58      1.0000 0.17720  0.75560  0.94310  Biso   1.000  C
  C59      1.0000 0.17720  0.74440  0.44310  Biso   1.000  C
  C60      1.0000 0.82280  0.24440  0.05690  Biso   1.000  C
  C61      1.0000 0.74480  0.22950  0.59860  Biso   1.000  C
  C62      1.0000 0.25520  0.72950  0.90140  Biso   1.000  C
  C63      1.0000 0.25520  0.77050  0.40140  Biso   1.000  C
  C64      1.0000 0.74480  0.27050  0.09860  Biso   1.000  C
  C65      1.0000 0.61300  0.28270  0.58340  Biso   1.000  C
  C66      1.0000 0.38700  0.78270  0.91660  Biso   1.000  C
  C67      1.0000 0.38700  0.71730  0.41660  Biso   1.000  C
  C68      1.0000 0.61300  0.21730  0.08340  Biso   1.000  C
  C69      1.0000 0.56450  0.35380  0.52940  Biso   1.000  C
  C70      1.0000 0.43550  0.85380  0.97060  Biso   1.000  C
  C71      1.0000 0.43550  0.64620  0.47060  Biso   1.000  C
  C72      1.0000 0.56450  0.14620  0.02940  Biso   1.000  C
  C73      1.0000 0.64780  0.37390  0.49000  Biso   1.000  C
  C74      1.0000 0.35220  0.87390  0.01000  Biso   1.000  C
  C75      1.0000 0.35220  0.62610  0.51000  Biso   1.000  C
  C76      1.0000 0.64780  0.12610  0.99000  Biso   1.000  C
  C77      1.0000 0.80300  0.14870  0.65880  Biso   1.000  C
  C78      1.0000 0.19700  0.64870  0.84120  Biso   1.000  C
  C79      1.0000 0.19700  0.85130  0.34120  Biso   1.000  C
  C80      1.0000 0.80300  0.35130  0.15880  Biso   1.000  C
  O17      1.0000 0.89400  0.51300  0.89430  Biso   1.000  O
  O18      1.0000 0.10600  0.01300  0.60570  Biso   1.000  O
  O19      1.0000 0.10600  0.48700  0.10570  Biso   1.000  O
  O20      1.0000 0.89400  0.98700  0.39430  Biso   1.000  O
  C81      1.0000 0.99700  0.46800  0.96800  Biso   1.000  C
  C82      1.0000 0.00300  0.96800  0.53200  Biso   1.000  C
  C83      1.0000 0.00300  0.53200  0.03200  Biso   1.000  C
  C84      1.0000 0.99700  0.03200  0.46800  Biso   1.000  C
  C85      1.0000 0.58400  0.52500  0.98900  Biso   1.000  C
  C86      1.0000 0.41600  0.02500  0.51100  Biso   1.000  C
  C87      1.0000 0.41600  0.47500  0.01100  Biso   1.000  C
  C88      1.0000 0.58400  0.97500  0.48900  Biso   1.000  C
  C89      1.0000 0.57000  0.46700  0.92800  Biso   1.000  C
  C90      1.0000 0.43000  0.96700  0.57200  Biso   1.000  C
  C91      1.0000 0.43000  0.53300  0.07200  Biso   1.000  C
  C92      1.0000 0.57000  0.03300  0.42800  Biso   1.000  C
  C93      1.0000 0.44300  0.40200  0.90100  Biso   1.000  C
  C94      1.0000 0.55700  0.90200  0.59900  Biso   1.000  C
  C95      1.0000 0.55700  0.59800  0.09900  Biso   1.000  C
  C96      1.0000 0.44300  0.09800  0.40100  Biso   1.000  C
  C97      1.0000 0.35900  0.37900  0.94200  Biso   1.000  C
  C98      1.0000 0.64100  0.87900  0.55800  Biso   1.000  C
  C99      1.0000 0.64100  0.62100  0.05800  Biso   1.000  C
  C100     1.0000 0.35900  0.12100  0.44200  Biso   1.000  C
  C101     1.0000 0.36300  0.44600  0.99700  Biso   1.000  C
  C102     1.0000 0.63700  0.94600  0.50300  Biso   1.000  C
  C103     1.0000 0.63700  0.55400  0.00300  Biso   1.000  C
  C104     1.0000 0.36300  0.05400  0.49700  Biso   1.000  C
  C105     1.0000 0.48500  0.51500  0.02400  Biso   1.000  C
  C106     1.0000 0.51500  0.01500  0.47600  Biso   1.000  C
  C107     1.0000 0.51500  0.48500  0.97600  Biso   1.000  C
  C108     1.0000 0.48500  0.98500  0.52400  Biso   1.000  C
  C109     1.0000 0.50300  0.60000  0.07600  Biso   1.000  C
  C110     1.0000 0.49700  0.10000  0.42400  Biso   1.000  C
  C111     1.0000 0.49700  0.40000  0.92400  Biso   1.000  C
  C112     1.0000 0.50300  0.90000  0.57600  Biso   1.000  C
  H1       1.0000 0.46080  0.35060  0.23330  Biso   1.000  H
  H2       1.0000 0.53920  0.85060  0.26670  Biso   1.000  H
  H3       1.0000 0.53920  0.64940  0.76670  Biso   1.000  H
  H4       1.0000 0.46080  0.14940  0.73330  Biso   1.000  H
  H5       1.0000 0.25990  0.31340  0.12980  Biso   1.000  H
  H6       1.0000 0.74010  0.81340  0.37020  Biso   1.000  H
  H7       1.0000 0.74010  0.68660  0.87020  Biso   1.000  H
  H8       1.0000 0.25990  0.18660  0.62980  Biso   1.000  H
  H9       1.0000 0.40850  0.02910  0.17260  Biso   1.000  H
  H10      1.0000 0.59150  0.52910  0.32740  Biso   1.000  H
  H11      1.0000 0.59150  0.97090  0.82740  Biso   1.000  H
  H12      1.0000 0.40850  0.47090  0.67260  Biso   1.000  H
  H13      1.0000 0.60510  0.06890  0.27100  Biso   1.000  H
  H14      1.0000 0.39490  0.56890  0.22900  Biso   1.000  H
  H15      1.0000 0.39490  0.93110  0.72900  Biso   1.000  H
  H16      1.0000 0.60510  0.43110  0.77100  Biso   1.000  H
  H17      1.0000 0.87870  0.50000  0.33470  Biso   1.000  H
  H18      1.0000 0.12130  0.00000  0.16530  Biso   1.000  H
  H19      1.0000 0.12130  0.50000  0.66530  Biso   1.000  H
  H20      1.0000 0.87870  0.00000  0.83470  Biso   1.000  H
  H21      1.0000 0.14630  0.27750  0.41720  Biso   1.000  H
  H22      1.0000 0.85370  0.77750  0.08280  Biso   1.000  H
  H23      1.0000 0.85370  0.72250  0.58280  Biso   1.000  H
  H24      1.0000 0.14630  0.22250  0.91720  Biso   1.000  H
  H25      1.0000 0.25790  0.31700  0.35150  Biso   1.000  H
  H26      1.0000 0.74210  0.81700  0.14850  Biso   1.000  H
  H27      1.0000 0.74210  0.68300  0.64850  Biso   1.000  H
  H28      1.0000 0.25790  0.18300  0.85150  Biso   1.000  H
  H29      1.0000 0.22470  0.45890  0.27250  Biso   1.000  H
  H30      1.0000 0.77530  0.95890  0.22750  Biso   1.000  H
  H31      1.0000 0.77530  0.54110  0.72750  Biso   1.000  H
  H32      1.0000 0.22470  0.04110  0.77250  Biso   1.000  H
  H33      1.0000 0.96170  0.57090  0.19680  Biso   1.000  H
  H34      1.0000 0.03830  0.07090  0.30320  Biso   1.000  H
  H35      1.0000 0.03830  0.42910  0.80320  Biso   1.000  H
  H36      1.0000 0.96170  0.92910  0.69680  Biso   1.000  H
  H37      1.0000 0.10080  0.63590  0.25920  Biso   1.000  H
  H38      1.0000 0.89920  0.13590  0.24080  Biso   1.000  H
  H39      1.0000 0.89920  0.36410  0.74080  Biso   1.000  H
  H40      1.0000 0.10080  0.86410  0.75920  Biso   1.000  H
  H41      1.0000 0.93400  0.63420  0.26080  Biso   1.000  H
  H42      1.0000 0.06600  0.13420  0.23920  Biso   1.000  H
  H43      1.0000 0.06600  0.36580  0.73920  Biso   1.000  H
  H44      1.0000 0.93400  0.86580  0.76080  Biso   1.000  H
  H45      1.0000 0.91630  0.21860  0.56310  Biso   1.000  H
  H46      1.0000 0.08370  0.71860  0.93690  Biso   1.000  H
  H47      1.0000 0.08370  0.78140  0.43690  Biso   1.000  H
  H48      1.0000 0.91630  0.28140  0.06310  Biso   1.000  H
  H49      1.0000 0.55930  0.26980  0.60760  Biso   1.000  H
  H50      1.0000 0.44070  0.76980  0.89240  Biso   1.000  H
  H51      1.0000 0.44070  0.73020  0.39240  Biso   1.000  H
  H52      1.0000 0.55930  0.23020  0.10760  Biso   1.000  H
  H53      1.0000 0.47990  0.39150  0.52060  Biso   1.000  H
  H54      1.0000 0.52010  0.89150  0.97940  Biso   1.000  H
  H55      1.0000 0.52010  0.60850  0.47940  Biso   1.000  H
  H56      1.0000 0.47990  0.10850  0.02060  Biso   1.000  H
  H57      1.0000 0.61750  0.41980  0.44900  Biso   1.000  H
  H58      1.0000 0.38250  0.91980  0.05100  Biso   1.000  H
  H59      1.0000 0.38250  0.58020  0.55100  Biso   1.000  H
  H60      1.0000 0.61750  0.08020  0.94900  Biso   1.000  H
  H61      1.0000 0.83300  0.18110  0.70880  Biso   1.000  H
  H62      1.0000 0.16700  0.68110  0.79120  Biso   1.000  H
  H63      1.0000 0.16700  0.81890  0.29120  Biso   1.000  H
  H64      1.0000 0.83300  0.31890  0.20880  Biso   1.000  H
  H65      1.0000 0.89430  0.11450  0.65710  Biso   1.000  H
  H66      1.0000 0.10570  0.61450  0.84290  Biso   1.000  H
  H67      1.0000 0.10570  0.88550  0.34290  Biso   1.000  H
  H68      1.0000 0.89430  0.38550  0.15710  Biso   1.000  H
  H69      1.0000 0.72090  0.09730  0.64980  Biso   1.000  H
  H70      1.0000 0.27910  0.59730  0.85020  Biso   1.000  H
  H71      1.0000 0.27910  0.90270  0.35020  Biso   1.000  H
  H72      1.0000 0.72090  0.40270  0.14980  Biso   1.000  H
