data_image0
_cell_length_a       11.6652
_cell_length_b       11.1709
_cell_length_c       14.0532
_cell_angle_alpha    90
_cell_angle_beta     90
_cell_angle_gamma    90

_symmetry_space_group_name_H-M    "P 1"
_symmetry_int_tables_number       1

loop_
  _symmetry_equiv_pos_as_xyz
  'x, y, z'

loop_
  _atom_site_label
  _atom_site_occupancy
  _atom_site_fract_x
  _atom_site_fract_y
  _atom_site_fract_z
  _atom_site_thermal_displace_type
  _atom_site_B_iso_or_equiv
  _atom_site_type_symbol
  N1       1.0000 0.60594  0.09674  0.34380  Biso   1.000  N
  N2       1.0000 0.39406  0.90326  0.84380  Biso   1.000  N
  N3       1.0000 0.39406  0.59674  0.15620  Biso   1.000  N
  N4       1.0000 0.60594  0.40326  0.65620  Biso   1.000  N
  N5       1.0000 0.39406  0.90326  0.65620  Biso   1.000  N
  N6       1.0000 0.60594  0.09674  0.15620  Biso   1.000  N
  N7       1.0000 0.60594  0.40326  0.84380  Biso   1.000  N
  N8       1.0000 0.39406  0.59674  0.34380  Biso   1.000  N
  Cu1      1.0000 0.47667  0.11350  0.25000  Biso   1.000  Cu
  Cu2      1.0000 0.52333  0.88650  0.75000  Biso   1.000  Cu
  Cu3      1.0000 0.52333  0.61350  0.25000  Biso   1.000  Cu
  Cu4      1.0000 0.47667  0.38650  0.75000  Biso   1.000  Cu
  O1       1.0000 0.44770  0.90040  0.25000  Biso   1.000  O
  O2       1.0000 0.55230  0.09960  0.75000  Biso   1.000  O
  O3       1.0000 0.55230  0.40040  0.25000  Biso   1.000  O
  O4       1.0000 0.44770  0.59960  0.75000  Biso   1.000  O
  O5       1.0000 0.41750  0.31333  0.39842  Biso   1.000  O
  O6       1.0000 0.58250  0.68667  0.89842  Biso   1.000  O
  O7       1.0000 0.58250  0.81333  0.10158  Biso   1.000  O
  O8       1.0000 0.41750  0.18667  0.60158  Biso   1.000  O
  O9       1.0000 0.58250  0.68667  0.60158  Biso   1.000  O
  O10      1.0000 0.41750  0.31333  0.10158  Biso   1.000  O
  O11      1.0000 0.41750  0.18667  0.89842  Biso   1.000  O
  O12      1.0000 0.58250  0.81333  0.39842  Biso   1.000  O
  O13      1.0000 0.35778  0.13503  0.34426  Biso   1.000  O
  O14      1.0000 0.64222  0.86497  0.84426  Biso   1.000  O
  O15      1.0000 0.64222  0.63503  0.15574  Biso   1.000  O
  O16      1.0000 0.35778  0.36497  0.65574  Biso   1.000  O
  O17      1.0000 0.64222  0.86497  0.65574  Biso   1.000  O
  O18      1.0000 0.35778  0.13503  0.15574  Biso   1.000  O
  O19      1.0000 0.35778  0.36497  0.84426  Biso   1.000  O
  O20      1.0000 0.64222  0.63503  0.34426  Biso   1.000  O
  O21      1.0000 0.19490  0.93630  0.25000  Biso   1.000  O
  O22      1.0000 0.80510  0.06370  0.75000  Biso   1.000  O
  O23      1.0000 0.80510  0.43630  0.25000  Biso   1.000  O
  O24      1.0000 0.19490  0.56370  0.75000  Biso   1.000  O
  C1       1.0000 0.60360  0.09870  0.43855  Biso   1.000  C
  C2       1.0000 0.39640  0.90130  0.93855  Biso   1.000  C
  C3       1.0000 0.39640  0.59870  0.06145  Biso   1.000  C
  C4       1.0000 0.60360  0.40130  0.56145  Biso   1.000  C
  C5       1.0000 0.39640  0.90130  0.56145  Biso   1.000  C
  C6       1.0000 0.60360  0.09870  0.06145  Biso   1.000  C
  C7       1.0000 0.60360  0.40130  0.93855  Biso   1.000  C
  C8       1.0000 0.39640  0.59870  0.43855  Biso   1.000  C
  C9       1.0000 0.69910  0.07300  0.49400  Biso   1.000  C
  C10      1.0000 0.30090  0.92700  0.99400  Biso   1.000  C
  C11      1.0000 0.30090  0.57300  0.00600  Biso   1.000  C
  C12      1.0000 0.69910  0.42700  0.50600  Biso   1.000  C
  C13      1.0000 0.30090  0.92700  0.50600  Biso   1.000  C
  C14      1.0000 0.69910  0.07300  0.00600  Biso   1.000  C
  C15      1.0000 0.69910  0.42700  0.99400  Biso   1.000  C
  C16      1.0000 0.30090  0.57300  0.49400  Biso   1.000  C
  C17      1.0000 0.79920  0.04210  0.45090  Biso   1.000  C
  C18      1.0000 0.20080  0.95790  0.95090  Biso   1.000  C
  C19      1.0000 0.20080  0.54210  0.04910  Biso   1.000  C
  C20      1.0000 0.79920  0.45790  0.54910  Biso   1.000  C
  C21      1.0000 0.20080  0.95790  0.54910  Biso   1.000  C
  C22      1.0000 0.79920  0.04210  0.04910  Biso   1.000  C
  C23      1.0000 0.79920  0.45790  0.95090  Biso   1.000  C
  C24      1.0000 0.20080  0.54210  0.45090  Biso   1.000  C
  C25      1.0000 0.80620  0.03930  0.35100  Biso   1.000  C
  C26      1.0000 0.19380  0.96070  0.85100  Biso   1.000  C
  C27      1.0000 0.19380  0.53930  0.14900  Biso   1.000  C
  C28      1.0000 0.80620  0.46070  0.64900  Biso   1.000  C
  C29      1.0000 0.19380  0.96070  0.64900  Biso   1.000  C
  C30      1.0000 0.80620  0.03930  0.14900  Biso   1.000  C
  C31      1.0000 0.80620  0.46070  0.85100  Biso   1.000  C
  C32      1.0000 0.19380  0.53930  0.35100  Biso   1.000  C
  C33      1.0000 0.70690  0.06780  0.30105  Biso   1.000  C
  C34      1.0000 0.29310  0.93220  0.80105  Biso   1.000  C
  C35      1.0000 0.29310  0.56780  0.19895  Biso   1.000  C
  C36      1.0000 0.70690  0.43220  0.69895  Biso   1.000  C
  C37      1.0000 0.29310  0.93220  0.69895  Biso   1.000  C
  C38      1.0000 0.70690  0.06780  0.19895  Biso   1.000  C
  C39      1.0000 0.70690  0.43220  0.80105  Biso   1.000  C
  C40      1.0000 0.29310  0.56780  0.30105  Biso   1.000  C
  C41      1.0000 0.90720  0.00980  0.29720  Biso   1.000  C
  C42      1.0000 0.09280  0.99020  0.79720  Biso   1.000  C
  C43      1.0000 0.09280  0.50980  0.20280  Biso   1.000  C
  C44      1.0000 0.90720  0.49020  0.70280  Biso   1.000  C
  C45      1.0000 0.09280  0.99020  0.70280  Biso   1.000  C
  C46      1.0000 0.90720  0.00980  0.20280  Biso   1.000  C
  C47      1.0000 0.90720  0.49020  0.79720  Biso   1.000  C
  C48      1.0000 0.09280  0.50980  0.29720  Biso   1.000  C
  C49      1.0000 0.03170  0.23920  0.45160  Biso   1.000  C
  C50      1.0000 0.96830  0.76080  0.95160  Biso   1.000  C
  C51      1.0000 0.96830  0.73920  0.04840  Biso   1.000  C
  C52      1.0000 0.03170  0.26080  0.54840  Biso   1.000  C
  C53      1.0000 0.96830  0.76080  0.54840  Biso   1.000  C
  C54      1.0000 0.03170  0.23920  0.04840  Biso   1.000  C
  C55      1.0000 0.03170  0.26080  0.95160  Biso   1.000  C
  C56      1.0000 0.96830  0.73920  0.45160  Biso   1.000  C
  C57      1.0000 0.13410  0.22690  0.40400  Biso   1.000  C
  C58      1.0000 0.86590  0.77310  0.90400  Biso   1.000  C
  C59      1.0000 0.86590  0.72690  0.09600  Biso   1.000  C
  C60      1.0000 0.13410  0.27310  0.59600  Biso   1.000  C
  C61      1.0000 0.86590  0.77310  0.59600  Biso   1.000  C
  C62      1.0000 0.13410  0.22690  0.09600  Biso   1.000  C
  C63      1.0000 0.13410  0.27310  0.90400  Biso   1.000  C
  C64      1.0000 0.86590  0.72690  0.40400  Biso   1.000  C
  C65      1.0000 0.23810  0.23770  0.45141  Biso   1.000  C
  C66      1.0000 0.76190  0.76230  0.95141  Biso   1.000  C
  C67      1.0000 0.76190  0.73770  0.04859  Biso   1.000  C
  C68      1.0000 0.23810  0.26230  0.54859  Biso   1.000  C
  C69      1.0000 0.76190  0.76230  0.54859  Biso   1.000  C
  C70      1.0000 0.23810  0.23770  0.04859  Biso   1.000  C
  C71      1.0000 0.23810  0.26230  0.95141  Biso   1.000  C
  C72      1.0000 0.76190  0.73770  0.45141  Biso   1.000  C
  C73      1.0000 0.34720  0.22980  0.39486  Biso   1.000  C
  C74      1.0000 0.65280  0.77020  0.89486  Biso   1.000  C
  C75      1.0000 0.65280  0.72980  0.10514  Biso   1.000  C
  C76      1.0000 0.34720  0.27020  0.60514  Biso   1.000  C
  C77      1.0000 0.65280  0.77020  0.60514  Biso   1.000  C
  C78      1.0000 0.34720  0.22980  0.10514  Biso   1.000  C
  C79      1.0000 0.34720  0.27020  0.89486  Biso   1.000  C
  C80      1.0000 0.65280  0.72980  0.39486  Biso   1.000  C
  H1       1.0000 0.53800  0.11600  0.46600  Biso   1.000  H
  H2       1.0000 0.46200  0.88400  0.96600  Biso   1.000  H
  H3       1.0000 0.46200  0.61600  0.03400  Biso   1.000  H
  H4       1.0000 0.53800  0.38400  0.53400  Biso   1.000  H
  H5       1.0000 0.46200  0.88400  0.53400  Biso   1.000  H
  H6       1.0000 0.53800  0.11600  0.03400  Biso   1.000  H
  H7       1.0000 0.53800  0.38400  0.96600  Biso   1.000  H
  H8       1.0000 0.46200  0.61600  0.46600  Biso   1.000  H
  H9       1.0000 0.47300  0.87800  0.28900  Biso   1.000  H
  H10      1.0000 0.52700  0.12200  0.78900  Biso   1.000  H
  H11      1.0000 0.52700  0.37800  0.21100  Biso   1.000  H
  H12      1.0000 0.47300  0.62200  0.71100  Biso   1.000  H
  H13      1.0000 0.52700  0.12200  0.71100  Biso   1.000  H
  H14      1.0000 0.47300  0.87800  0.21100  Biso   1.000  H
  H15      1.0000 0.47300  0.62200  0.78900  Biso   1.000  H
  H16      1.0000 0.52700  0.37800  0.28900  Biso   1.000  H
  H17      1.0000 0.96300  0.23200  0.42000  Biso   1.000  H
  H18      1.0000 0.03700  0.76800  0.92000  Biso   1.000  H
  H19      1.0000 0.03700  0.73200  0.08000  Biso   1.000  H
  H20      1.0000 0.96300  0.26800  0.58000  Biso   1.000  H
  H21      1.0000 0.03700  0.76800  0.58000  Biso   1.000  H
  H22      1.0000 0.96300  0.23200  0.08000  Biso   1.000  H
  H23      1.0000 0.96300  0.26800  0.92000  Biso   1.000  H
  H24      1.0000 0.03700  0.73200  0.42000  Biso   1.000  H
  H25      1.0000 0.69600  0.07700  0.55800  Biso   1.000  H
  H26      1.0000 0.30400  0.92300  0.05800  Biso   1.000  H
  H27      1.0000 0.30400  0.57700  0.94200  Biso   1.000  H
  H28      1.0000 0.69600  0.42300  0.44200  Biso   1.000  H
  H29      1.0000 0.30400  0.92300  0.44200  Biso   1.000  H
  H30      1.0000 0.69600  0.07700  0.94200  Biso   1.000  H
  H31      1.0000 0.69600  0.42300  0.05800  Biso   1.000  H
  H32      1.0000 0.30400  0.57700  0.55800  Biso   1.000  H
  H33      1.0000 0.13300  0.20900  0.33600  Biso   1.000  H
  H34      1.0000 0.86700  0.79100  0.83600  Biso   1.000  H
  H35      1.0000 0.86700  0.70900  0.16400  Biso   1.000  H
  H36      1.0000 0.13300  0.29100  0.66400  Biso   1.000  H
  H37      1.0000 0.86700  0.79100  0.66400  Biso   1.000  H
  H38      1.0000 0.13300  0.20900  0.16400  Biso   1.000  H
  H39      1.0000 0.13300  0.29100  0.83600  Biso   1.000  H
  H40      1.0000 0.86700  0.70900  0.33600  Biso   1.000  H
  H41      1.0000 0.96900  0.99200  0.32800  Biso   1.000  H
  H42      1.0000 0.03100  0.00800  0.82800  Biso   1.000  H
  H43      1.0000 0.03100  0.49200  0.17200  Biso   1.000  H
  H44      1.0000 0.96900  0.50800  0.67200  Biso   1.000  H
  H45      1.0000 0.03100  0.00800  0.67200  Biso   1.000  H
  H46      1.0000 0.96900  0.99200  0.17200  Biso   1.000  H
  H47      1.0000 0.96900  0.50800  0.82800  Biso   1.000  H
  H48      1.0000 0.03100  0.49200  0.32800  Biso   1.000  H
  H49      1.0000 0.86000  0.02400  0.48800  Biso   1.000  H
  H50      1.0000 0.14000  0.97600  0.98800  Biso   1.000  H
  H51      1.0000 0.14000  0.52400  0.01200  Biso   1.000  H
  H52      1.0000 0.86000  0.47600  0.51200  Biso   1.000  H
  H53      1.0000 0.14000  0.97600  0.51200  Biso   1.000  H
  H54      1.0000 0.86000  0.02400  0.01200  Biso   1.000  H
  H55      1.0000 0.86000  0.47600  0.98800  Biso   1.000  H
  H56      1.0000 0.14000  0.52400  0.48800  Biso   1.000  H
  H57      1.0000 0.21300  0.85500  0.25000  Biso   1.000  H
  H58      1.0000 0.78700  0.14500  0.75000  Biso   1.000  H
  H59      1.0000 0.78700  0.35500  0.25000  Biso   1.000  H
  H60      1.0000 0.21300  0.64500  0.75000  Biso   1.000  H
  H61      1.0000 0.26500  0.98000  0.25000  Biso   1.000  H
  H62      1.0000 0.73500  0.02000  0.75000  Biso   1.000  H
  H63      1.0000 0.73500  0.48000  0.25000  Biso   1.000  H
  H64      1.0000 0.26500  0.52000  0.75000  Biso   1.000  H
