data_image0
_cell_length_a       11.159
_cell_length_b       11.64
_cell_length_c       14.066
_cell_angle_alpha    90
_cell_angle_beta     90
_cell_angle_gamma    90

_symmetry_space_group_name_H-M    "P 1"
_symmetry_int_tables_number       1

loop_
  _symmetry_equiv_pos_as_xyz
  'x, y, z'

loop_
  _atom_site_label
  _atom_site_occupancy
  _atom_site_fract_x
  _atom_site_fract_y
  _atom_site_fract_z
  _atom_site_thermal_displace_type
  _atom_site_B_iso_or_equiv
  _atom_site_type_symbol
  Cu1      1.0000 0.11350  0.52330  0.59730  Biso   1.000  Cu
  Cu2      1.0000 0.88650  0.47670  0.09730  Biso   1.000  Cu
  Cu3      1.0000 0.38650  0.52330  0.09730  Biso   1.000  Cu
  Cu4      1.0000 0.61350  0.47670  0.59730  Biso   1.000  Cu
  N1       1.0000 0.09950  0.39250  0.50420  Biso   1.000  N
  N2       1.0000 0.90050  0.60750  0.00420  Biso   1.000  N
  N3       1.0000 0.40050  0.39250  0.00420  Biso   1.000  N
  N4       1.0000 0.59950  0.60750  0.50420  Biso   1.000  N
  N5       1.0000 0.09420  0.39630  0.69230  Biso   1.000  N
  N6       1.0000 0.90580  0.60370  0.19230  Biso   1.000  N
  N7       1.0000 0.40580  0.39630  0.19230  Biso   1.000  N
  N8       1.0000 0.59420  0.60370  0.69230  Biso   1.000  N
  O1       1.0000 0.13970  0.64110  0.69100  Biso   1.000  O
  O2       1.0000 0.86030  0.35890  0.19100  Biso   1.000  O
  O3       1.0000 0.36030  0.64110  0.19100  Biso   1.000  O
  O4       1.0000 0.63970  0.35890  0.69100  Biso   1.000  O
  O5       1.0000 0.31380  0.58470  0.74620  Biso   1.000  O
  O6       1.0000 0.68620  0.41530  0.24620  Biso   1.000  O
  O7       1.0000 0.18620  0.58470  0.24620  Biso   1.000  O
  O8       1.0000 0.81380  0.41530  0.74620  Biso   1.000  O
  O9       1.0000 0.36970  0.64340  0.00320  Biso   1.000  O
  O10      1.0000 0.63030  0.35660  0.50320  Biso   1.000  O
  O11      1.0000 0.13030  0.64340  0.50320  Biso   1.000  O
  O12      1.0000 0.86970  0.35660  0.00320  Biso   1.000  O
  O13      1.0000 0.18630  0.58070  0.94890  Biso   1.000  O
  O14      1.0000 0.81370  0.41930  0.44890  Biso   1.000  O
  O15      1.0000 0.31370  0.58070  0.44890  Biso   1.000  O
  O16      1.0000 0.68630  0.41930  0.94890  Biso   1.000  O
  O17      1.0000 0.90010  0.55160  0.59880  Biso   1.000  O
  O18      1.0000 0.09990  0.44840  0.09880  Biso   1.000  O
  O19      1.0000 0.59990  0.55160  0.09880  Biso   1.000  O
  O20      1.0000 0.40010  0.44840  0.59880  Biso   1.000  O
  C1       1.0000 0.26420  0.65080  0.95400  Biso   1.000  C
  C2       1.0000 0.73580  0.34920  0.45400  Biso   1.000  C
  C3       1.0000 0.23580  0.65080  0.45400  Biso   1.000  C
  C4       1.0000 0.76420  0.34920  0.95400  Biso   1.000  C
  C5       1.0000 0.26300  0.75750  0.90050  Biso   1.000  C
  C6       1.0000 0.73700  0.24250  0.40050  Biso   1.000  C
  C7       1.0000 0.23700  0.75750  0.40050  Biso   1.000  C
  C8       1.0000 0.76300  0.24250  0.90050  Biso   1.000  C
  C9       1.0000 0.27460  0.87010  0.94270  Biso   1.000  C
  C10      1.0000 0.72540  0.12990  0.44270  Biso   1.000  C
  C11      1.0000 0.22540  0.87010  0.44270  Biso   1.000  C
  C12      1.0000 0.77460  0.12990  0.94270  Biso   1.000  C
  C13      1.0000 0.26110  0.96740  0.89600  Biso   1.000  C
  C14      1.0000 0.73890  0.03260  0.39600  Biso   1.000  C
  C15      1.0000 0.23890  0.96740  0.39600  Biso   1.000  C
  C16      1.0000 0.76110  0.03260  0.89600  Biso   1.000  C
  C17      1.0000 0.23890  0.97010  0.79910  Biso   1.000  C
  C18      1.0000 0.76110  0.02990  0.29910  Biso   1.000  C
  C19      1.0000 0.26110  0.97010  0.29910  Biso   1.000  C
  C20      1.0000 0.73890  0.02990  0.79910  Biso   1.000  C
  C21      1.0000 0.22710  0.86060  0.75080  Biso   1.000  C
  C22      1.0000 0.77290  0.13940  0.25080  Biso   1.000  C
  C23      1.0000 0.27290  0.86060  0.25080  Biso   1.000  C
  C24      1.0000 0.72710  0.13940  0.75080  Biso   1.000  C
  C25      1.0000 0.23860  0.76490  0.80270  Biso   1.000  C
  C26      1.0000 0.76140  0.23510  0.30270  Biso   1.000  C
  C27      1.0000 0.26140  0.76490  0.30270  Biso   1.000  C
  C28      1.0000 0.73860  0.23510  0.80270  Biso   1.000  C
  C29      1.0000 0.22280  0.65160  0.74210  Biso   1.000  C
  C30      1.0000 0.77720  0.34840  0.24210  Biso   1.000  C
  C31      1.0000 0.27720  0.65160  0.24210  Biso   1.000  C
  C32      1.0000 0.72280  0.34840  0.74210  Biso   1.000  C
  C33      1.0000 0.09790  0.39720  0.41170  Biso   1.000  C
  C34      1.0000 0.90210  0.60280  0.91170  Biso   1.000  C
  C35      1.0000 0.40210  0.39720  0.91170  Biso   1.000  C
  C36      1.0000 0.59790  0.60280  0.41170  Biso   1.000  C
  C37      1.0000 0.07480  0.29960  0.35680  Biso   1.000  C
  C38      1.0000 0.92520  0.70040  0.85680  Biso   1.000  C
  C39      1.0000 0.42520  0.29960  0.85680  Biso   1.000  C
  C40      1.0000 0.57480  0.70040  0.35680  Biso   1.000  C
  C41      1.0000 0.04090  0.19840  0.39970  Biso   1.000  C
  C42      1.0000 0.95910  0.80160  0.89970  Biso   1.000  C
  C43      1.0000 0.45910  0.19840  0.89970  Biso   1.000  C
  C44      1.0000 0.54090  0.80160  0.39970  Biso   1.000  C
  C45      1.0000 0.04060  0.19140  0.49700  Biso   1.000  C
  C46      1.0000 0.95940  0.80860  0.99700  Biso   1.000  C
  C47      1.0000 0.45940  0.19140  0.99700  Biso   1.000  C
  C48      1.0000 0.54060  0.80860  0.49700  Biso   1.000  C
  C49      1.0000 0.00960  0.09420  0.54980  Biso   1.000  C
  C50      1.0000 0.99040  0.90580  0.04980  Biso   1.000  C
  C51      1.0000 0.49040  0.09420  0.04980  Biso   1.000  C
  C52      1.0000 0.50960  0.90580  0.54980  Biso   1.000  C
  C53      1.0000 0.00880  0.09070  0.64510  Biso   1.000  C
  C54      1.0000 0.99120  0.90930  0.14510  Biso   1.000  C
  C55      1.0000 0.49120  0.09070  0.14510  Biso   1.000  C
  C56      1.0000 0.50880  0.90930  0.64510  Biso   1.000  C
  C57      1.0000 0.03810  0.19580  0.69950  Biso   1.000  C
  C58      1.0000 0.96190  0.80420  0.19950  Biso   1.000  C
  C59      1.0000 0.46190  0.19580  0.19950  Biso   1.000  C
  C60      1.0000 0.53810  0.80420  0.69950  Biso   1.000  C
  C61      1.0000 0.04290  0.20300  0.80070  Biso   1.000  C
  C62      1.0000 0.95710  0.79700  0.30070  Biso   1.000  C
  C63      1.0000 0.45710  0.20300  0.30070  Biso   1.000  C
  C64      1.0000 0.54290  0.79700  0.80070  Biso   1.000  C
  C65      1.0000 0.07050  0.30300  0.84460  Biso   1.000  C
  C66      1.0000 0.92950  0.69700  0.34460  Biso   1.000  C
  C67      1.0000 0.42950  0.30300  0.34460  Biso   1.000  C
  C68      1.0000 0.57050  0.69700  0.84460  Biso   1.000  C
  C69      1.0000 0.09910  0.39630  0.78820  Biso   1.000  C
  C70      1.0000 0.90090  0.60370  0.28820  Biso   1.000  C
  C71      1.0000 0.40090  0.39630  0.28820  Biso   1.000  C
  C72      1.0000 0.59910  0.60370  0.78820  Biso   1.000  C
  C73      1.0000 0.06670  0.28970  0.64840  Biso   1.000  C
  C74      1.0000 0.93330  0.71030  0.14840  Biso   1.000  C
  C75      1.0000 0.43330  0.28970  0.14840  Biso   1.000  C
  C76      1.0000 0.56670  0.71030  0.64840  Biso   1.000  C
  C77      1.0000 0.06890  0.29820  0.54500  Biso   1.000  C
  C78      1.0000 0.93110  0.70180  0.04500  Biso   1.000  C
  C79      1.0000 0.43110  0.29820  0.04500  Biso   1.000  C
  C80      1.0000 0.56890  0.70180  0.54500  Biso   1.000  C
  O21      1.0000 0.93510  0.80560  0.60210  Biso   1.000  O
  O22      1.0000 0.06490  0.19440  0.10210  Biso   1.000  O
  O23      1.0000 0.56490  0.80560  0.10210  Biso   1.000  O
  O24      1.0000 0.43510  0.19440  0.60210  Biso   1.000  O
