data_image0
_cell_length_a       7.217
_cell_length_b       10.605
_cell_length_c       17.705
_cell_angle_alpha    79.609
_cell_angle_beta     83.571
_cell_angle_gamma    71.787

_symmetry_space_group_name_H-M    "P 1"
_symmetry_int_tables_number       1

loop_
  _symmetry_equiv_pos_as_xyz
  'x, y, z'

loop_
  _atom_site_label
  _atom_site_occupancy
  _atom_site_fract_x
  _atom_site_fract_y
  _atom_site_fract_z
  _atom_site_thermal_displace_type
  _atom_site_B_iso_or_equiv
  _atom_site_type_symbol
  Cu1      1.0000 0.59123  0.51544  0.12543  Biso   1.000  Cu
  Cu2      1.0000 0.40877  0.48456  0.87457  Biso   1.000  Cu
  Cu3      1.0000 0.88914  0.74675  0.28731  Biso   1.000  Cu
  Cu4      1.0000 0.11086  0.25325  0.71269  Biso   1.000  Cu
  O1       1.0000 0.27440  0.61510  0.32020  Biso   1.000  O
  O2       1.0000 0.72560  0.38490  0.67980  Biso   1.000  O
  O3       1.0000 0.45120  0.62860  0.20850  Biso   1.000  O
  O4       1.0000 0.54880  0.37140  0.79150  Biso   1.000  O
  O5       1.0000 0.67070  0.36950  0.06190  Biso   1.000  O
  O6       1.0000 0.32930  0.63050  0.93810  Biso   1.000  O
  O7       1.0000 0.66780  0.15770  0.06590  Biso   1.000  O
  O8       1.0000 0.33220  0.84230  0.93410  Biso   1.000  O
  O9       1.0000 0.86550  0.42340  0.20640  Biso   1.000  O
  O10      1.0000 0.13450  0.57660  0.79360  Biso   1.000  O
  O11      1.0000 0.92660  0.61460  0.21350  Biso   1.000  O
  O12      1.0000 0.07340  0.38540  0.78650  Biso   1.000  O
  O13      1.0000 0.84840  0.82210  0.38770  Biso   1.000  O
  O14      1.0000 0.15160  0.17790  0.61230  Biso   1.000  O
  O15      1.0000 0.75670  0.77580  0.51060  Biso   1.000  O
  O16      1.0000 0.24330  0.22420  0.48940  Biso   1.000  O
  N1       1.0000 0.47810  0.39230  0.19020  Biso   1.000  N
  N2       1.0000 0.52190  0.60770  0.80980  Biso   1.000  N
  N3       1.0000 0.68060  0.64690  0.05310  Biso   1.000  N
  N4       1.0000 0.31940  0.35310  0.94690  Biso   1.000  N
  N5       1.0000 0.01630  0.11950  0.78320  Biso   1.000  N
  N6       1.0000 0.98370  0.88050  0.21680  Biso   1.000  N
  N7       1.0000 0.83130  0.60270  0.35620  Biso   1.000  N
  N8       1.0000 0.16870  0.39730  0.64380  Biso   1.000  N
  C1       1.0000 0.63140  0.26140  0.09210  Biso   1.000  C
  C2       1.0000 0.36860  0.73860  0.90790  Biso   1.000  C
  C3       1.0000 0.51790  0.27070  0.17090  Biso   1.000  C
  C4       1.0000 0.48210  0.72930  0.82910  Biso   1.000  C
  C5       1.0000 0.46050  0.17270  0.21950  Biso   1.000  C
  C6       1.0000 0.53950  0.82730  0.78050  Biso   1.000  C
  H1       1.0000 0.48660  0.08760  0.20630  Biso   1.000  H
  H2       1.0000 0.51340  0.91240  0.79370  Biso   1.000  H
  C7       1.0000 0.36270  0.20230  0.28880  Biso   1.000  C
  C8       1.0000 0.63730  0.79770  0.71120  Biso   1.000  C
  H3       1.0000 0.32260  0.13670  0.32280  Biso   1.000  H
  H4       1.0000 0.67740  0.86330  0.67720  Biso   1.000  H
  C9       1.0000 0.32400  0.33060  0.30800  Biso   1.000  C
  C10      1.0000 0.67600  0.66940  0.69200  Biso   1.000  C
  H5       1.0000 0.25960  0.35170  0.35460  Biso   1.000  H
  H6       1.0000 0.74040  0.64830  0.64540  Biso   1.000  H
  C11      1.0000 0.38410  0.42430  0.25580  Biso   1.000  C
  C12      1.0000 0.61590  0.57570  0.74420  Biso   1.000  C
  C13      1.0000 0.36420  0.56810  0.26490  Biso   1.000  C
  C14      1.0000 0.63580  0.43190  0.73510  Biso   1.000  C
  C15      1.0000 0.78010  0.61380  0.98800  Biso   1.000  C
  C16      1.0000 0.21990  0.38620  0.01200  Biso   1.000  C
  H7       1.0000 0.80290  0.52670  0.97840  Biso   1.000  H
  H8       1.0000 0.19710  0.47330  0.02160  Biso   1.000  H
  C17      1.0000 0.85110  0.70050  0.93430  Biso   1.000  C
  C18      1.0000 0.14890  0.29950  0.06570  Biso   1.000  C
  H9       1.0000 0.92130  0.67170  0.89000  Biso   1.000  H
  H10      1.0000 0.07870  0.32830  0.11000  Biso   1.000  H
  C19      1.0000 0.81660  0.83320  0.94680  Biso   1.000  C
  C20      1.0000 0.18340  0.16680  0.05320  Biso   1.000  C
  C21      1.0000 0.71650  0.86630  0.01620  Biso   1.000  C
  C22      1.0000 0.28350  0.13370  0.98380  Biso   1.000  C
  H11      1.0000 0.69370  0.95190  0.02830  Biso   1.000  H
  H12      1.0000 0.30630  0.04810  0.97170  Biso   1.000  H
  C23      1.0000 0.65220  0.77210  0.06630  Biso   1.000  C
  C24      1.0000 0.34780  0.22790  0.93370  Biso   1.000  C
  H13      1.0000 0.58510  0.79660  0.11200  Biso   1.000  H
  H14      1.0000 0.41490  0.20340  0.88800  Biso   1.000  H
  C25      1.0000 0.88490  0.93180  0.88970  Biso   1.000  C
  C26      1.0000 0.11510  0.06820  0.11030  Biso   1.000  C
  C27      1.0000 0.96300  0.90490  0.81700  Biso   1.000  C
  C28      1.0000 0.03700  0.09510  0.18300  Biso   1.000  C
  H15      1.0000 0.97300  0.82260  0.80290  Biso   1.000  H
  H16      1.0000 0.02700  0.17740  0.19710  Biso   1.000  H
  C29      1.0000 0.02540  0.99860  0.76610  Biso   1.000  C
  C30      1.0000 0.97460  0.00140  0.23390  Biso   1.000  C
  H17      1.0000 0.07630  0.97820  0.71760  Biso   1.000  H
  H18      1.0000 0.92370  0.02180  0.28240  Biso   1.000  H
  C31      1.0000 0.87530  0.05680  0.90720  Biso   1.000  C
  C32      1.0000 0.12470  0.94320  0.09280  Biso   1.000  C
  H19      1.0000 0.82210  0.08030  0.95480  Biso   1.000  H
  H20      1.0000 0.17790  0.91970  0.04520  Biso   1.000  H
  C33      1.0000 0.94460  0.14510  0.85380  Biso   1.000  C
  C34      1.0000 0.05540  0.85490  0.14620  Biso   1.000  C
  H21      1.0000 0.94160  0.22650  0.86730  Biso   1.000  H
  H22      1.0000 0.05840  0.77350  0.13270  Biso   1.000  H
  C35      1.0000 0.79690  0.74730  0.44660  Biso   1.000  C
  C36      1.0000 0.20310  0.25270  0.55340  Biso   1.000  C
  C37      1.0000 0.78990  0.61190  0.43000  Biso   1.000  C
  C38      1.0000 0.21010  0.38810  0.57000  Biso   1.000  C
  C39      1.0000 0.74650  0.51130  0.48170  Biso   1.000  C
  C40      1.0000 0.25350  0.48870  0.51830  Biso   1.000  C
  H23      1.0000 0.71910  0.51830  0.53360  Biso   1.000  H
  H24      1.0000 0.28090  0.48170  0.46640  Biso   1.000  H
  C41      1.0000 0.74530  0.39910  0.45330  Biso   1.000  C
  C42      1.0000 0.25470  0.60090  0.54670  Biso   1.000  C
  H25      1.0000 0.71570  0.32890  0.48690  Biso   1.000  H
  H26      1.0000 0.28430  0.67110  0.51310  Biso   1.000  H
  C43      1.0000 0.78760  0.38790  0.37530  Biso   1.000  C
  C44      1.0000 0.21240  0.61210  0.62470  Biso   1.000  C
  H27      1.0000 0.78700  0.31190  0.35610  Biso   1.000  H
  H28      1.0000 0.21300  0.68810  0.64390  Biso   1.000  H
  C45      1.0000 0.82970  0.49420  0.32860  Biso   1.000  C
  C46      1.0000 0.17030  0.50580  0.67140  Biso   1.000  C
  C47      1.0000 0.87910  0.51000  0.24210  Biso   1.000  C
  C48      1.0000 0.12090  0.49000  0.75790  Biso   1.000  C
  O17      1.0000 0.32380  0.90530  0.57400  Biso   1.000  O
  O18      1.0000 0.67620  0.09470  0.42600  Biso   1.000  O
  H29      1.0000 0.34850  0.97790  0.59170  Biso   1.000  H
  H30      1.0000 0.65150  0.02210  0.40830  Biso   1.000  H
  H31      1.0000 0.35640  0.91940  0.52810  Biso   1.000  H
  H32      1.0000 0.64360  0.08060  0.47190  Biso   1.000  H
  O19      1.0000 0.92760  0.93140  0.57950  Biso   1.000  O
  O20      1.0000 0.07240  0.06860  0.42050  Biso   1.000  O
  H33      1.0000 0.02030  0.95610  0.54800  Biso   1.000  H
  H34      1.0000 0.97970  0.04390  0.45200  Biso   1.000  H
  H35      1.0000 0.89960  0.87580  0.55390  Biso   1.000  H
  H36      1.0000 0.10040  0.12420  0.44610  Biso   1.000  H
  O21      1.0000 0.67180  0.17320  0.61030  Biso   1.000  O
  O22      1.0000 0.32820  0.82680  0.38970  Biso   1.000  O
  H37      1.0000 0.74720  0.08940  0.60120  Biso   1.000  H
  H38      1.0000 0.25280  0.91060  0.39880  Biso   1.000  H
  H39      1.0000 0.75160  0.21500  0.58200  Biso   1.000  H
  H40      1.0000 0.24840  0.78500  0.41800  Biso   1.000  H
  O23      1.0000 0.56000  0.84010  0.25700  Biso   1.000  O
  O24      1.0000 0.44000  0.15990  0.74300  Biso   1.000  O
  H41      1.0000 0.48790  0.85670  0.30320  Biso   1.000  H
  H42      1.0000 0.51210  0.14330  0.69680  Biso   1.000  H
  H43      1.0000 0.55400  0.76680  0.25310  Biso   1.000  H
  H44      1.0000 0.44600  0.23320  0.74690  Biso   1.000  H
