data_image0
_cell_length_a       7.8042
_cell_length_b       13.6152
_cell_length_c       10.0667
_cell_angle_alpha    90
_cell_angle_beta     91.687
_cell_angle_gamma    90

_symmetry_space_group_name_H-M    "P 1"
_symmetry_int_tables_number       1

loop_
  _symmetry_equiv_pos_as_xyz
  'x, y, z'

loop_
  _atom_site_label
  _atom_site_occupancy
  _atom_site_fract_x
  _atom_site_fract_y
  _atom_site_fract_z
  _atom_site_thermal_displace_type
  _atom_site_B_iso_or_equiv
  _atom_site_type_symbol
  Cu1      1.0000 0.50000  0.06463  0.25000  Biso   1.000  Cu
  Cu2      1.0000 0.00000  0.56463  0.25000  Biso   1.000  Cu
  Cu3      1.0000 0.50000  0.93537  0.75000  Biso   1.000  Cu
  Cu4      1.0000 0.00000  0.43537  0.75000  Biso   1.000  Cu
  O1       1.0000 0.34610  0.04164  0.08928  Biso   1.000  O
  O2       1.0000 0.84610  0.54164  0.08928  Biso   1.000  O
  O3       1.0000 0.65390  0.04164  0.41072  Biso   1.000  O
  O4       1.0000 0.15390  0.54164  0.41072  Biso   1.000  O
  O5       1.0000 0.65390  0.95836  0.91072  Biso   1.000  O
  O6       1.0000 0.15390  0.45836  0.91072  Biso   1.000  O
  O7       1.0000 0.34610  0.95836  0.58928  Biso   1.000  O
  O8       1.0000 0.84610  0.45836  0.58928  Biso   1.000  O
  O9       1.0000 0.26520  0.92094  0.94900  Biso   1.000  O
  O10      1.0000 0.76520  0.42094  0.94900  Biso   1.000  O
  O11      1.0000 0.73480  0.92094  0.55100  Biso   1.000  O
  O12      1.0000 0.23480  0.42094  0.55100  Biso   1.000  O
  O13      1.0000 0.73480  0.07906  0.05100  Biso   1.000  O
  O14      1.0000 0.23480  0.57906  0.05100  Biso   1.000  O
  O15      1.0000 0.26520  0.07906  0.44900  Biso   1.000  O
  O16      1.0000 0.76520  0.57906  0.44900  Biso   1.000  O
  N1       1.0000 0.50000  0.20740  0.25000  Biso   1.000  N
  N2       1.0000 0.00000  0.70740  0.25000  Biso   1.000  N
  N3       1.0000 0.50000  0.79260  0.75000  Biso   1.000  N
  N4       1.0000 0.00000  0.29260  0.75000  Biso   1.000  N
  N5       1.0000 0.50000  0.92540  0.25000  Biso   1.000  N
  N6       1.0000 0.00000  0.42540  0.25000  Biso   1.000  N
  N7       1.0000 0.50000  0.07460  0.75000  Biso   1.000  N
  N8       1.0000 0.00000  0.57460  0.75000  Biso   1.000  N
  C1       1.0000 0.33340  0.95112  0.05260  Biso   1.000  C
  C2       1.0000 0.83340  0.45112  0.05260  Biso   1.000  C
  C3       1.0000 0.66660  0.95112  0.44740  Biso   1.000  C
  C4       1.0000 0.16660  0.45112  0.44740  Biso   1.000  C
  C5       1.0000 0.66660  0.04888  0.94740  Biso   1.000  C
  C6       1.0000 0.16660  0.54888  0.94740  Biso   1.000  C
  C7       1.0000 0.33340  0.04888  0.55260  Biso   1.000  C
  C8       1.0000 0.83340  0.54888  0.55260  Biso   1.000  C
  C9       1.0000 0.41610  0.87900  0.15140  Biso   1.000  C
  C10      1.0000 0.91610  0.37900  0.15140  Biso   1.000  C
  C11      1.0000 0.58390  0.87900  0.34860  Biso   1.000  C
  C12      1.0000 0.08390  0.37900  0.34860  Biso   1.000  C
  C13      1.0000 0.58390  0.12100  0.84860  Biso   1.000  C
  C14      1.0000 0.08390  0.62100  0.84860  Biso   1.000  C
  C15      1.0000 0.41610  0.12100  0.65140  Biso   1.000  C
  C16      1.0000 0.91610  0.62100  0.65140  Biso   1.000  C
  C17      1.0000 0.41350  0.77790  0.14840  Biso   1.000  C
  C18      1.0000 0.91350  0.27790  0.14840  Biso   1.000  C
  C19      1.0000 0.58650  0.77790  0.35160  Biso   1.000  C
  C20      1.0000 0.08650  0.27790  0.35160  Biso   1.000  C
  C21      1.0000 0.58650  0.22210  0.85160  Biso   1.000  C
  C22      1.0000 0.08650  0.72210  0.85160  Biso   1.000  C
  C23      1.0000 0.41350  0.22210  0.64840  Biso   1.000  C
  C24      1.0000 0.91350  0.72210  0.64840  Biso   1.000  C
  H1       1.0000 0.35420  0.74360  0.07890  Biso   1.000  H
  H2       1.0000 0.85420  0.24360  0.07890  Biso   1.000  H
  H3       1.0000 0.64580  0.74360  0.42110  Biso   1.000  H
  H4       1.0000 0.14580  0.24360  0.42110  Biso   1.000  H
  H5       1.0000 0.64580  0.25640  0.92110  Biso   1.000  H
  H6       1.0000 0.14580  0.75640  0.92110  Biso   1.000  H
  H7       1.0000 0.35420  0.25640  0.57890  Biso   1.000  H
  H8       1.0000 0.85420  0.75640  0.57890  Biso   1.000  H
  C25      1.0000 0.50000  0.72720  0.25000  Biso   1.000  C
  C26      1.0000 0.00000  0.22720  0.25000  Biso   1.000  C
  C27      1.0000 0.50000  0.27280  0.75000  Biso   1.000  C
  C28      1.0000 0.00000  0.77280  0.75000  Biso   1.000  C
  H9       1.0000 0.50000  0.65740  0.25000  Biso   1.000  H
  H10      1.0000 0.00000  0.15740  0.25000  Biso   1.000  H
  H11      1.0000 0.50000  0.34260  0.75000  Biso   1.000  H
  H12      1.0000 0.00000  0.84260  0.75000  Biso   1.000  H
  C29      1.0000 0.57480  0.25830  0.35070  Biso   1.000  C
  C30      1.0000 0.07480  0.75830  0.35070  Biso   1.000  C
  C31      1.0000 0.42520  0.25830  0.14930  Biso   1.000  C
  C32      1.0000 0.92520  0.75830  0.14930  Biso   1.000  C
  C33      1.0000 0.42520  0.74170  0.64930  Biso   1.000  C
  C34      1.0000 0.92520  0.24170  0.64930  Biso   1.000  C
  C35      1.0000 0.57480  0.74170  0.85070  Biso   1.000  C
  C36      1.0000 0.07480  0.24170  0.85070  Biso   1.000  C
  H13      1.0000 0.62860  0.22300  0.42180  Biso   1.000  H
  H14      1.0000 0.12860  0.72300  0.42180  Biso   1.000  H
  H15      1.0000 0.37140  0.22300  0.07820  Biso   1.000  H
  H16      1.0000 0.87140  0.72300  0.07820  Biso   1.000  H
  H17      1.0000 0.37140  0.77700  0.57820  Biso   1.000  H
  H18      1.0000 0.87140  0.27700  0.57820  Biso   1.000  H
  H19      1.0000 0.62860  0.77700  0.92180  Biso   1.000  H
  H20      1.0000 0.12860  0.27700  0.92180  Biso   1.000  H
  C37      1.0000 0.57650  0.35940  0.35490  Biso   1.000  C
  C38      1.0000 0.07650  0.85940  0.35490  Biso   1.000  C
  C39      1.0000 0.42350  0.35940  0.14510  Biso   1.000  C
  C40      1.0000 0.92350  0.85940  0.14510  Biso   1.000  C
  C41      1.0000 0.42350  0.64060  0.64510  Biso   1.000  C
  C42      1.0000 0.92350  0.14060  0.64510  Biso   1.000  C
  C43      1.0000 0.57650  0.64060  0.85490  Biso   1.000  C
  C44      1.0000 0.07650  0.14060  0.85490  Biso   1.000  C
  H21      1.0000 0.62900  0.39310  0.42810  Biso   1.000  H
  H22      1.0000 0.12900  0.89310  0.42810  Biso   1.000  H
  H23      1.0000 0.37100  0.39310  0.07190  Biso   1.000  H
  H24      1.0000 0.87100  0.89310  0.07190  Biso   1.000  H
  H25      1.0000 0.37100  0.60690  0.57190  Biso   1.000  H
  H26      1.0000 0.87100  0.10690  0.57190  Biso   1.000  H
  H27      1.0000 0.62900  0.60690  0.92810  Biso   1.000  H
  H28      1.0000 0.12900  0.10690  0.92810  Biso   1.000  H
  C45      1.0000 0.50000  0.41120  0.25000  Biso   1.000  C
  C46      1.0000 0.00000  0.91120  0.25000  Biso   1.000  C
  C47      1.0000 0.50000  0.58880  0.75000  Biso   1.000  C
  C48      1.0000 0.00000  0.08880  0.75000  Biso   1.000  C
  H29      1.0000 0.50000  0.48100  0.25000  Biso   1.000  H
  H30      1.0000 0.00000  0.98100  0.25000  Biso   1.000  H
  H31      1.0000 0.50000  0.51900  0.75000  Biso   1.000  H
  H32      1.0000 0.00000  0.01900  0.75000  Biso   1.000  H
