data_image0
_cell_length_a       8.1012
_cell_length_b       5.31093
_cell_length_c       29.2595
_cell_angle_alpha    90
_cell_angle_beta     90
_cell_angle_gamma    90

_symmetry_space_group_name_H-M    "P 1"
_symmetry_int_tables_number       1

loop_
  _symmetry_equiv_pos_as_xyz
  'x, y, z'

loop_
  _atom_site_label
  _atom_site_occupancy
  _atom_site_fract_x
  _atom_site_fract_y
  _atom_site_fract_z
  _atom_site_thermal_displace_type
  _atom_site_B_iso_or_equiv
  _atom_site_type_symbol
  Cu1      1.0000 0.18292  0.49580  0.00007  Biso   1.000  Cu
  Cu2      1.0000 0.31708  0.99580  0.00007  Biso   1.000  Cu
  Cu3      1.0000 0.18292  0.50420  0.50007  Biso   1.000  Cu
  Cu4      1.0000 0.68292  0.99580  0.49993  Biso   1.000  Cu
  Cu5      1.0000 0.81708  0.50420  0.99993  Biso   1.000  Cu
  Cu6      1.0000 0.68292  0.00420  0.99993  Biso   1.000  Cu
  Cu7      1.0000 0.81708  0.49580  0.49993  Biso   1.000  Cu
  Cu8      1.0000 0.31708  0.00420  0.50007  Biso   1.000  Cu
  P1       1.0000 0.50110  0.58470  0.05821  Biso   1.000  P
  P2       1.0000 0.99890  0.08470  0.05821  Biso   1.000  P
  P3       1.0000 0.50110  0.41530  0.55821  Biso   1.000  P
  P4       1.0000 0.00110  0.08470  0.44179  Biso   1.000  P
  P5       1.0000 0.49890  0.41530  0.94179  Biso   1.000  P
  P6       1.0000 0.00110  0.91530  0.94179  Biso   1.000  P
  P7       1.0000 0.49890  0.58470  0.44179  Biso   1.000  P
  P8       1.0000 0.99890  0.91530  0.55821  Biso   1.000  P
  O1       1.0000 0.35230  0.42100  0.04380  Biso   1.000  O
  O2       1.0000 0.14770  0.92100  0.04380  Biso   1.000  O
  O3       1.0000 0.35230  0.57900  0.54380  Biso   1.000  O
  O4       1.0000 0.85230  0.92100  0.45620  Biso   1.000  O
  O5       1.0000 0.64770  0.57900  0.95620  Biso   1.000  O
  O6       1.0000 0.85230  0.07900  0.95620  Biso   1.000  O
  O7       1.0000 0.64770  0.42100  0.45620  Biso   1.000  O
  O8       1.0000 0.14770  0.07900  0.54380  Biso   1.000  O
  O9       1.0000 0.49600  0.84120  0.03308  Biso   1.000  O
  O10      1.0000 0.00400  0.34120  0.03308  Biso   1.000  O
  O11      1.0000 0.49600  0.15880  0.53308  Biso   1.000  O
  O12      1.0000 0.99600  0.34120  0.46692  Biso   1.000  O
  O13      1.0000 0.50400  0.15880  0.96692  Biso   1.000  O
  O14      1.0000 0.99600  0.65880  0.96692  Biso   1.000  O
  O15      1.0000 0.50400  0.84120  0.46692  Biso   1.000  O
  O16      1.0000 0.00400  0.65880  0.53308  Biso   1.000  O
  O17      1.0000 0.66530  0.44800  0.04910  Biso   1.000  O
  O18      1.0000 0.83470  0.94800  0.04910  Biso   1.000  O
  O19      1.0000 0.66530  0.55200  0.54910  Biso   1.000  O
  O20      1.0000 0.16530  0.94800  0.45090  Biso   1.000  O
  O21      1.0000 0.33470  0.55200  0.95090  Biso   1.000  O
  O22      1.0000 0.16530  0.05200  0.95090  Biso   1.000  O
  O23      1.0000 0.33470  0.44800  0.45090  Biso   1.000  O
  O24      1.0000 0.83470  0.05200  0.54910  Biso   1.000  O
  C1       1.0000 0.48430  0.64600  0.11914  Biso   1.000  C
  C2       1.0000 0.01570  0.14600  0.11914  Biso   1.000  C
  C3       1.0000 0.48430  0.35400  0.61914  Biso   1.000  C
  C4       1.0000 0.98430  0.14600  0.38086  Biso   1.000  C
  C5       1.0000 0.51570  0.35400  0.88086  Biso   1.000  C
  C6       1.0000 0.98430  0.85400  0.88086  Biso   1.000  C
  C7       1.0000 0.51570  0.64600  0.38086  Biso   1.000  C
  C8       1.0000 0.01570  0.85400  0.61914  Biso   1.000  C
  C9       1.0000 0.58210  0.52400  0.15154  Biso   1.000  C
  C10      1.0000 0.91790  0.02400  0.15154  Biso   1.000  C
  C11      1.0000 0.58210  0.47600  0.65154  Biso   1.000  C
  C12      1.0000 0.08210  0.02400  0.34846  Biso   1.000  C
  C13      1.0000 0.41790  0.47600  0.84846  Biso   1.000  C
  C14      1.0000 0.08210  0.97600  0.84846  Biso   1.000  C
  C15      1.0000 0.41790  0.52400  0.34846  Biso   1.000  C
  C16      1.0000 0.91790  0.97600  0.65154  Biso   1.000  C
  C17      1.0000 0.56990  0.59120  0.19804  Biso   1.000  C
  C18      1.0000 0.93010  0.09120  0.19804  Biso   1.000  C
  C19      1.0000 0.56990  0.40880  0.69804  Biso   1.000  C
  C20      1.0000 0.06990  0.09120  0.30196  Biso   1.000  C
  C21      1.0000 0.43010  0.40880  0.80196  Biso   1.000  C
  C22      1.0000 0.06990  0.90880  0.80196  Biso   1.000  C
  C23      1.0000 0.43010  0.59120  0.30196  Biso   1.000  C
  C24      1.0000 0.93010  0.90880  0.69804  Biso   1.000  C
  C25      1.0000 0.47780  0.80050  0.21145  Biso   1.000  C
  C26      1.0000 0.02220  0.30050  0.21145  Biso   1.000  C
  C27      1.0000 0.47780  0.19950  0.71145  Biso   1.000  C
  C28      1.0000 0.97780  0.30050  0.28855  Biso   1.000  C
  C29      1.0000 0.52220  0.19950  0.78855  Biso   1.000  C
  C30      1.0000 0.97780  0.69950  0.78855  Biso   1.000  C
  C31      1.0000 0.52220  0.80050  0.28855  Biso   1.000  C
  C32      1.0000 0.02220  0.69950  0.71145  Biso   1.000  C
  C33      1.0000 0.39410  0.93740  0.17717  Biso   1.000  C
  C34      1.0000 0.10590  0.43740  0.17717  Biso   1.000  C
  C35      1.0000 0.39410  0.06260  0.67717  Biso   1.000  C
  C36      1.0000 0.89410  0.43740  0.32283  Biso   1.000  C
  C37      1.0000 0.60590  0.06260  0.82283  Biso   1.000  C
  C38      1.0000 0.89410  0.56260  0.82283  Biso   1.000  C
  C39      1.0000 0.60590  0.93740  0.32283  Biso   1.000  C
  C40      1.0000 0.10590  0.56260  0.67717  Biso   1.000  C
  C41      1.0000 0.41610  0.87900  0.13132  Biso   1.000  C
  C42      1.0000 0.08390  0.37900  0.13132  Biso   1.000  C
  C43      1.0000 0.41610  0.12100  0.63132  Biso   1.000  C
  C44      1.0000 0.91610  0.37900  0.36868  Biso   1.000  C
  C45      1.0000 0.58390  0.12100  0.86868  Biso   1.000  C
  C46      1.0000 0.91610  0.62100  0.86868  Biso   1.000  C
  C47      1.0000 0.58390  0.87900  0.36868  Biso   1.000  C
  C48      1.0000 0.08390  0.62100  0.63132  Biso   1.000  C
  O25      1.0000 0.50000  0.93190  0.25000  Biso   1.000  O
  O26      1.0000 0.00000  0.43190  0.25000  Biso   1.000  O
  O27      1.0000 0.50000  0.06810  0.75000  Biso   1.000  O
  O28      1.0000 0.00000  0.56810  0.75000  Biso   1.000  O
