data_image0
_cell_length_a       7.737
_cell_length_b       13.165
_cell_length_c       16.889
_cell_angle_alpha    90
_cell_angle_beta     90
_cell_angle_gamma    90

_symmetry_space_group_name_H-M    "P 1"
_symmetry_int_tables_number       1

loop_
  _symmetry_equiv_pos_as_xyz
  'x, y, z'

loop_
  _atom_site_label
  _atom_site_occupancy
  _atom_site_fract_x
  _atom_site_fract_y
  _atom_site_fract_z
  _atom_site_thermal_displace_type
  _atom_site_B_iso_or_equiv
  _atom_site_type_symbol
  C1       1.0000 0.06790  0.92359  0.67688  Biso   1.000  C
  C2       1.0000 0.43210  0.07641  0.17688  Biso   1.000  C
  C3       1.0000 0.93210  0.42359  0.82312  Biso   1.000  C
  C4       1.0000 0.56790  0.57641  0.32312  Biso   1.000  C
  C5       1.0000 0.08590  0.02319  0.70061  Biso   1.000  C
  C6       1.0000 0.41410  0.97681  0.20061  Biso   1.000  C
  C7       1.0000 0.91410  0.52319  0.79939  Biso   1.000  C
  C8       1.0000 0.58590  0.47681  0.29939  Biso   1.000  C
  H1       1.0000 0.03780  0.07490  0.67030  Biso   1.000  H
  H2       1.0000 0.46220  0.92510  0.17030  Biso   1.000  H
  H3       1.0000 0.96220  0.57490  0.82970  Biso   1.000  H
  H4       1.0000 0.53780  0.42510  0.32970  Biso   1.000  H
  C9       1.0000 0.17650  0.04734  0.77039  Biso   1.000  C
  C10      1.0000 0.32350  0.95266  0.27039  Biso   1.000  C
  C11      1.0000 0.82350  0.54734  0.72961  Biso   1.000  C
  C12      1.0000 0.67650  0.45266  0.22961  Biso   1.000  C
  H5       1.0000 0.18950  0.11480  0.78560  Biso   1.000  H
  H6       1.0000 0.31050  0.88520  0.28560  Biso   1.000  H
  H7       1.0000 0.81050  0.61480  0.71440  Biso   1.000  H
  H8       1.0000 0.68950  0.38520  0.21440  Biso   1.000  H
  C13      1.0000 0.24500  0.97166  0.81555  Biso   1.000  C
  C14      1.0000 0.25500  0.02834  0.31555  Biso   1.000  C
  C15      1.0000 0.75500  0.47166  0.68445  Biso   1.000  C
  C16      1.0000 0.74500  0.52834  0.18445  Biso   1.000  C
  H9       1.0000 0.30250  0.98780  0.86220  Biso   1.000  H
  H10      1.0000 0.19750  0.01220  0.36220  Biso   1.000  H
  H11      1.0000 0.69750  0.48780  0.63780  Biso   1.000  H
  H12      1.0000 0.80250  0.51220  0.13780  Biso   1.000  H
  C17      1.0000 0.22980  0.86831  0.79230  Biso   1.000  C
  C18      1.0000 0.27020  0.13169  0.29230  Biso   1.000  C
  C19      1.0000 0.77020  0.36831  0.70770  Biso   1.000  C
  C20      1.0000 0.72980  0.63169  0.20770  Biso   1.000  C
  C21      1.0000 0.14000  0.84231  0.72185  Biso   1.000  C
  C22      1.0000 0.36000  0.15769  0.22185  Biso   1.000  C
  C23      1.0000 0.86000  0.34231  0.77815  Biso   1.000  C
  C24      1.0000 0.64000  0.65769  0.27815  Biso   1.000  C
  C25      1.0000 0.30210  0.79245  0.84132  Biso   1.000  C
  C26      1.0000 0.19790  0.20755  0.34132  Biso   1.000  C
  C27      1.0000 0.69790  0.29245  0.65868  Biso   1.000  C
  C28      1.0000 0.80210  0.70755  0.15868  Biso   1.000  C
  H13      1.0000 0.34520  0.81490  0.88970  Biso   1.000  H
  H14      1.0000 0.15480  0.18510  0.38970  Biso   1.000  H
  H15      1.0000 0.65480  0.31490  0.61030  Biso   1.000  H
  H16      1.0000 0.84520  0.68510  0.11030  Biso   1.000  H
  C29      1.0000 0.90470  0.96653  0.56154  Biso   1.000  C
  C30      1.0000 0.59530  0.03347  0.06154  Biso   1.000  C
  C31      1.0000 0.09530  0.46653  0.93846  Biso   1.000  C
  C32      1.0000 0.40470  0.53347  0.43846  Biso   1.000  C
  H17      1.0000 0.82190  0.00340  0.59260  Biso   1.000  H
  H18      1.0000 0.67810  0.99660  0.09260  Biso   1.000  H
  H19      1.0000 0.17810  0.50340  0.90740  Biso   1.000  H
  H20      1.0000 0.32190  0.49660  0.40740  Biso   1.000  H
  H21      1.0000 0.84710  0.93410  0.51800  Biso   1.000  H
  H22      1.0000 0.65290  0.06590  0.01800  Biso   1.000  H
  H23      1.0000 0.15290  0.43410  0.98200  Biso   1.000  H
  H24      1.0000 0.34710  0.56590  0.48200  Biso   1.000  H
  H25      1.0000 0.99050  0.01260  0.54160  Biso   1.000  H
  H26      1.0000 0.50950  0.98740  0.04160  Biso   1.000  H
  H27      1.0000 0.00950  0.51260  0.95840  Biso   1.000  H
  H28      1.0000 0.49050  0.48740  0.45840  Biso   1.000  H
  C33      1.0000 0.07580  0.44760  0.54819  Biso   1.000  C
  C34      1.0000 0.42420  0.55240  0.04819  Biso   1.000  C
  C35      1.0000 0.92420  0.94760  0.95181  Biso   1.000  C
  C36      1.0000 0.57580  0.05240  0.45181  Biso   1.000  C
  C37      1.0000 0.06250  0.34687  0.52792  Biso   1.000  C
  C38      1.0000 0.43750  0.65313  0.02792  Biso   1.000  C
  C39      1.0000 0.93750  0.84687  0.97208  Biso   1.000  C
  C40      1.0000 0.56250  0.15313  0.47208  Biso   1.000  C
  H29      1.0000 0.00320  0.32810  0.48230  Biso   1.000  H
  H30      1.0000 0.49680  0.67190  0.98230  Biso   1.000  H
  H31      1.0000 0.99680  0.82810  0.01770  Biso   1.000  H
  H32      1.0000 0.50320  0.17190  0.51770  Biso   1.000  H
  C41      1.0000 0.13870  0.27166  0.57635  Biso   1.000  C
  C42      1.0000 0.36130  0.72834  0.07635  Biso   1.000  C
  C43      1.0000 0.86130  0.77166  0.92365  Biso   1.000  C
  C44      1.0000 0.63870  0.22834  0.42365  Biso   1.000  C
  H33      1.0000 0.12920  0.20360  0.56220  Biso   1.000  H
  H34      1.0000 0.37080  0.79640  0.06220  Biso   1.000  H
  H35      1.0000 0.87080  0.70360  0.93780  Biso   1.000  H
  H36      1.0000 0.62920  0.29640  0.43780  Biso   1.000  H
  C45      1.0000 0.22480  0.29714  0.64274  Biso   1.000  C
  C46      1.0000 0.27520  0.70286  0.14274  Biso   1.000  C
  C47      1.0000 0.77520  0.79714  0.85726  Biso   1.000  C
  C48      1.0000 0.72480  0.20286  0.35726  Biso   1.000  C
  H37      1.0000 0.27380  0.24660  0.67400  Biso   1.000  H
  H38      1.0000 0.22620  0.75340  0.17400  Biso   1.000  H
  H39      1.0000 0.72620  0.74660  0.82600  Biso   1.000  H
  H40      1.0000 0.77380  0.25340  0.32600  Biso   1.000  H
  C49      1.0000 0.24160  0.40139  0.66559  Biso   1.000  C
  C50      1.0000 0.25840  0.59861  0.16559  Biso   1.000  C
  C51      1.0000 0.75840  0.90139  0.83441  Biso   1.000  C
  C52      1.0000 0.74160  0.09861  0.33441  Biso   1.000  C
  C53      1.0000 0.16820  0.47851  0.61750  Biso   1.000  C
  C54      1.0000 0.33180  0.52149  0.11750  Biso   1.000  C
  C55      1.0000 0.83180  0.97851  0.88250  Biso   1.000  C
  C56      1.0000 0.66820  0.02149  0.38250  Biso   1.000  C
  C57      1.0000 0.32760  0.42379  0.73717  Biso   1.000  C
  C58      1.0000 0.17240  0.57621  0.23717  Biso   1.000  C
  C59      1.0000 0.67240  0.92379  0.76283  Biso   1.000  C
  C60      1.0000 0.82760  0.07621  0.26283  Biso   1.000  C
  H41      1.0000 0.37280  0.36880  0.76480  Biso   1.000  H
  H42      1.0000 0.12720  0.63120  0.26480  Biso   1.000  H
  H43      1.0000 0.62720  0.86880  0.73520  Biso   1.000  H
  H44      1.0000 0.87280  0.13120  0.23520  Biso   1.000  H
  C61      1.0000 0.90360  0.50378  0.43943  Biso   1.000  C
  C62      1.0000 0.59640  0.49622  0.93943  Biso   1.000  C
  C63      1.0000 0.09640  0.00378  0.06057  Biso   1.000  C
  C64      1.0000 0.40360  0.99622  0.56057  Biso   1.000  C
  H45      1.0000 0.97590  0.47280  0.40000  Biso   1.000  H
  H46      1.0000 0.52410  0.52720  0.90000  Biso   1.000  H
  H47      1.0000 0.02410  0.97280  0.10000  Biso   1.000  H
  H48      1.0000 0.47590  0.02720  0.60000  Biso   1.000  H
  H49      1.0000 0.85420  0.56500  0.41850  Biso   1.000  H
  H50      1.0000 0.64580  0.43500  0.91850  Biso   1.000  H
  H51      1.0000 0.14580  0.06500  0.08150  Biso   1.000  H
  H52      1.0000 0.35420  0.93500  0.58150  Biso   1.000  H
  H53      1.0000 0.81280  0.45770  0.45380  Biso   1.000  H
  H54      1.0000 0.68720  0.54230  0.95380  Biso   1.000  H
  H55      1.0000 0.18720  0.95770  0.04620  Biso   1.000  H
  H56      1.0000 0.31280  0.04230  0.54620  Biso   1.000  H
  Cu1      1.0000 0.25742  0.63695  0.72654  Biso   1.000  Cu
  Cu2      1.0000 0.24258  0.36305  0.22654  Biso   1.000  Cu
  Cu3      1.0000 0.74258  0.13695  0.77346  Biso   1.000  Cu
  Cu4      1.0000 0.75742  0.86305  0.27346  Biso   1.000  Cu
  N1       1.0000 0.53620  0.72115  0.60308  Biso   1.000  N
  N2       1.0000 0.96380  0.27885  0.10308  Biso   1.000  N
  N3       1.0000 0.46380  0.22115  0.89692  Biso   1.000  N
  N4       1.0000 0.03620  0.77885  0.39692  Biso   1.000  N
  Na1      1.0000 0.03464  0.71081  0.56511  Biso   1.000  Na
  Na2      1.0000 0.46536  0.28919  0.06511  Biso   1.000  Na
  Na3      1.0000 0.96536  0.21081  0.93489  Biso   1.000  Na
  Na4      1.0000 0.53464  0.78919  0.43489  Biso   1.000  Na
  O1       1.0000 0.98573  0.89168  0.60950  Biso   1.000  O
  O2       1.0000 0.51427  0.10832  0.10950  Biso   1.000  O
  O3       1.0000 0.01427  0.39168  0.89050  Biso   1.000  O
  O4       1.0000 0.48573  0.60832  0.39050  Biso   1.000  O
  O5       1.0000 0.11760  0.74989  0.69651  Biso   1.000  O
  O6       1.0000 0.38240  0.25011  0.19651  Biso   1.000  O
  O7       1.0000 0.88240  0.24989  0.80349  Biso   1.000  O
  O8       1.0000 0.61760  0.75011  0.30349  Biso   1.000  O
  O9       1.0000 0.31612  0.69909  0.82857  Biso   1.000  O
  O10      1.0000 0.18388  0.30091  0.32857  Biso   1.000  O
  O11      1.0000 0.68388  0.19909  0.67143  Biso   1.000  O
  O12      1.0000 0.81612  0.80091  0.17143  Biso   1.000  O
  O13      1.0000 0.00468  0.52733  0.50775  Biso   1.000  O
  O14      1.0000 0.49532  0.47267  0.00775  Biso   1.000  O
  O15      1.0000 0.99532  0.02733  0.99225  Biso   1.000  O
  O16      1.0000 0.50468  0.97267  0.49225  Biso   1.000  O
  O17      1.0000 0.17851  0.57479  0.63174  Biso   1.000  O
  O18      1.0000 0.32149  0.42521  0.13174  Biso   1.000  O
  O19      1.0000 0.82149  0.07479  0.86826  Biso   1.000  O
  O20      1.0000 0.67851  0.92521  0.36826  Biso   1.000  O
  O21      1.0000 0.34982  0.50983  0.76779  Biso   1.000  O
  O22      1.0000 0.15018  0.49017  0.26779  Biso   1.000  O
  O23      1.0000 0.65018  0.00983  0.73221  Biso   1.000  O
  O24      1.0000 0.84982  0.99017  0.23221  Biso   1.000  O
  O25      1.0000 0.51745  0.70304  0.67537  Biso   1.000  O
  O26      1.0000 0.98255  0.29696  0.17537  Biso   1.000  O
  O27      1.0000 0.48255  0.20304  0.82463  Biso   1.000  O
  O28      1.0000 0.01745  0.79696  0.32463  Biso   1.000  O
  O29      1.0000 0.41000  0.74389  0.56117  Biso   1.000  O
  O30      1.0000 0.09000  0.25611  0.06117  Biso   1.000  O
  O31      1.0000 0.59000  0.24389  0.93883  Biso   1.000  O
  O32      1.0000 0.91000  0.75611  0.43883  Biso   1.000  O
  O33      1.0000 0.67900  0.71620  0.57232  Biso   1.000  O
  O34      1.0000 0.82100  0.28380  0.07232  Biso   1.000  O
  O35      1.0000 0.32100  0.21620  0.92768  Biso   1.000  O
  O36      1.0000 0.17900  0.78380  0.42768  Biso   1.000  O
