data_image0
_cell_length_a       6.563
_cell_length_b       9.87
_cell_length_c       10.876
_cell_angle_alpha    90
_cell_angle_beta     99.802
_cell_angle_gamma    90

_symmetry_space_group_name_H-M    "P 1"
_symmetry_int_tables_number       1

loop_
  _symmetry_equiv_pos_as_xyz
  'x, y, z'

loop_
  _atom_site_label
  _atom_site_occupancy
  _atom_site_fract_x
  _atom_site_fract_y
  _atom_site_fract_z
  _atom_site_thermal_displace_type
  _atom_site_B_iso_or_equiv
  _atom_site_type_symbol
  Cu1      1.0000 0.85030  0.23532  0.75251  Biso   1.000  Cu
  Cu2      1.0000 0.14970  0.73532  0.74749  Biso   1.000  Cu
  Cu3      1.0000 0.14970  0.76468  0.24749  Biso   1.000  Cu
  Cu4      1.0000 0.85030  0.26468  0.25251  Biso   1.000  Cu
  O1       1.0000 0.68020  0.23210  0.58730  Biso   1.000  O
  O2       1.0000 0.31980  0.73210  0.91270  Biso   1.000  O
  O3       1.0000 0.31980  0.76790  0.41270  Biso   1.000  O
  O4       1.0000 0.68020  0.26790  0.08730  Biso   1.000  O
  O5       1.0000 0.41010  0.32280  0.46740  Biso   1.000  O
  O6       1.0000 0.58990  0.82280  0.03260  Biso   1.000  O
  O7       1.0000 0.58990  0.67720  0.53260  Biso   1.000  O
  O8       1.0000 0.41010  0.17720  0.96740  Biso   1.000  O
  O9       1.0000 0.98030  0.44460  0.74490  Biso   1.000  O
  O10      1.0000 0.01970  0.94460  0.75510  Biso   1.000  O
  O11      1.0000 0.01970  0.55540  0.25510  Biso   1.000  O
  O12      1.0000 0.98030  0.05540  0.24490  Biso   1.000  O
  O13      1.0000 0.92740  0.64968  0.81860  Biso   1.000  O
  O14      1.0000 0.07260  0.14968  0.68140  Biso   1.000  O
  O15      1.0000 0.07260  0.35032  0.18140  Biso   1.000  O
  O16      1.0000 0.92740  0.85032  0.31860  Biso   1.000  O
  O17      1.0000 0.96790  0.17810  0.92460  Biso   1.000  O
  O18      1.0000 0.03210  0.67810  0.57540  Biso   1.000  O
  O19      1.0000 0.03210  0.82190  0.07540  Biso   1.000  O
  O20      1.0000 0.96790  0.32190  0.42460  Biso   1.000  O
  H1       1.0000 0.89700  0.21200  0.97800  Biso   1.000  H
  H2       1.0000 0.10300  0.71200  0.52200  Biso   1.000  H
  H3       1.0000 0.10300  0.78800  0.02200  Biso   1.000  H
  H4       1.0000 0.89700  0.28800  0.47800  Biso   1.000  H
  H5       1.0000 0.10220  0.18400  0.94500  Biso   1.000  H
  H6       1.0000 0.89780  0.68400  0.55500  Biso   1.000  H
  H7       1.0000 0.89780  0.81600  0.05500  Biso   1.000  H
  H8       1.0000 0.10220  0.31600  0.44500  Biso   1.000  H
  N1       1.0000 0.61640  0.34970  0.79860  Biso   1.000  N
  N2       1.0000 0.38360  0.84970  0.70140  Biso   1.000  N
  N3       1.0000 0.38360  0.65030  0.20140  Biso   1.000  N
  N4       1.0000 0.61640  0.15030  0.29860  Biso   1.000  N
  H9       1.0000 0.54600  0.30300  0.84400  Biso   1.000  H
  H10      1.0000 0.45400  0.80300  0.65600  Biso   1.000  H
  H11      1.0000 0.45400  0.69700  0.15600  Biso   1.000  H
  H12      1.0000 0.54600  0.19700  0.34400  Biso   1.000  H
  C1       1.0000 0.46690  0.37880  0.68280  Biso   1.000  C
  C2       1.0000 0.53310  0.87880  0.81720  Biso   1.000  C
  C3       1.0000 0.53310  0.62120  0.31720  Biso   1.000  C
  C4       1.0000 0.46690  0.12120  0.18280  Biso   1.000  C
  H13      1.0000 0.46390  0.47670  0.66740  Biso   1.000  H
  H14      1.0000 0.53610  0.97670  0.83260  Biso   1.000  H
  H15      1.0000 0.53610  0.52330  0.33260  Biso   1.000  H
  H16      1.0000 0.46390  0.02330  0.16740  Biso   1.000  H
  H17      1.0000 0.32820  0.35110  0.69490  Biso   1.000  H
  H18      1.0000 0.67180  0.85110  0.80510  Biso   1.000  H
  H19      1.0000 0.67180  0.64890  0.30510  Biso   1.000  H
  H20      1.0000 0.32820  0.14890  0.19490  Biso   1.000  H
  C5       1.0000 0.52020  0.30690  0.57070  Biso   1.000  C
  C6       1.0000 0.47980  0.80690  0.92930  Biso   1.000  C
  C7       1.0000 0.47980  0.69310  0.42930  Biso   1.000  C
  C8       1.0000 0.52020  0.19310  0.07070  Biso   1.000  C
  C9       1.0000 0.70730  0.47350  0.86220  Biso   1.000  C
  C10      1.0000 0.29270  0.97350  0.63780  Biso   1.000  C
  C11      1.0000 0.29270  0.52650  0.13780  Biso   1.000  C
  C12      1.0000 0.70730  0.02650  0.36220  Biso   1.000  C
  H21      1.0000 0.75680  0.45370  0.95050  Biso   1.000  H
  H22      1.0000 0.24320  0.95370  0.54950  Biso   1.000  H
  H23      1.0000 0.24320  0.54630  0.04950  Biso   1.000  H
  H24      1.0000 0.75680  0.04630  0.45050  Biso   1.000  H
  H25      1.0000 0.60110  0.54400  0.85710  Biso   1.000  H
  H26      1.0000 0.39890  0.04400  0.64290  Biso   1.000  H
  H27      1.0000 0.39890  0.45600  0.14290  Biso   1.000  H
  H28      1.0000 0.60110  0.95600  0.35710  Biso   1.000  H
  C13      1.0000 0.88640  0.52460  0.80230  Biso   1.000  C
  C14      1.0000 0.11360  0.02460  0.69770  Biso   1.000  C
  C15      1.0000 0.11360  0.47540  0.19770  Biso   1.000  C
  C16      1.0000 0.88640  0.97540  0.30230  Biso   1.000  C
