data_image0
_cell_length_a       5.62
_cell_length_b       8.8577
_cell_length_c       14.481
_cell_angle_alpha    90
_cell_angle_beta     96.55
_cell_angle_gamma    90

_symmetry_space_group_name_H-M    "P 1"
_symmetry_int_tables_number       1

loop_
  _symmetry_equiv_pos_as_xyz
  'x, y, z'

loop_
  _atom_site_label
  _atom_site_occupancy
  _atom_site_fract_x
  _atom_site_fract_y
  _atom_site_fract_z
  _atom_site_thermal_displace_type
  _atom_site_B_iso_or_equiv
  _atom_site_type_symbol
  Cu1      1.0000 0.00000  0.50000  0.50000  Biso   1.000  Cu
  Cu2      1.0000 0.50000  0.00000  0.00000  Biso   1.000  Cu
  C1       1.0000 0.06770  0.43660  0.30250  Biso   1.000  C
  C2       1.0000 0.43230  0.93660  0.19750  Biso   1.000  C
  C3       1.0000 0.93230  0.56340  0.69750  Biso   1.000  C
  C4       1.0000 0.56770  0.06340  0.80250  Biso   1.000  C
  H1       1.0000 0.14520  0.34630  0.31940  Biso   1.000  H
  H2       1.0000 0.35480  0.84630  0.18060  Biso   1.000  H
  H3       1.0000 0.85480  0.65370  0.68060  Biso   1.000  H
  H4       1.0000 0.64520  0.15370  0.81940  Biso   1.000  H
  C5       1.0000 0.88490  0.64690  0.30900  Biso   1.000  C
  C6       1.0000 0.61510  0.14690  0.19100  Biso   1.000  C
  C7       1.0000 0.11510  0.35310  0.69100  Biso   1.000  C
  C8       1.0000 0.38490  0.85310  0.80900  Biso   1.000  C
  H5       1.0000 0.81000  0.73040  0.33180  Biso   1.000  H
  H6       1.0000 0.69000  0.23040  0.16820  Biso   1.000  H
  H7       1.0000 0.19000  0.26960  0.66820  Biso   1.000  H
  H8       1.0000 0.31000  0.76960  0.83180  Biso   1.000  H
  C9       1.0000 0.91470  0.62290  0.21840  Biso   1.000  C
  C10      1.0000 0.58530  0.12290  0.28160  Biso   1.000  C
  C11      1.0000 0.08530  0.37710  0.78160  Biso   1.000  C
  C12      1.0000 0.41470  0.87710  0.71840  Biso   1.000  C
  H9       1.0000 0.86630  0.68610  0.16850  Biso   1.000  H
  H10      1.0000 0.63370  0.18610  0.33150  Biso   1.000  H
  H11      1.0000 0.13370  0.31390  0.83150  Biso   1.000  H
  H12      1.0000 0.36630  0.81390  0.66850  Biso   1.000  H
  C13      1.0000 0.10830  0.41320  0.13310  Biso   1.000  C
  C14      1.0000 0.39170  0.91320  0.36690  Biso   1.000  C
  C15      1.0000 0.89170  0.58680  0.86690  Biso   1.000  C
  C16      1.0000 0.60830  0.08680  0.63310  Biso   1.000  C
  H13      1.0000 0.97730  0.41360  0.08330  Biso   1.000  H
  H14      1.0000 0.52270  0.91360  0.41670  Biso   1.000  H
  H15      1.0000 0.02270  0.58640  0.91670  Biso   1.000  H
  H16      1.0000 0.47730  0.08640  0.58330  Biso   1.000  H
  H17      1.0000 0.14770  0.30880  0.14820  Biso   1.000  H
  H18      1.0000 0.35230  0.80880  0.35180  Biso   1.000  H
  H19      1.0000 0.85230  0.69120  0.85180  Biso   1.000  H
  H20      1.0000 0.64770  0.19120  0.64820  Biso   1.000  H
  C17      1.0000 0.32130  0.48850  0.09990  Biso   1.000  C
  C18      1.0000 0.17870  0.98850  0.40010  Biso   1.000  C
  C19      1.0000 0.67870  0.51150  0.90010  Biso   1.000  C
  C20      1.0000 0.82130  0.01150  0.59990  Biso   1.000  C
  H21      1.0000 0.28010  0.58990  0.08090  Biso   1.000  H
  H22      1.0000 0.21990  0.08990  0.41910  Biso   1.000  H
  H23      1.0000 0.71990  0.41010  0.91910  Biso   1.000  H
  H24      1.0000 0.78010  0.91010  0.58090  Biso   1.000  H
  H25      1.0000 0.37010  0.43330  0.04820  Biso   1.000  H
  H26      1.0000 0.12990  0.93330  0.45180  Biso   1.000  H
  H27      1.0000 0.62990  0.56670  0.95180  Biso   1.000  H
  H28      1.0000 0.87010  0.06670  0.54820  Biso   1.000  H
  H29      1.0000 0.45050  0.49060  0.14940  Biso   1.000  H
  H30      1.0000 0.04950  0.99060  0.35060  Biso   1.000  H
  H31      1.0000 0.54950  0.50940  0.85060  Biso   1.000  H
  H32      1.0000 0.95050  0.00940  0.64940  Biso   1.000  H
  C21      1.0000 0.48390  0.41230  0.49195  Biso   1.000  C
  C22      1.0000 0.01610  0.91230  0.00805  Biso   1.000  C
  C23      1.0000 0.51610  0.58770  0.50805  Biso   1.000  C
  C24      1.0000 0.98390  0.08770  0.99195  Biso   1.000  C
  N1       1.0000 0.98230  0.52920  0.36168  Biso   1.000  N
  N2       1.0000 0.51770  0.02920  0.13832  Biso   1.000  N
  N3       1.0000 0.01770  0.47080  0.63832  Biso   1.000  N
  N4       1.0000 0.48230  0.97080  0.86168  Biso   1.000  N
  N5       1.0000 0.02960  0.48760  0.21516  Biso   1.000  N
  N6       1.0000 0.47040  0.98760  0.28484  Biso   1.000  N
  N7       1.0000 0.97040  0.51240  0.78484  Biso   1.000  N
  N8       1.0000 0.52960  0.01240  0.71516  Biso   1.000  N
  O1       1.0000 0.66280  0.33810  0.47850  Biso   1.000  O
  O2       1.0000 0.83720  0.83810  0.02150  Biso   1.000  O
  O3       1.0000 0.33720  0.66190  0.52150  Biso   1.000  O
  O4       1.0000 0.16280  0.16190  0.97850  Biso   1.000  O
  O5       1.0000 0.27540  0.35990  0.49398  Biso   1.000  O
  O6       1.0000 0.22460  0.85990  0.00602  Biso   1.000  O
  O7       1.0000 0.72460  0.64010  0.50602  Biso   1.000  O
  O8       1.0000 0.77540  0.14010  0.99398  Biso   1.000  O
