data_image0
_cell_length_a       18.936
_cell_length_b       11.077
_cell_length_c       19.322
_cell_angle_alpha    90
_cell_angle_beta     90.69
_cell_angle_gamma    90

_symmetry_space_group_name_H-M    "P 1"
_symmetry_int_tables_number       1

loop_
  _symmetry_equiv_pos_as_xyz
  'x, y, z'

loop_
  _atom_site_label
  _atom_site_occupancy
  _atom_site_fract_x
  _atom_site_fract_y
  _atom_site_fract_z
  _atom_site_thermal_displace_type
  _atom_site_B_iso_or_equiv
  _atom_site_type_symbol
  Cl1      1.0000 0.64170  0.02450  0.53060  Biso   1.000  Cl
  Cl2      1.0000 0.85830  0.02450  0.46940  Biso   1.000  Cl
  Cl3      1.0000 0.14170  0.52450  0.03060  Biso   1.000  Cl
  Cl4      1.0000 0.35830  0.52450  0.96940  Biso   1.000  Cl
  Cl5      1.0000 0.35830  0.97550  0.46940  Biso   1.000  Cl
  Cl6      1.0000 0.14170  0.97550  0.53060  Biso   1.000  Cl
  Cl7      1.0000 0.85830  0.47550  0.96940  Biso   1.000  Cl
  Cl8      1.0000 0.64170  0.47550  0.03060  Biso   1.000  Cl
  O1       1.0000 0.67580  0.03860  0.46500  Biso   1.000  O
  O2       1.0000 0.82420  0.03860  0.53500  Biso   1.000  O
  O3       1.0000 0.17580  0.53860  0.96500  Biso   1.000  O
  O4       1.0000 0.32420  0.53860  0.03500  Biso   1.000  O
  O5       1.0000 0.32420  0.96140  0.53500  Biso   1.000  O
  O6       1.0000 0.17580  0.96140  0.46500  Biso   1.000  O
  O7       1.0000 0.82420  0.46140  0.03500  Biso   1.000  O
  O8       1.0000 0.67580  0.46140  0.96500  Biso   1.000  O
  O9       1.0000 0.66760  0.91790  0.56310  Biso   1.000  O
  O10      1.0000 0.83240  0.91790  0.43690  Biso   1.000  O
  O11      1.0000 0.16760  0.41790  0.06310  Biso   1.000  O
  O12      1.0000 0.33240  0.41790  0.93690  Biso   1.000  O
  O13      1.0000 0.33240  0.08210  0.43690  Biso   1.000  O
  O14      1.0000 0.16760  0.08210  0.56310  Biso   1.000  O
  O15      1.0000 0.83240  0.58210  0.93690  Biso   1.000  O
  O16      1.0000 0.66760  0.58210  0.06310  Biso   1.000  O
  O17      1.0000 0.56830  0.01520  0.52080  Biso   1.000  O
  O18      1.0000 0.93170  0.01520  0.47920  Biso   1.000  O
  O19      1.0000 0.06830  0.51520  0.02080  Biso   1.000  O
  O20      1.0000 0.43170  0.51520  0.97920  Biso   1.000  O
  O21      1.0000 0.43170  0.98480  0.47920  Biso   1.000  O
  O22      1.0000 0.06830  0.98480  0.52080  Biso   1.000  O
  O23      1.0000 0.93170  0.48480  0.97920  Biso   1.000  O
  O24      1.0000 0.56830  0.48480  0.02080  Biso   1.000  O
  O25      1.0000 0.65890  0.12510  0.57440  Biso   1.000  O
  O26      1.0000 0.84110  0.12510  0.42560  Biso   1.000  O
  O27      1.0000 0.15890  0.62510  0.07440  Biso   1.000  O
  O28      1.0000 0.34110  0.62510  0.92560  Biso   1.000  O
  O29      1.0000 0.34110  0.87490  0.42560  Biso   1.000  O
  O30      1.0000 0.15890  0.87490  0.57440  Biso   1.000  O
  O31      1.0000 0.84110  0.37490  0.92560  Biso   1.000  O
  O32      1.0000 0.65890  0.37490  0.07440  Biso   1.000  O
  Cu1      1.0000 0.29010  0.61650  0.61030  Biso   1.000  Cu
  Cu2      1.0000 0.20990  0.61650  0.38970  Biso   1.000  Cu
  Cu3      1.0000 0.79010  0.11650  0.11030  Biso   1.000  Cu
  Cu4      1.0000 0.70990  0.11650  0.88970  Biso   1.000  Cu
  Cu5      1.0000 0.70990  0.38350  0.38970  Biso   1.000  Cu
  Cu6      1.0000 0.79010  0.38350  0.61030  Biso   1.000  Cu
  Cu7      1.0000 0.20990  0.88350  0.88970  Biso   1.000  Cu
  Cu8      1.0000 0.29010  0.88350  0.11030  Biso   1.000  Cu
  Cu9      1.0000 0.35390  0.90300  0.66920  Biso   1.000  Cu
  Cu10     1.0000 0.14610  0.90300  0.33080  Biso   1.000  Cu
  Cu11     1.0000 0.85390  0.40300  0.16920  Biso   1.000  Cu
  Cu12     1.0000 0.64610  0.40300  0.83080  Biso   1.000  Cu
  Cu13     1.0000 0.64610  0.09700  0.33080  Biso   1.000  Cu
  Cu14     1.0000 0.85390  0.09700  0.66920  Biso   1.000  Cu
  Cu15     1.0000 0.14610  0.59700  0.83080  Biso   1.000  Cu
  Cu16     1.0000 0.35390  0.59700  0.16920  Biso   1.000  Cu
  Cu17     1.0000 0.25000  0.75000  0.75000  Biso   1.000  Cu
  Cu18     1.0000 0.25000  0.75000  0.25000  Biso   1.000  Cu
  Cu19     1.0000 0.75000  0.25000  0.25000  Biso   1.000  Cu
  Cu20     1.0000 0.75000  0.25000  0.75000  Biso   1.000  Cu
  O33      1.0000 0.28130  0.77880  0.65200  Biso   1.000  O
  O34      1.0000 0.21870  0.77880  0.34800  Biso   1.000  O
  O35      1.0000 0.78130  0.27880  0.15200  Biso   1.000  O
  O36      1.0000 0.71870  0.27880  0.84800  Biso   1.000  O
  O37      1.0000 0.71870  0.22120  0.34800  Biso   1.000  O
  O38      1.0000 0.78130  0.22120  0.65200  Biso   1.000  O
  O39      1.0000 0.21870  0.72120  0.84800  Biso   1.000  O
  O40      1.0000 0.28130  0.72120  0.15200  Biso   1.000  O
  O41      1.0000 0.38640  0.64470  0.57850  Biso   1.000  O
  O42      1.0000 0.11360  0.64470  0.42150  Biso   1.000  O
  O43      1.0000 0.88640  0.14470  0.07850  Biso   1.000  O
  O44      1.0000 0.61360  0.14470  0.92150  Biso   1.000  O
  O45      1.0000 0.61360  0.35530  0.42150  Biso   1.000  O
  O46      1.0000 0.88640  0.35530  0.57850  Biso   1.000  O
  O47      1.0000 0.11360  0.85530  0.92150  Biso   1.000  O
  O48      1.0000 0.38640  0.85530  0.07850  Biso   1.000  O
  O49      1.0000 0.43020  0.80680  0.63370  Biso   1.000  O
  O50      1.0000 0.06980  0.80680  0.36630  Biso   1.000  O
  O51      1.0000 0.93020  0.30680  0.13370  Biso   1.000  O
  O52      1.0000 0.56980  0.30680  0.86630  Biso   1.000  O
  O53      1.0000 0.56980  0.19320  0.36630  Biso   1.000  O
  O54      1.0000 0.93020  0.19320  0.63370  Biso   1.000  O
  O55      1.0000 0.06980  0.69320  0.86630  Biso   1.000  O
  O56      1.0000 0.43020  0.69320  0.13370  Biso   1.000  O
  C1       1.0000 0.43360  0.72110  0.59080  Biso   1.000  C
  C2       1.0000 0.06640  0.72110  0.40920  Biso   1.000  C
  C3       1.0000 0.93360  0.22110  0.09080  Biso   1.000  C
  C4       1.0000 0.56640  0.22110  0.90920  Biso   1.000  C
  C5       1.0000 0.56640  0.27890  0.40920  Biso   1.000  C
  C6       1.0000 0.93360  0.27890  0.59080  Biso   1.000  C
  C7       1.0000 0.06640  0.77890  0.90920  Biso   1.000  C
  C8       1.0000 0.43360  0.77890  0.09080  Biso   1.000  C
  C9       1.0000 0.50090  0.70980  0.55260  Biso   1.000  C
  C10      1.0000 0.99910  0.70980  0.44740  Biso   1.000  C
  C11      1.0000 0.00090  0.20980  0.05260  Biso   1.000  C
  C12      1.0000 0.49910  0.20980  0.94740  Biso   1.000  C
  C13      1.0000 0.49910  0.29020  0.44740  Biso   1.000  C
  C14      1.0000 0.00090  0.29020  0.55260  Biso   1.000  C
  C15      1.0000 0.99910  0.79020  0.94740  Biso   1.000  C
  C16      1.0000 0.50090  0.79020  0.05260  Biso   1.000  C
  O57      1.0000 0.18910  0.58190  0.62070  Biso   1.000  O
  O58      1.0000 0.31090  0.58190  0.37930  Biso   1.000  O
  O59      1.0000 0.68910  0.08190  0.12070  Biso   1.000  O
  O60      1.0000 0.81090  0.08190  0.87930  Biso   1.000  O
  O61      1.0000 0.81090  0.41810  0.37930  Biso   1.000  O
  O62      1.0000 0.68910  0.41810  0.62070  Biso   1.000  O
  O63      1.0000 0.31090  0.91810  0.87930  Biso   1.000  O
  O64      1.0000 0.18910  0.91810  0.12070  Biso   1.000  O
  O65      1.0000 0.14410  0.68380  0.71020  Biso   1.000  O
  O66      1.0000 0.35590  0.68380  0.28980  Biso   1.000  O
  O67      1.0000 0.64410  0.18380  0.21020  Biso   1.000  O
  O68      1.0000 0.85590  0.18380  0.78980  Biso   1.000  O
  O69      1.0000 0.85590  0.31620  0.28980  Biso   1.000  O
  O70      1.0000 0.64410  0.31620  0.71020  Biso   1.000  O
  O71      1.0000 0.35590  0.81620  0.78980  Biso   1.000  O
  O72      1.0000 0.14410  0.81620  0.21020  Biso   1.000  O
  C17      1.0000 0.13840  0.62400  0.65460  Biso   1.000  C
  C18      1.0000 0.36160  0.62400  0.34540  Biso   1.000  C
  C19      1.0000 0.63840  0.12400  0.15460  Biso   1.000  C
  C20      1.0000 0.86160  0.12400  0.84540  Biso   1.000  C
  C21      1.0000 0.86160  0.37600  0.34540  Biso   1.000  C
  C22      1.0000 0.63840  0.37600  0.65460  Biso   1.000  C
  C23      1.0000 0.36160  0.87600  0.84540  Biso   1.000  C
  C24      1.0000 0.13840  0.87600  0.15460  Biso   1.000  C
  C25      1.0000 0.06580  0.59900  0.62640  Biso   1.000  C
  C26      1.0000 0.43420  0.59900  0.37360  Biso   1.000  C
  C27      1.0000 0.56580  0.09900  0.12640  Biso   1.000  C
  C28      1.0000 0.93420  0.09900  0.87360  Biso   1.000  C
  C29      1.0000 0.93420  0.40100  0.37360  Biso   1.000  C
  C30      1.0000 0.56580  0.40100  0.62640  Biso   1.000  C
  C31      1.0000 0.43420  0.90100  0.87360  Biso   1.000  C
  C32      1.0000 0.06580  0.90100  0.12640  Biso   1.000  C
  O73      1.0000 0.28010  0.01910  0.69330  Biso   1.000  O
  O74      1.0000 0.21990  0.01910  0.30670  Biso   1.000  O
  O75      1.0000 0.78010  0.51910  0.19330  Biso   1.000  O
  O76      1.0000 0.71990  0.51910  0.80670  Biso   1.000  O
  O77      1.0000 0.71990  0.98090  0.30670  Biso   1.000  O
  O78      1.0000 0.78010  0.98090  0.69330  Biso   1.000  O
  O79      1.0000 0.21990  0.48090  0.80670  Biso   1.000  O
  O80      1.0000 0.28010  0.48090  0.19330  Biso   1.000  O
  O81      1.0000 0.20260  0.90930  0.75390  Biso   1.000  O
  O82      1.0000 0.29740  0.90930  0.24610  Biso   1.000  O
  O83      1.0000 0.70260  0.40930  0.25390  Biso   1.000  O
  O84      1.0000 0.79740  0.40930  0.74610  Biso   1.000  O
  O85      1.0000 0.79740  0.09070  0.24610  Biso   1.000  O
  O86      1.0000 0.70260  0.09070  0.75390  Biso   1.000  O
  O87      1.0000 0.29740  0.59070  0.74610  Biso   1.000  O
  O88      1.0000 0.20260  0.59070  0.25390  Biso   1.000  O
  C33      1.0000 0.22310  0.00700  0.72590  Biso   1.000  C
  C34      1.0000 0.27690  0.00700  0.27410  Biso   1.000  C
  C35      1.0000 0.72310  0.50700  0.22590  Biso   1.000  C
  C36      1.0000 0.77690  0.50700  0.77410  Biso   1.000  C
  C37      1.0000 0.77690  0.99300  0.27410  Biso   1.000  C
  C38      1.0000 0.72310  0.99300  0.72590  Biso   1.000  C
  C39      1.0000 0.27690  0.49300  0.77410  Biso   1.000  C
  C40      1.0000 0.22310  0.49300  0.22590  Biso   1.000  C
  C41      1.0000 0.17750  0.11590  0.73200  Biso   1.000  C
  C42      1.0000 0.32250  0.11590  0.26800  Biso   1.000  C
  C43      1.0000 0.67750  0.61590  0.23200  Biso   1.000  C
  C44      1.0000 0.82250  0.61590  0.76800  Biso   1.000  C
  C45      1.0000 0.82250  0.88410  0.26800  Biso   1.000  C
  C46      1.0000 0.67750  0.88410  0.73200  Biso   1.000  C
  C47      1.0000 0.32250  0.38410  0.76800  Biso   1.000  C
  C48      1.0000 0.17750  0.38410  0.23200  Biso   1.000  C
  N1       1.0000 0.30540  0.44230  0.59010  Biso   1.000  N
  N2       1.0000 0.19460  0.44230  0.40990  Biso   1.000  N
  N3       1.0000 0.80540  0.94230  0.09010  Biso   1.000  N
  N4       1.0000 0.69460  0.94230  0.90990  Biso   1.000  N
  N5       1.0000 0.69460  0.55770  0.40990  Biso   1.000  N
  N6       1.0000 0.80540  0.55770  0.59010  Biso   1.000  N
  N7       1.0000 0.19460  0.05770  0.90990  Biso   1.000  N
  N8       1.0000 0.30540  0.05770  0.09010  Biso   1.000  N
  C49      1.0000 0.36880  0.38490  0.58150  Biso   1.000  C
  C50      1.0000 0.13120  0.38490  0.41850  Biso   1.000  C
  C51      1.0000 0.86880  0.88490  0.08150  Biso   1.000  C
  C52      1.0000 0.63120  0.88490  0.91850  Biso   1.000  C
  C53      1.0000 0.63120  0.61510  0.41850  Biso   1.000  C
  C54      1.0000 0.86880  0.61510  0.58150  Biso   1.000  C
  C55      1.0000 0.13120  0.11510  0.91850  Biso   1.000  C
  C56      1.0000 0.36880  0.11510  0.08150  Biso   1.000  C
  N9       1.0000 0.35810  0.26660  0.57620  Biso   1.000  N
  N10      1.0000 0.14190  0.26660  0.42380  Biso   1.000  N
  N11      1.0000 0.85810  0.76660  0.07620  Biso   1.000  N
  N12      1.0000 0.64190  0.76660  0.92380  Biso   1.000  N
  N13      1.0000 0.64190  0.73340  0.42380  Biso   1.000  N
  N14      1.0000 0.85810  0.73340  0.57620  Biso   1.000  N
  N15      1.0000 0.14190  0.23340  0.92380  Biso   1.000  N
  N16      1.0000 0.35810  0.23340  0.07620  Biso   1.000  N
  C57      1.0000 0.28790  0.24750  0.58110  Biso   1.000  C
  C58      1.0000 0.21210  0.24750  0.41890  Biso   1.000  C
  C59      1.0000 0.78790  0.74750  0.08110  Biso   1.000  C
  C60      1.0000 0.71210  0.74750  0.91890  Biso   1.000  C
  C61      1.0000 0.71210  0.75250  0.41890  Biso   1.000  C
  C62      1.0000 0.78790  0.75250  0.58110  Biso   1.000  C
  C63      1.0000 0.21210  0.25250  0.91890  Biso   1.000  C
  C64      1.0000 0.28790  0.25250  0.08110  Biso   1.000  C
  C65      1.0000 0.25730  0.35560  0.58860  Biso   1.000  C
  C66      1.0000 0.24270  0.35560  0.41140  Biso   1.000  C
  C67      1.0000 0.75730  0.85560  0.08860  Biso   1.000  C
  C68      1.0000 0.74270  0.85560  0.91140  Biso   1.000  C
  C69      1.0000 0.74270  0.64440  0.41140  Biso   1.000  C
  C70      1.0000 0.75730  0.64440  0.58860  Biso   1.000  C
  C71      1.0000 0.24270  0.14440  0.91140  Biso   1.000  C
  C72      1.0000 0.25730  0.14440  0.08860  Biso   1.000  C
  N17      1.0000 0.42580  0.02690  0.69170  Biso   1.000  N
  N18      1.0000 0.07420  0.02690  0.30830  Biso   1.000  N
  N19      1.0000 0.92580  0.52690  0.19170  Biso   1.000  N
  N20      1.0000 0.57420  0.52690  0.80830  Biso   1.000  N
  N21      1.0000 0.57420  0.97310  0.30830  Biso   1.000  N
  N22      1.0000 0.92580  0.97310  0.69170  Biso   1.000  N
  N23      1.0000 0.07420  0.47310  0.80830  Biso   1.000  N
  N24      1.0000 0.42580  0.47310  0.19170  Biso   1.000  N
  C73      1.0000 0.49100  0.03270  0.67050  Biso   1.000  C
  C74      1.0000 0.00900  0.03270  0.32950  Biso   1.000  C
  C75      1.0000 0.99100  0.53270  0.17050  Biso   1.000  C
  C76      1.0000 0.50900  0.53270  0.82950  Biso   1.000  C
  C77      1.0000 0.50900  0.96730  0.32950  Biso   1.000  C
  C78      1.0000 0.99100  0.96730  0.67050  Biso   1.000  C
  C79      1.0000 0.00900  0.46730  0.82950  Biso   1.000  C
  C80      1.0000 0.49100  0.46730  0.17050  Biso   1.000  C
  N25      1.0000 0.52590  0.12200  0.70280  Biso   1.000  N
  N26      1.0000 0.97410  0.12200  0.29720  Biso   1.000  N
  N27      1.0000 0.02590  0.62200  0.20280  Biso   1.000  N
  N28      1.0000 0.47410  0.62200  0.79720  Biso   1.000  N
  N29      1.0000 0.47410  0.87800  0.29720  Biso   1.000  N
  N30      1.0000 0.02590  0.87800  0.70280  Biso   1.000  N
  N31      1.0000 0.97410  0.37800  0.79720  Biso   1.000  N
  N32      1.0000 0.52590  0.37800  0.20280  Biso   1.000  N
  C81      1.0000 0.48050  0.18030  0.74460  Biso   1.000  C
  C82      1.0000 0.01950  0.18030  0.25540  Biso   1.000  C
  C83      1.0000 0.98050  0.68030  0.24460  Biso   1.000  C
  C84      1.0000 0.51950  0.68030  0.75540  Biso   1.000  C
  C85      1.0000 0.51950  0.81970  0.25540  Biso   1.000  C
  C86      1.0000 0.98050  0.81970  0.74460  Biso   1.000  C
  C87      1.0000 0.01950  0.31970  0.75540  Biso   1.000  C
  C88      1.0000 0.48050  0.31970  0.24460  Biso   1.000  C
  C89      1.0000 0.41820  0.12120  0.73790  Biso   1.000  C
  C90      1.0000 0.08180  0.12120  0.26210  Biso   1.000  C
  C91      1.0000 0.91820  0.62120  0.23790  Biso   1.000  C
  C92      1.0000 0.58180  0.62120  0.76210  Biso   1.000  C
  C93      1.0000 0.58180  0.87880  0.26210  Biso   1.000  C
  C94      1.0000 0.91820  0.87880  0.73790  Biso   1.000  C
  C95      1.0000 0.08180  0.37880  0.76210  Biso   1.000  C
  C96      1.0000 0.41820  0.37880  0.23790  Biso   1.000  C
  O89      1.0000 0.25000  0.69740  0.50000  Biso   1.000  O
  O90      1.0000 0.75000  0.19740  0.00000  Biso   1.000  O
  O91      1.0000 0.75000  0.30260  0.50000  Biso   1.000  O
  O92      1.0000 0.25000  0.80260  0.00000  Biso   1.000  O
  H1       1.0000 0.24140  0.82010  0.62920  Biso   1.000  H
  H2       1.0000 0.25860  0.82010  0.37080  Biso   1.000  H
  H3       1.0000 0.74140  0.32010  0.12920  Biso   1.000  H
  H4       1.0000 0.75860  0.32010  0.87080  Biso   1.000  H
  H5       1.0000 0.75860  0.17990  0.37080  Biso   1.000  H
  H6       1.0000 0.74140  0.17990  0.62920  Biso   1.000  H
  H7       1.0000 0.25860  0.67990  0.87080  Biso   1.000  H
  H8       1.0000 0.24140  0.67990  0.12920  Biso   1.000  H
  H9       1.0000 0.53960  0.72360  0.58440  Biso   1.000  H
  H10      1.0000 0.96040  0.72360  0.41560  Biso   1.000  H
  H11      1.0000 0.03960  0.22360  0.08440  Biso   1.000  H
  H12      1.0000 0.46040  0.22360  0.91560  Biso   1.000  H
  H13      1.0000 0.46040  0.27640  0.41560  Biso   1.000  H
  H14      1.0000 0.03960  0.27640  0.58440  Biso   1.000  H
  H15      1.0000 0.96040  0.77640  0.91560  Biso   1.000  H
  H16      1.0000 0.53960  0.77640  0.08440  Biso   1.000  H
  H17      1.0000 0.50650  0.63880  0.52440  Biso   1.000  H
  H18      1.0000 0.99350  0.63880  0.47560  Biso   1.000  H
  H19      1.0000 0.00650  0.13880  0.02440  Biso   1.000  H
  H20      1.0000 0.49350  0.13880  0.97560  Biso   1.000  H
  H21      1.0000 0.49350  0.36120  0.47560  Biso   1.000  H
  H22      1.0000 0.00650  0.36120  0.52440  Biso   1.000  H
  H23      1.0000 0.99350  0.86120  0.97560  Biso   1.000  H
  H24      1.0000 0.50650  0.86120  0.02440  Biso   1.000  H
  H25      1.0000 0.50450  0.77310  0.51430  Biso   1.000  H
  H26      1.0000 0.99550  0.77310  0.48570  Biso   1.000  H
  H27      1.0000 0.00450  0.27310  0.01430  Biso   1.000  H
  H28      1.0000 0.49550  0.27310  0.98570  Biso   1.000  H
  H29      1.0000 0.49550  0.22690  0.48570  Biso   1.000  H
  H30      1.0000 0.00450  0.22690  0.51430  Biso   1.000  H
  H31      1.0000 0.99550  0.72690  0.98570  Biso   1.000  H
  H32      1.0000 0.50450  0.72690  0.01430  Biso   1.000  H
  H33      1.0000 0.02870  0.56260  0.66460  Biso   1.000  H
  H34      1.0000 0.47130  0.56260  0.33540  Biso   1.000  H
  H35      1.0000 0.52870  0.06260  0.16460  Biso   1.000  H
  H36      1.0000 0.97130  0.06260  0.83540  Biso   1.000  H
  H37      1.0000 0.97130  0.43740  0.33540  Biso   1.000  H
  H38      1.0000 0.52870  0.43740  0.66460  Biso   1.000  H
  H39      1.0000 0.47130  0.93740  0.83540  Biso   1.000  H
  H40      1.0000 0.02870  0.93740  0.16460  Biso   1.000  H
  H41      1.0000 0.06630  0.54480  0.59380  Biso   1.000  H
  H42      1.0000 0.43370  0.54480  0.40620  Biso   1.000  H
  H43      1.0000 0.56630  0.04480  0.09380  Biso   1.000  H
  H44      1.0000 0.93370  0.04480  0.90620  Biso   1.000  H
  H45      1.0000 0.93370  0.45520  0.40620  Biso   1.000  H
  H46      1.0000 0.56630  0.45520  0.59380  Biso   1.000  H
  H47      1.0000 0.43370  0.95520  0.90620  Biso   1.000  H
  H48      1.0000 0.06630  0.95520  0.09380  Biso   1.000  H
  H49      1.0000 0.03290  0.66850  0.62040  Biso   1.000  H
  H50      1.0000 0.46710  0.66850  0.37960  Biso   1.000  H
  H51      1.0000 0.53290  0.16850  0.12040  Biso   1.000  H
  H52      1.0000 0.96710  0.16850  0.87960  Biso   1.000  H
  H53      1.0000 0.96710  0.33150  0.37960  Biso   1.000  H
  H54      1.0000 0.53290  0.33150  0.62040  Biso   1.000  H
  H55      1.0000 0.46710  0.83150  0.87960  Biso   1.000  H
  H56      1.0000 0.03290  0.83150  0.12040  Biso   1.000  H
  H57      1.0000 0.13940  0.10810  0.75310  Biso   1.000  H
  H58      1.0000 0.36060  0.10810  0.24690  Biso   1.000  H
  H59      1.0000 0.63940  0.60810  0.25310  Biso   1.000  H
  H60      1.0000 0.86060  0.60810  0.74690  Biso   1.000  H
  H61      1.0000 0.86060  0.89190  0.24690  Biso   1.000  H
  H62      1.0000 0.63940  0.89190  0.75310  Biso   1.000  H
  H63      1.0000 0.36060  0.39190  0.74690  Biso   1.000  H
  H64      1.0000 0.13940  0.39190  0.25310  Biso   1.000  H
  H65      1.0000 0.17040  0.15950  0.68410  Biso   1.000  H
  H66      1.0000 0.32960  0.15950  0.31590  Biso   1.000  H
  H67      1.0000 0.67040  0.65950  0.18410  Biso   1.000  H
  H68      1.0000 0.82960  0.65950  0.81590  Biso   1.000  H
  H69      1.0000 0.82960  0.84050  0.31590  Biso   1.000  H
  H70      1.0000 0.67040  0.84050  0.68410  Biso   1.000  H
  H71      1.0000 0.32960  0.34050  0.81590  Biso   1.000  H
  H72      1.0000 0.17040  0.34050  0.18410  Biso   1.000  H
  H73      1.0000 0.20070  0.17830  0.76430  Biso   1.000  H
  H74      1.0000 0.29930  0.17830  0.23570  Biso   1.000  H
  H75      1.0000 0.70070  0.67830  0.26430  Biso   1.000  H
  H76      1.0000 0.79930  0.67830  0.73570  Biso   1.000  H
  H77      1.0000 0.79930  0.82170  0.23570  Biso   1.000  H
  H78      1.0000 0.70070  0.82170  0.76430  Biso   1.000  H
  H79      1.0000 0.29930  0.32170  0.73570  Biso   1.000  H
  H80      1.0000 0.20070  0.32170  0.26430  Biso   1.000  H
  H81      1.0000 0.41540  0.43200  0.58620  Biso   1.000  H
  H82      1.0000 0.08460  0.43200  0.41380  Biso   1.000  H
  H83      1.0000 0.91540  0.93200  0.08620  Biso   1.000  H
  H84      1.0000 0.58460  0.93200  0.91380  Biso   1.000  H
  H85      1.0000 0.58460  0.56800  0.41380  Biso   1.000  H
  H86      1.0000 0.91540  0.56800  0.58620  Biso   1.000  H
  H87      1.0000 0.08460  0.06800  0.91380  Biso   1.000  H
  H88      1.0000 0.41540  0.06800  0.08620  Biso   1.000  H
  H89      1.0000 0.39390  0.20460  0.57190  Biso   1.000  H
  H90      1.0000 0.10610  0.20460  0.42810  Biso   1.000  H
  H91      1.0000 0.89390  0.70460  0.07190  Biso   1.000  H
  H92      1.0000 0.60610  0.70460  0.92810  Biso   1.000  H
  H93      1.0000 0.60610  0.79540  0.42810  Biso   1.000  H
  H94      1.0000 0.89390  0.79540  0.57190  Biso   1.000  H
  H95      1.0000 0.10610  0.29540  0.92810  Biso   1.000  H
  H96      1.0000 0.39390  0.29540  0.07190  Biso   1.000  H
  H97      1.0000 0.20240  0.37550  0.58950  Biso   1.000  H
  H98      1.0000 0.29760  0.37550  0.41050  Biso   1.000  H
  H99      1.0000 0.70240  0.87550  0.08950  Biso   1.000  H
  H100     1.0000 0.79760  0.87550  0.91050  Biso   1.000  H
  H101     1.0000 0.79760  0.62450  0.41050  Biso   1.000  H
  H102     1.0000 0.70240  0.62450  0.58950  Biso   1.000  H
  H103     1.0000 0.29760  0.12450  0.91050  Biso   1.000  H
  H104     1.0000 0.20240  0.12450  0.08950  Biso   1.000  H
  H105     1.0000 0.24280  0.17310  0.57600  Biso   1.000  H
  H106     1.0000 0.25720  0.17310  0.42400  Biso   1.000  H
  H107     1.0000 0.74280  0.67310  0.07600  Biso   1.000  H
  H108     1.0000 0.75720  0.67310  0.92400  Biso   1.000  H
  H109     1.0000 0.75720  0.82690  0.42400  Biso   1.000  H
  H110     1.0000 0.74280  0.82690  0.57600  Biso   1.000  H
  H111     1.0000 0.25720  0.32690  0.92400  Biso   1.000  H
  H112     1.0000 0.24280  0.32690  0.07600  Biso   1.000  H
  H113     1.0000 0.51570  0.96210  0.63660  Biso   1.000  H
  H114     1.0000 0.98430  0.96210  0.36340  Biso   1.000  H
  H115     1.0000 0.01570  0.46210  0.13660  Biso   1.000  H
  H116     1.0000 0.48430  0.46210  0.86340  Biso   1.000  H
  H117     1.0000 0.48430  0.03790  0.36340  Biso   1.000  H
  H118     1.0000 0.01570  0.03790  0.63660  Biso   1.000  H
  H119     1.0000 0.98430  0.53790  0.86340  Biso   1.000  H
  H120     1.0000 0.51570  0.53790  0.13660  Biso   1.000  H
  H121     1.0000 0.57600  0.14470  0.70740  Biso   1.000  H
  H122     1.0000 0.92400  0.14470  0.29260  Biso   1.000  H
  H123     1.0000 0.07600  0.64470  0.20740  Biso   1.000  H
  H124     1.0000 0.42400  0.64470  0.79260  Biso   1.000  H
  H125     1.0000 0.42400  0.85530  0.29260  Biso   1.000  H
  H126     1.0000 0.07600  0.85530  0.70740  Biso   1.000  H
  H127     1.0000 0.92400  0.35530  0.79260  Biso   1.000  H
  H128     1.0000 0.57600  0.35530  0.20740  Biso   1.000  H
  H129     1.0000 0.36910  0.13600  0.75690  Biso   1.000  H
  H130     1.0000 0.13090  0.13600  0.24310  Biso   1.000  H
  H131     1.0000 0.86910  0.63600  0.25690  Biso   1.000  H
  H132     1.0000 0.63090  0.63600  0.74310  Biso   1.000  H
  H133     1.0000 0.63090  0.86400  0.24310  Biso   1.000  H
  H134     1.0000 0.86910  0.86400  0.75690  Biso   1.000  H
  H135     1.0000 0.13090  0.36400  0.74310  Biso   1.000  H
  H136     1.0000 0.36910  0.36400  0.25690  Biso   1.000  H
  H137     1.0000 0.49770  0.24570  0.77820  Biso   1.000  H
  H138     1.0000 0.00230  0.24570  0.22180  Biso   1.000  H
  H139     1.0000 0.99770  0.74570  0.27820  Biso   1.000  H
  H140     1.0000 0.50230  0.74570  0.72180  Biso   1.000  H
  H141     1.0000 0.50230  0.75430  0.22180  Biso   1.000  H
  H142     1.0000 0.99770  0.75430  0.77820  Biso   1.000  H
  H143     1.0000 0.00230  0.25430  0.72180  Biso   1.000  H
  H144     1.0000 0.49770  0.25430  0.27820  Biso   1.000  H
  H145     1.0000 0.28780  0.72290  0.48300  Biso   1.000  H
  H146     1.0000 0.21220  0.72290  0.51700  Biso   1.000  H
  H147     1.0000 0.78780  0.22290  0.98300  Biso   1.000  H
  H148     1.0000 0.71220  0.22290  0.01700  Biso   1.000  H
  H149     1.0000 0.71220  0.27710  0.51700  Biso   1.000  H
  H150     1.0000 0.78780  0.27710  0.48300  Biso   1.000  H
  H151     1.0000 0.21220  0.77710  0.01700  Biso   1.000  H
  H152     1.0000 0.28780  0.77710  0.98300  Biso   1.000  H
