data_image0
_cell_length_a       26.889
_cell_length_b       11.077
_cell_length_c       18.936
_cell_angle_alpha    90
_cell_angle_beta     134.07
_cell_angle_gamma    90

_symmetry_space_group_name_H-M    "P 1"
_symmetry_int_tables_number       1

loop_
  _symmetry_equiv_pos_as_xyz
  'x, y, z'

loop_
  _atom_site_label
  _atom_site_occupancy
  _atom_site_fract_x
  _atom_site_fract_y
  _atom_site_fract_z
  _atom_site_thermal_displace_type
  _atom_site_B_iso_or_equiv
  _atom_site_type_symbol
  Cu1      1.0000 0.61030  0.61650  0.32020  Biso   1.000  Cu
  Cu2      1.0000 0.11030  0.11650  0.32020  Biso   1.000  Cu
  Cu3      1.0000 0.38970  0.61650  0.17980  Biso   1.000  Cu
  Cu4      1.0000 0.88970  0.11650  0.17980  Biso   1.000  Cu
  Cu5      1.0000 0.38970  0.38350  0.67980  Biso   1.000  Cu
  Cu6      1.0000 0.88970  0.88350  0.67980  Biso   1.000  Cu
  Cu7      1.0000 0.61030  0.38350  0.82020  Biso   1.000  Cu
  Cu8      1.0000 0.11030  0.88350  0.82020  Biso   1.000  Cu
  Cu9      1.0000 0.75000  0.75000  0.50000  Biso   1.000  Cu
  Cu10     1.0000 0.25000  0.25000  0.50000  Biso   1.000  Cu
  Cu11     1.0000 0.25000  0.75000  0.00000  Biso   1.000  Cu
  Cu12     1.0000 0.75000  0.25000  0.00000  Biso   1.000  Cu
  Cu13     1.0000 0.66920  0.90310  0.31530  Biso   1.000  Cu
  Cu14     1.0000 0.16920  0.40310  0.31530  Biso   1.000  Cu
  Cu15     1.0000 0.33080  0.90310  0.18470  Biso   1.000  Cu
  Cu16     1.0000 0.83080  0.40310  0.18470  Biso   1.000  Cu
  Cu17     1.0000 0.33080  0.09690  0.68470  Biso   1.000  Cu
  Cu18     1.0000 0.83080  0.59690  0.68470  Biso   1.000  Cu
  Cu19     1.0000 0.66920  0.09690  0.81530  Biso   1.000  Cu
  Cu20     1.0000 0.16920  0.59690  0.81530  Biso   1.000  Cu
  O1       1.0000 0.65160  0.77930  0.37050  Biso   1.000  O
  O2       1.0000 0.15160  0.27930  0.37050  Biso   1.000  O
  O3       1.0000 0.34840  0.77930  0.12950  Biso   1.000  O
  O4       1.0000 0.84840  0.27930  0.12950  Biso   1.000  O
  O5       1.0000 0.34840  0.22070  0.62950  Biso   1.000  O
  O6       1.0000 0.84840  0.72070  0.62950  Biso   1.000  O
  O7       1.0000 0.65160  0.22070  0.87050  Biso   1.000  O
  O8       1.0000 0.15160  0.72070  0.87050  Biso   1.000  O
  O9       1.0000 0.63350  0.80750  0.20360  Biso   1.000  O
  O10      1.0000 0.13350  0.30750  0.20360  Biso   1.000  O
  O11      1.0000 0.36650  0.80750  0.29640  Biso   1.000  O
  O12      1.0000 0.86650  0.30750  0.29640  Biso   1.000  O
  O13      1.0000 0.36650  0.19250  0.79640  Biso   1.000  O
  O14      1.0000 0.86650  0.69250  0.79640  Biso   1.000  O
  O15      1.0000 0.63350  0.19250  0.70360  Biso   1.000  O
  O16      1.0000 0.13350  0.69250  0.70360  Biso   1.000  O
  O17      1.0000 0.57810  0.64540  0.19200  Biso   1.000  O
  O18      1.0000 0.07810  0.14540  0.19200  Biso   1.000  O
  O19      1.0000 0.42190  0.64540  0.30800  Biso   1.000  O
  O20      1.0000 0.92190  0.14540  0.30800  Biso   1.000  O
  O21      1.0000 0.42190  0.35460  0.80800  Biso   1.000  O
  O22      1.0000 0.92190  0.85460  0.80800  Biso   1.000  O
  O23      1.0000 0.57810  0.35460  0.69200  Biso   1.000  O
  O24      1.0000 0.07810  0.85460  0.69200  Biso   1.000  O
  C1       1.0000 0.59110  0.72130  0.15710  Biso   1.000  C
  C2       1.0000 0.09110  0.22130  0.15710  Biso   1.000  C
  C3       1.0000 0.40890  0.72130  0.34290  Biso   1.000  C
  C4       1.0000 0.90890  0.22130  0.34290  Biso   1.000  C
  C5       1.0000 0.40890  0.27870  0.84290  Biso   1.000  C
  C6       1.0000 0.90890  0.77870  0.84290  Biso   1.000  C
  C7       1.0000 0.59110  0.27870  0.65710  Biso   1.000  C
  C8       1.0000 0.09110  0.77870  0.65710  Biso   1.000  C
  C9       1.0000 0.55200  0.70920  0.05020  Biso   1.000  C
  C10      1.0000 0.05200  0.20920  0.05020  Biso   1.000  C
  C11      1.0000 0.44800  0.70920  0.44980  Biso   1.000  C
  C12      1.0000 0.94800  0.20920  0.44980  Biso   1.000  C
  C13      1.0000 0.44800  0.29080  0.94980  Biso   1.000  C
  C14      1.0000 0.94800  0.79080  0.94980  Biso   1.000  C
  C15      1.0000 0.55200  0.29080  0.55020  Biso   1.000  C
  C16      1.0000 0.05200  0.79080  0.55020  Biso   1.000  C
  O25      1.0000 0.74600  0.59090  0.44890  Biso   1.000  O
  O26      1.0000 0.24600  0.09090  0.44890  Biso   1.000  O
  O27      1.0000 0.25400  0.59090  0.05110  Biso   1.000  O
  O28      1.0000 0.75400  0.09090  0.05110  Biso   1.000  O
  O29      1.0000 0.25400  0.40910  0.55110  Biso   1.000  O
  O30      1.0000 0.75400  0.90910  0.55110  Biso   1.000  O
  O31      1.0000 0.74600  0.40910  0.94890  Biso   1.000  O
  O32      1.0000 0.24600  0.90910  0.94890  Biso   1.000  O
  O33      1.0000 0.69360  0.01910  0.41340  Biso   1.000  O
  O34      1.0000 0.19360  0.51910  0.41340  Biso   1.000  O
  O35      1.0000 0.30640  0.01910  0.08660  Biso   1.000  O
  O36      1.0000 0.80640  0.51910  0.08660  Biso   1.000  O
  O37      1.0000 0.30640  0.98090  0.58660  Biso   1.000  O
  O38      1.0000 0.80640  0.48090  0.58660  Biso   1.000  O
  O39      1.0000 0.69360  0.98090  0.91340  Biso   1.000  O
  O40      1.0000 0.19360  0.48090  0.91340  Biso   1.000  O
  C17      1.0000 0.77370  0.49440  0.49730  Biso   1.000  C
  C18      1.0000 0.27370  0.99440  0.49730  Biso   1.000  C
  C19      1.0000 0.22630  0.49440  0.00270  Biso   1.000  C
  C20      1.0000 0.72630  0.99440  0.00270  Biso   1.000  C
  C21      1.0000 0.22630  0.50560  0.50270  Biso   1.000  C
  C22      1.0000 0.72630  0.00560  0.50270  Biso   1.000  C
  C23      1.0000 0.77370  0.50560  0.99730  Biso   1.000  C
  C24      1.0000 0.27370  0.00560  0.99730  Biso   1.000  C
  C25      1.0000 0.76770  0.38250  0.44460  Biso   1.000  C
  C26      1.0000 0.26770  0.88250  0.44460  Biso   1.000  C
  C27      1.0000 0.23230  0.38250  0.05540  Biso   1.000  C
  C28      1.0000 0.73230  0.88250  0.05540  Biso   1.000  C
  C29      1.0000 0.23230  0.61750  0.55540  Biso   1.000  C
  C30      1.0000 0.73230  0.11750  0.55540  Biso   1.000  C
  C31      1.0000 0.76770  0.61750  0.94460  Biso   1.000  C
  C32      1.0000 0.26770  0.11750  0.94460  Biso   1.000  C
  O41      1.0000 0.62120  0.58160  0.43210  Biso   1.000  O
  O42      1.0000 0.12120  0.08160  0.43210  Biso   1.000  O
  O43      1.0000 0.37880  0.58160  0.06790  Biso   1.000  O
  O44      1.0000 0.87880  0.08160  0.06790  Biso   1.000  O
  O45      1.0000 0.37880  0.41840  0.56790  Biso   1.000  O
  O46      1.0000 0.87880  0.91840  0.56790  Biso   1.000  O
  O47      1.0000 0.62120  0.41840  0.93210  Biso   1.000  O
  O48      1.0000 0.12120  0.91840  0.93210  Biso   1.000  O
  O49      1.0000 0.78970  0.81630  0.43340  Biso   1.000  O
  O50      1.0000 0.28970  0.31630  0.43340  Biso   1.000  O
  O51      1.0000 0.21030  0.81630  0.06660  Biso   1.000  O
  O52      1.0000 0.71030  0.31630  0.06660  Biso   1.000  O
  O53      1.0000 0.21030  0.18370  0.56660  Biso   1.000  O
  O54      1.0000 0.71030  0.68370  0.56660  Biso   1.000  O
  O55      1.0000 0.78970  0.18370  0.93340  Biso   1.000  O
  O56      1.0000 0.28970  0.68370  0.93340  Biso   1.000  O
  C33      1.0000 0.65520  0.62360  0.51670  Biso   1.000  C
  C34      1.0000 0.15520  0.12360  0.51670  Biso   1.000  C
  C35      1.0000 0.34480  0.62360  0.98330  Biso   1.000  C
  C36      1.0000 0.84480  0.12360  0.98330  Biso   1.000  C
  C37      1.0000 0.34480  0.37640  0.48330  Biso   1.000  C
  C38      1.0000 0.84480  0.87640  0.48330  Biso   1.000  C
  C39      1.0000 0.65520  0.37640  0.01670  Biso   1.000  C
  C40      1.0000 0.15520  0.87640  0.01670  Biso   1.000  C
  C41      1.0000 0.62600  0.59810  0.56100  Biso   1.000  C
  C42      1.0000 0.12600  0.09810  0.56100  Biso   1.000  C
  C43      1.0000 0.37400  0.59810  0.93900  Biso   1.000  C
  C44      1.0000 0.87400  0.09810  0.93900  Biso   1.000  C
  C45      1.0000 0.37400  0.40190  0.43900  Biso   1.000  C
  C46      1.0000 0.87400  0.90190  0.43900  Biso   1.000  C
  C47      1.0000 0.62600  0.40190  0.06100  Biso   1.000  C
  C48      1.0000 0.12600  0.90190  0.06100  Biso   1.000  C
  O57      1.0000 0.50000  0.69730  0.25000  Biso   1.000  O
  O58      1.0000 0.00000  0.19730  0.25000  Biso   1.000  O
  O59      1.0000 0.50000  0.30270  0.75000  Biso   1.000  O
  O60      1.0000 0.00000  0.80270  0.75000  Biso   1.000  O
  N1       1.0000 0.59040  0.44270  0.28550  Biso   1.000  N
  N2       1.0000 0.09040  0.94270  0.28550  Biso   1.000  N
  N3       1.0000 0.40960  0.44270  0.21450  Biso   1.000  N
  N4       1.0000 0.90960  0.94270  0.21450  Biso   1.000  N
  N5       1.0000 0.40960  0.55730  0.71450  Biso   1.000  N
  N6       1.0000 0.90960  0.05730  0.71450  Biso   1.000  N
  N7       1.0000 0.59040  0.55730  0.78550  Biso   1.000  N
  N8       1.0000 0.09040  0.05730  0.78550  Biso   1.000  N
  C49      1.0000 0.58930  0.35620  0.33240  Biso   1.000  C
  C50      1.0000 0.08930  0.85620  0.33240  Biso   1.000  C
  C51      1.0000 0.41070  0.35620  0.16760  Biso   1.000  C
  C52      1.0000 0.91070  0.85620  0.16760  Biso   1.000  C
  C53      1.0000 0.41070  0.64380  0.66760  Biso   1.000  C
  C54      1.0000 0.91070  0.14380  0.66760  Biso   1.000  C
  C55      1.0000 0.58930  0.64380  0.83240  Biso   1.000  C
  C56      1.0000 0.08930  0.14380  0.83240  Biso   1.000  C
  N9       1.0000 0.58090  0.24770  0.29320  Biso   1.000  N
  N10      1.0000 0.08090  0.74770  0.29320  Biso   1.000  N
  N11      1.0000 0.41910  0.24770  0.20680  Biso   1.000  N
  N12      1.0000 0.91910  0.74770  0.20680  Biso   1.000  N
  N13      1.0000 0.41910  0.75230  0.70680  Biso   1.000  N
  N14      1.0000 0.91910  0.25230  0.70680  Biso   1.000  N
  N15      1.0000 0.58090  0.75230  0.79320  Biso   1.000  N
  N16      1.0000 0.08090  0.25230  0.79320  Biso   1.000  N
  C57      1.0000 0.57580  0.26660  0.21720  Biso   1.000  C
  C58      1.0000 0.07580  0.76660  0.21720  Biso   1.000  C
  C59      1.0000 0.42420  0.26660  0.28280  Biso   1.000  C
  C60      1.0000 0.92420  0.76660  0.28280  Biso   1.000  C
  C61      1.0000 0.42420  0.73340  0.78280  Biso   1.000  C
  C62      1.0000 0.92420  0.23340  0.78280  Biso   1.000  C
  C63      1.0000 0.57580  0.73340  0.71720  Biso   1.000  C
  C64      1.0000 0.07580  0.23340  0.71720  Biso   1.000  C
  C65      1.0000 0.58220  0.38460  0.21260  Biso   1.000  C
  C66      1.0000 0.08220  0.88460  0.21260  Biso   1.000  C
  C67      1.0000 0.41780  0.38460  0.28740  Biso   1.000  C
  C68      1.0000 0.91780  0.88460  0.28740  Biso   1.000  C
  C69      1.0000 0.41780  0.61540  0.78740  Biso   1.000  C
  C70      1.0000 0.91780  0.11540  0.78740  Biso   1.000  C
  C71      1.0000 0.58220  0.61540  0.71260  Biso   1.000  C
  C72      1.0000 0.08220  0.11540  0.71260  Biso   1.000  C
  N17      1.0000 0.69200  0.02590  0.26610  Biso   1.000  N
  N18      1.0000 0.19200  0.52590  0.26610  Biso   1.000  N
  N19      1.0000 0.30800  0.02590  0.23390  Biso   1.000  N
  N20      1.0000 0.80800  0.52590  0.23390  Biso   1.000  N
  N21      1.0000 0.30800  0.97410  0.73390  Biso   1.000  N
  N22      1.0000 0.80800  0.47410  0.73390  Biso   1.000  N
  N23      1.0000 0.69200  0.97410  0.76610  Biso   1.000  N
  N24      1.0000 0.19200  0.47410  0.76610  Biso   1.000  N
  C73      1.0000 0.67120  0.03040  0.17890  Biso   1.000  C
  C74      1.0000 0.17120  0.53040  0.17890  Biso   1.000  C
  C75      1.0000 0.32880  0.03040  0.32110  Biso   1.000  C
  C76      1.0000 0.82880  0.53040  0.32110  Biso   1.000  C
  C77      1.0000 0.32880  0.96960  0.82110  Biso   1.000  C
  C78      1.0000 0.82880  0.46960  0.82110  Biso   1.000  C
  C79      1.0000 0.67120  0.96960  0.67890  Biso   1.000  C
  C80      1.0000 0.17120  0.46960  0.67890  Biso   1.000  C
  N25      1.0000 0.70380  0.12380  0.17800  Biso   1.000  N
  N26      1.0000 0.20380  0.62380  0.17800  Biso   1.000  N
  N27      1.0000 0.29620  0.12380  0.32200  Biso   1.000  N
  N28      1.0000 0.79620  0.62380  0.32200  Biso   1.000  N
  N29      1.0000 0.29620  0.87620  0.82200  Biso   1.000  N
  N30      1.0000 0.79620  0.37620  0.82200  Biso   1.000  N
  N31      1.0000 0.70380  0.87620  0.67800  Biso   1.000  N
  N32      1.0000 0.20380  0.37620  0.67800  Biso   1.000  N
  C81      1.0000 0.74480  0.17900  0.26360  Biso   1.000  C
  C82      1.0000 0.24480  0.67900  0.26360  Biso   1.000  C
  C83      1.0000 0.25520  0.17900  0.23640  Biso   1.000  C
  C84      1.0000 0.75520  0.67900  0.23640  Biso   1.000  C
  C85      1.0000 0.25520  0.82100  0.73640  Biso   1.000  C
  C86      1.0000 0.75520  0.32100  0.73640  Biso   1.000  C
  C87      1.0000 0.74480  0.82100  0.76360  Biso   1.000  C
  C88      1.0000 0.24480  0.32100  0.76360  Biso   1.000  C
  C89      1.0000 0.73870  0.12140  0.32100  Biso   1.000  C
  C90      1.0000 0.23870  0.62140  0.32100  Biso   1.000  C
  C91      1.0000 0.26130  0.12140  0.17900  Biso   1.000  C
  C92      1.0000 0.76130  0.62140  0.17900  Biso   1.000  C
  C93      1.0000 0.26130  0.87860  0.67900  Biso   1.000  C
  C94      1.0000 0.76130  0.37860  0.67900  Biso   1.000  C
  C95      1.0000 0.73870  0.87860  0.82100  Biso   1.000  C
  C96      1.0000 0.23870  0.37860  0.82100  Biso   1.000  C
  Cl1      1.0000 0.46940  0.02460  0.61110  Biso   1.000  Cl
  Cl2      1.0000 0.96940  0.52460  0.61110  Biso   1.000  Cl
  Cl3      1.0000 0.53060  0.02460  0.88890  Biso   1.000  Cl
  Cl4      1.0000 0.03060  0.52460  0.88890  Biso   1.000  Cl
  Cl5      1.0000 0.53060  0.97540  0.38890  Biso   1.000  Cl
  Cl6      1.0000 0.03060  0.47540  0.38890  Biso   1.000  Cl
  Cl7      1.0000 0.46940  0.97540  0.11110  Biso   1.000  Cl
  Cl8      1.0000 0.96940  0.47540  0.11110  Biso   1.000  Cl
  O61      1.0000 0.42670  0.12570  0.58600  Biso   1.000  O
  O62      1.0000 0.92670  0.62570  0.58600  Biso   1.000  O
  O63      1.0000 0.57330  0.12570  0.91400  Biso   1.000  O
  O64      1.0000 0.07330  0.62570  0.91400  Biso   1.000  O
  O65      1.0000 0.57330  0.87430  0.41400  Biso   1.000  O
  O66      1.0000 0.07330  0.37430  0.41400  Biso   1.000  O
  O67      1.0000 0.42670  0.87430  0.08600  Biso   1.000  O
  O68      1.0000 0.92670  0.37430  0.08600  Biso   1.000  O
  O69      1.0000 0.53500  0.03810  0.71150  Biso   1.000  O
  O70      1.0000 0.03500  0.53810  0.71150  Biso   1.000  O
  O71      1.0000 0.46500  0.03810  0.78850  Biso   1.000  O
  O72      1.0000 0.96500  0.53810  0.78850  Biso   1.000  O
  O73      1.0000 0.46500  0.96190  0.28850  Biso   1.000  O
  O74      1.0000 0.96500  0.46190  0.28850  Biso   1.000  O
  O75      1.0000 0.53500  0.96190  0.21150  Biso   1.000  O
  O76      1.0000 0.03500  0.46190  0.21150  Biso   1.000  O
  O77      1.0000 0.43740  0.91810  0.60510  Biso   1.000  O
  O78      1.0000 0.93740  0.41810  0.60510  Biso   1.000  O
  O79      1.0000 0.56260  0.91810  0.89490  Biso   1.000  O
  O80      1.0000 0.06260  0.41810  0.89490  Biso   1.000  O
  O81      1.0000 0.56260  0.08190  0.39490  Biso   1.000  O
  O82      1.0000 0.06260  0.58190  0.39490  Biso   1.000  O
  O83      1.0000 0.43740  0.08190  0.10510  Biso   1.000  O
  O84      1.0000 0.93740  0.58190  0.10510  Biso   1.000  O
  O85      1.0000 0.47970  0.01520  0.54740  Biso   1.000  O
  O86      1.0000 0.97970  0.51520  0.54740  Biso   1.000  O
  O87      1.0000 0.52030  0.01520  0.95260  Biso   1.000  O
  O88      1.0000 0.02030  0.51520  0.95260  Biso   1.000  O
  O89      1.0000 0.52030  0.98480  0.45260  Biso   1.000  O
  O90      1.0000 0.02030  0.48480  0.45260  Biso   1.000  O
  O91      1.0000 0.47970  0.98480  0.04740  Biso   1.000  O
  O92      1.0000 0.97970  0.48480  0.04740  Biso   1.000  O
