data_image0
_cell_length_a       7.2444
_cell_length_b       16.089
_cell_length_c       18.276
_cell_angle_alpha    90
_cell_angle_beta     98.85
_cell_angle_gamma    90

_symmetry_space_group_name_H-M    "P 1"
_symmetry_int_tables_number       1

loop_
  _symmetry_equiv_pos_as_xyz
  'x, y, z'

loop_
  _atom_site_label
  _atom_site_occupancy
  _atom_site_fract_x
  _atom_site_fract_y
  _atom_site_fract_z
  _atom_site_thermal_displace_type
  _atom_site_B_iso_or_equiv
  _atom_site_type_symbol
  Cu1      1.0000 0.70968  0.36052  0.82720  Biso   1.000  Cu
  Cu2      1.0000 0.70968  0.13948  0.32720  Biso   1.000  Cu
  Cu3      1.0000 0.29032  0.63948  0.17280  Biso   1.000  Cu
  Cu4      1.0000 0.29032  0.86052  0.67280  Biso   1.000  Cu
  N1       1.0000 0.76380  0.48258  0.83549  Biso   1.000  N
  N2       1.0000 0.76380  0.01742  0.33549  Biso   1.000  N
  N3       1.0000 0.23620  0.51742  0.16451  Biso   1.000  N
  N4       1.0000 0.23620  0.98258  0.66451  Biso   1.000  N
  N5       1.0000 0.72330  0.37280  0.93875  Biso   1.000  N
  N6       1.0000 0.72330  0.12720  0.43875  Biso   1.000  N
  N7       1.0000 0.27670  0.62720  0.06125  Biso   1.000  N
  N8       1.0000 0.27670  0.87280  0.56125  Biso   1.000  N
  O1       1.0000 0.58978  0.37151  0.72349  Biso   1.000  O
  O2       1.0000 0.58978  0.12849  0.22349  Biso   1.000  O
  O3       1.0000 0.41022  0.62849  0.27651  Biso   1.000  O
  O4       1.0000 0.41022  0.87151  0.77651  Biso   1.000  O
  O5       1.0000 0.33170  0.39150  0.77239  Biso   1.000  O
  O6       1.0000 0.33170  0.10850  0.27239  Biso   1.000  O
  O7       1.0000 0.66830  0.60850  0.22761  Biso   1.000  O
  O8       1.0000 0.66830  0.89150  0.72761  Biso   1.000  O
  O9       1.0000 0.11750  0.37726  0.64064  Biso   1.000  O
  O10      1.0000 0.11750  0.12274  0.14064  Biso   1.000  O
  O11      1.0000 0.88250  0.62274  0.35936  Biso   1.000  O
  O12      1.0000 0.88250  0.87726  0.85936  Biso   1.000  O
  O13      1.0000 0.61469  0.41524  0.38212  Biso   1.000  O
  O14      1.0000 0.61469  0.08476  0.88212  Biso   1.000  O
  O15      1.0000 0.38531  0.58476  0.61788  Biso   1.000  O
  O16      1.0000 0.38531  0.91524  0.11788  Biso   1.000  O
  O17      1.0000 0.65754  0.25780  0.33416  Biso   1.000  O
  O18      1.0000 0.65754  0.24220  0.83416  Biso   1.000  O
  O19      1.0000 0.34246  0.74220  0.66584  Biso   1.000  O
  O20      1.0000 0.34246  0.75780  0.16584  Biso   1.000  O
  O21      1.0000 0.79550  0.30348  0.23979  Biso   1.000  O
  O22      1.0000 0.79550  0.19652  0.73979  Biso   1.000  O
  O23      1.0000 0.20450  0.69652  0.76021  Biso   1.000  O
  O24      1.0000 0.20450  0.80348  0.26021  Biso   1.000  O
  O25      1.0000 0.99350  0.32991  0.79481  Biso   1.000  O
  O26      1.0000 0.99350  0.17009  0.29481  Biso   1.000  O
  O27      1.0000 0.00650  0.67009  0.20519  Biso   1.000  O
  O28      1.0000 0.00650  0.82991  0.70519  Biso   1.000  O
  O29      1.0000 0.28260  0.21690  0.88278  Biso   1.000  O
  O30      1.0000 0.28260  0.28310  0.38278  Biso   1.000  O
  O31      1.0000 0.71740  0.78310  0.11722  Biso   1.000  O
  O32      1.0000 0.71740  0.71690  0.61722  Biso   1.000  O
  C1       1.0000 0.79180  0.53524  0.78219  Biso   1.000  C
  C2       1.0000 0.79180  0.96476  0.28219  Biso   1.000  C
  C3       1.0000 0.20820  0.46476  0.21781  Biso   1.000  C
  C4       1.0000 0.20820  0.03524  0.71781  Biso   1.000  C
  C5       1.0000 0.82160  0.61969  0.79547  Biso   1.000  C
  C6       1.0000 0.82160  0.88031  0.29547  Biso   1.000  C
  C7       1.0000 0.17840  0.38031  0.20453  Biso   1.000  C
  C8       1.0000 0.17840  0.11969  0.70453  Biso   1.000  C
  C9       1.0000 0.82090  0.65029  0.86487  Biso   1.000  C
  C10      1.0000 0.82090  0.84971  0.36487  Biso   1.000  C
  C11      1.0000 0.17910  0.34971  0.13513  Biso   1.000  C
  C12      1.0000 0.17910  0.15029  0.63513  Biso   1.000  C
  C13      1.0000 0.79130  0.59701  0.92316  Biso   1.000  C
  C14      1.0000 0.79130  0.90299  0.42316  Biso   1.000  C
  C15      1.0000 0.20870  0.40299  0.07684  Biso   1.000  C
  C16      1.0000 0.20870  0.09701  0.57684  Biso   1.000  C
  C17      1.0000 0.78600  0.62154  0.99824  Biso   1.000  C
  C18      1.0000 0.78600  0.87846  0.49824  Biso   1.000  C
  C19      1.0000 0.21400  0.37846  0.00176  Biso   1.000  C
  C20      1.0000 0.21400  0.12154  0.50176  Biso   1.000  C
  C21      1.0000 0.75980  0.56604  0.05071  Biso   1.000  C
  C22      1.0000 0.75980  0.93396  0.55071  Biso   1.000  C
  C23      1.0000 0.24020  0.43396  0.94929  Biso   1.000  C
  C24      1.0000 0.24020  0.06604  0.44929  Biso   1.000  C
  C25      1.0000 0.73860  0.47906  0.03394  Biso   1.000  C
  C26      1.0000 0.73860  0.02094  0.53394  Biso   1.000  C
  C27      1.0000 0.26140  0.52094  0.96606  Biso   1.000  C
  C28      1.0000 0.26140  0.97906  0.46606  Biso   1.000  C
  C29      1.0000 0.71840  0.41625  0.08581  Biso   1.000  C
  C30      1.0000 0.71840  0.08375  0.58581  Biso   1.000  C
  C31      1.0000 0.28160  0.58375  0.91419  Biso   1.000  C
  C32      1.0000 0.28160  0.91625  0.41419  Biso   1.000  C
  C33      1.0000 0.70260  0.33555  0.06383  Biso   1.000  C
  C34      1.0000 0.70260  0.16445  0.56383  Biso   1.000  C
  C35      1.0000 0.29740  0.66445  0.93617  Biso   1.000  C
  C36      1.0000 0.29740  0.83555  0.43617  Biso   1.000  C
  C37      1.0000 0.70490  0.31540  0.98960  Biso   1.000  C
  C38      1.0000 0.70490  0.18460  0.48960  Biso   1.000  C
  C39      1.0000 0.29510  0.68460  0.01040  Biso   1.000  C
  C40      1.0000 0.29510  0.81540  0.51040  Biso   1.000  C
  C41      1.0000 0.74080  0.45309  0.96072  Biso   1.000  C
  C42      1.0000 0.74080  0.04691  0.46072  Biso   1.000  C
  C43      1.0000 0.25920  0.54691  0.03928  Biso   1.000  C
  C44      1.0000 0.25920  0.95309  0.53928  Biso   1.000  C
  C45      1.0000 0.76490  0.51303  0.90485  Biso   1.000  C
  C46      1.0000 0.76490  0.98697  0.40485  Biso   1.000  C
  C47      1.0000 0.23510  0.48697  0.09515  Biso   1.000  C
  C48      1.0000 0.23510  0.01303  0.59515  Biso   1.000  C
  C49      1.0000 0.41490  0.38051  0.71915  Biso   1.000  C
  C50      1.0000 0.41490  0.11949  0.21915  Biso   1.000  C
  C51      1.0000 0.58510  0.61949  0.28085  Biso   1.000  C
  C52      1.0000 0.58510  0.88051  0.78085  Biso   1.000  C
  C53      1.0000 0.31190  0.37828  0.64042  Biso   1.000  C
  C54      1.0000 0.31190  0.12172  0.14042  Biso   1.000  C
  C55      1.0000 0.68810  0.62172  0.35958  Biso   1.000  C
  C56      1.0000 0.68810  0.87828  0.85958  Biso   1.000  C
  C57      1.0000 0.00300  0.38574  0.57315  Biso   1.000  C
  C58      1.0000 0.00300  0.11426  0.07315  Biso   1.000  C
  C59      1.0000 0.99700  0.61426  0.42685  Biso   1.000  C
  C60      1.0000 0.99700  0.88574  0.92685  Biso   1.000  C
  C61      1.0000 0.81450  0.39939  0.57599  Biso   1.000  C
  C62      1.0000 0.81450  0.10061  0.07599  Biso   1.000  C
  C63      1.0000 0.18550  0.60061  0.42401  Biso   1.000  C
  C64      1.0000 0.18550  0.89939  0.92401  Biso   1.000  C
  C65      1.0000 0.69070  0.40916  0.51155  Biso   1.000  C
  C66      1.0000 0.69070  0.09084  0.01155  Biso   1.000  C
  C67      1.0000 0.30930  0.59084  0.48845  Biso   1.000  C
  C68      1.0000 0.30930  0.90916  0.98845  Biso   1.000  C
  C69      1.0000 0.75140  0.40438  0.44315  Biso   1.000  C
  C70      1.0000 0.75140  0.09562  0.94315  Biso   1.000  C
  C71      1.0000 0.24860  0.59562  0.55685  Biso   1.000  C
  C72      1.0000 0.24860  0.90438  0.05685  Biso   1.000  C
  C73      1.0000 0.93710  0.38923  0.44018  Biso   1.000  C
  C74      1.0000 0.93710  0.11077  0.94018  Biso   1.000  C
  C75      1.0000 0.06290  0.61077  0.55982  Biso   1.000  C
  C76      1.0000 0.06290  0.88923  0.05982  Biso   1.000  C
  C77      1.0000 0.06360  0.37978  0.50523  Biso   1.000  C
  C78      1.0000 0.06360  0.12022  0.00523  Biso   1.000  C
  C79      1.0000 0.93640  0.62022  0.49477  Biso   1.000  C
  C80      1.0000 0.93640  0.87978  0.99477  Biso   1.000  C
  C81      1.0000 0.66980  0.40348  0.31170  Biso   1.000  C
  C82      1.0000 0.66980  0.09652  0.81170  Biso   1.000  C
  C83      1.0000 0.33020  0.59652  0.68830  Biso   1.000  C
  C84      1.0000 0.33020  0.90348  0.18830  Biso   1.000  C
  C85      1.0000 0.71220  0.31412  0.29309  Biso   1.000  C
  C86      1.0000 0.71220  0.18588  0.79309  Biso   1.000  C
  C87      1.0000 0.28780  0.68588  0.70691  Biso   1.000  C
  C88      1.0000 0.28780  0.81412  0.20691  Biso   1.000  C
  H1       1.0000 0.79130  0.51500  0.73450  Biso   1.000  H
  H2       1.0000 0.79130  0.98500  0.23450  Biso   1.000  H
  H3       1.0000 0.20870  0.48500  0.26550  Biso   1.000  H
  H4       1.0000 0.20870  0.01500  0.76550  Biso   1.000  H
  H5       1.0000 0.84200  0.65500  0.75720  Biso   1.000  H
  H6       1.0000 0.84200  0.84500  0.25720  Biso   1.000  H
  H7       1.0000 0.15800  0.34500  0.24280  Biso   1.000  H
  H8       1.0000 0.15800  0.15500  0.74280  Biso   1.000  H
  H9       1.0000 0.84010  0.70680  0.87390  Biso   1.000  H
  H10      1.0000 0.84010  0.79320  0.37390  Biso   1.000  H
  H11      1.0000 0.15990  0.29320  0.12610  Biso   1.000  H
  H12      1.0000 0.15990  0.20680  0.62610  Biso   1.000  H
  H13      1.0000 0.80100  0.67740  0.01100  Biso   1.000  H
  H14      1.0000 0.80100  0.82260  0.51100  Biso   1.000  H
  H15      1.0000 0.19900  0.32260  0.98900  Biso   1.000  H
  H16      1.0000 0.19900  0.17740  0.48900  Biso   1.000  H
  H17      1.0000 0.75540  0.58430  0.09870  Biso   1.000  H
  H18      1.0000 0.75540  0.91570  0.59870  Biso   1.000  H
  H19      1.0000 0.24460  0.41570  0.90130  Biso   1.000  H
  H20      1.0000 0.24460  0.08430  0.40130  Biso   1.000  H
  H21      1.0000 0.71590  0.43000  0.13510  Biso   1.000  H
  H22      1.0000 0.71590  0.07000  0.63510  Biso   1.000  H
  H23      1.0000 0.28410  0.57000  0.86490  Biso   1.000  H
  H24      1.0000 0.28410  0.93000  0.36490  Biso   1.000  H
  H25      1.0000 0.69030  0.29390  0.09800  Biso   1.000  H
  H26      1.0000 0.69030  0.20610  0.59800  Biso   1.000  H
  H27      1.0000 0.30970  0.70610  0.90200  Biso   1.000  H
  H28      1.0000 0.30970  0.79390  0.40200  Biso   1.000  H
  H29      1.0000 0.69310  0.26000  0.97520  Biso   1.000  H
  H30      1.0000 0.69310  0.24000  0.47520  Biso   1.000  H
  H31      1.0000 0.30690  0.74000  0.02480  Biso   1.000  H
  H32      1.0000 0.30690  0.76000  0.52480  Biso   1.000  H
  H33      1.0000 0.34500  0.42670  0.61360  Biso   1.000  H
  H34      1.0000 0.34500  0.07330  0.11360  Biso   1.000  H
  H35      1.0000 0.65500  0.57330  0.38640  Biso   1.000  H
  H36      1.0000 0.65500  0.92670  0.88640  Biso   1.000  H
  H37      1.0000 0.34830  0.32910  0.61550  Biso   1.000  H
  H38      1.0000 0.34830  0.17090  0.11550  Biso   1.000  H
  H39      1.0000 0.65170  0.67090  0.38450  Biso   1.000  H
  H40      1.0000 0.65170  0.82910  0.88450  Biso   1.000  H
  H41      1.0000 0.77230  0.40190  0.62150  Biso   1.000  H
  H42      1.0000 0.77230  0.09810  0.12150  Biso   1.000  H
  H43      1.0000 0.22770  0.59810  0.37850  Biso   1.000  H
  H44      1.0000 0.22770  0.90190  0.87850  Biso   1.000  H
  H45      1.0000 0.56520  0.41910  0.51380  Biso   1.000  H
  H46      1.0000 0.56520  0.08090  0.01380  Biso   1.000  H
  H47      1.0000 0.43480  0.58090  0.48620  Biso   1.000  H
  H48      1.0000 0.43480  0.91910  0.98620  Biso   1.000  H
  H49      1.0000 0.97840  0.38530  0.39460  Biso   1.000  H
  H50      1.0000 0.97840  0.11470  0.89460  Biso   1.000  H
  H51      1.0000 0.02160  0.61470  0.60540  Biso   1.000  H
  H52      1.0000 0.02160  0.88530  0.10540  Biso   1.000  H
  H53      1.0000 0.18890  0.36950  0.50300  Biso   1.000  H
  H54      1.0000 0.18890  0.13050  0.00300  Biso   1.000  H
  H55      1.0000 0.81110  0.63050  0.49700  Biso   1.000  H
  H56      1.0000 0.81110  0.86950  0.99700  Biso   1.000  H
  H57      1.0000 0.78010  0.43690  0.30920  Biso   1.000  H
  H58      1.0000 0.78010  0.06310  0.80920  Biso   1.000  H
  H59      1.0000 0.21990  0.56310  0.69080  Biso   1.000  H
  H60      1.0000 0.21990  0.93690  0.19080  Biso   1.000  H
  H61      1.0000 0.57110  0.42410  0.27410  Biso   1.000  H
  H62      1.0000 0.57110  0.07590  0.77410  Biso   1.000  H
  H63      1.0000 0.42890  0.57590  0.72590  Biso   1.000  H
  H64      1.0000 0.42890  0.92410  0.22590  Biso   1.000  H
  H65      1.0000 0.94900  0.29270  0.76420  Biso   1.000  H
  H66      1.0000 0.94900  0.20730  0.26420  Biso   1.000  H
  H67      1.0000 0.05100  0.70730  0.23580  Biso   1.000  H
  H68      1.0000 0.05100  0.79270  0.73580  Biso   1.000  H
  H69      1.0000 0.06800  0.36020  0.77510  Biso   1.000  H
  H70      1.0000 0.06800  0.13980  0.27510  Biso   1.000  H
  H71      1.0000 0.93200  0.63980  0.22490  Biso   1.000  H
  H72      1.0000 0.93200  0.86020  0.72490  Biso   1.000  H
  H73      1.0000 0.21400  0.25100  0.85430  Biso   1.000  H
  H74      1.0000 0.21400  0.24900  0.35430  Biso   1.000  H
  H75      1.0000 0.78600  0.74900  0.14570  Biso   1.000  H
  H76      1.0000 0.78600  0.75100  0.64570  Biso   1.000  H
  H77      1.0000 0.39300  0.22000  0.87280  Biso   1.000  H
  H78      1.0000 0.39300  0.28000  0.37280  Biso   1.000  H
  H79      1.0000 0.60700  0.78000  0.12720  Biso   1.000  H
  H80      1.0000 0.60700  0.72000  0.62720  Biso   1.000  H
