data_image0
_cell_length_a       16.699
_cell_length_b       6.0327
_cell_length_c       18.977
_cell_angle_alpha    90
_cell_angle_beta     107.06
_cell_angle_gamma    90

_symmetry_space_group_name_H-M    "P 1"
_symmetry_int_tables_number       1

loop_
  _symmetry_equiv_pos_as_xyz
  'x, y, z'

loop_
  _atom_site_label
  _atom_site_occupancy
  _atom_site_fract_x
  _atom_site_fract_y
  _atom_site_fract_z
  _atom_site_thermal_displace_type
  _atom_site_B_iso_or_equiv
  _atom_site_type_symbol
  Cu1      1.0000 0.63669  0.81765  0.37245  Biso   1.000  Cu
  Cu2      1.0000 0.13669  0.68235  0.87244  Biso   1.000  Cu
  Cu3      1.0000 0.36331  0.18235  0.62755  Biso   1.000  Cu
  Cu4      1.0000 0.86331  0.31765  0.12755  Biso   1.000  Cu
  N1       1.0000 0.63381  0.85300  0.47578  Biso   1.000  N
  N2       1.0000 0.13381  0.64700  0.97578  Biso   1.000  N
  N3       1.0000 0.36619  0.14700  0.52422  Biso   1.000  N
  N4       1.0000 0.86619  0.35300  0.02422  Biso   1.000  N
  N5       1.0000 0.60120  0.80280  0.57825  Biso   1.000  N
  N6       1.0000 0.10120  0.69720  0.07825  Biso   1.000  N
  N7       1.0000 0.39880  0.19720  0.42175  Biso   1.000  N
  N8       1.0000 0.89880  0.30280  0.92175  Biso   1.000  N
  N9       1.0000 0.64017  0.74500  0.27090  Biso   1.000  N
  N10      1.0000 0.14017  0.75500  0.77090  Biso   1.000  N
  N11      1.0000 0.35983  0.25500  0.72910  Biso   1.000  N
  N12      1.0000 0.85983  0.24500  0.22910  Biso   1.000  N
  N13      1.0000 0.66744  0.59560  0.17547  Biso   1.000  N
  N14      1.0000 0.16744  0.90440  0.67547  Biso   1.000  N
  N15      1.0000 0.33256  0.40440  0.82453  Biso   1.000  N
  N16      1.0000 0.83256  0.09560  0.32453  Biso   1.000  N
  O1       1.0000 0.51205  0.80410  0.33480  Biso   1.000  O
  O2       1.0000 0.01205  0.69590  0.83480  Biso   1.000  O
  O3       1.0000 0.48795  0.19590  0.66520  Biso   1.000  O
  O4       1.0000 0.98795  0.30410  0.16520  Biso   1.000  O
  O5       1.0000 0.50512  0.44290  0.35913  Biso   1.000  O
  O6       1.0000 0.00512  0.05710  0.85913  Biso   1.000  O
  O7       1.0000 0.49488  0.55710  0.64087  Biso   1.000  O
  O8       1.0000 0.99488  0.94290  0.14087  Biso   1.000  O
  O9       1.0000 0.34521  0.42110  0.26329  Biso   1.000  O
  O10      1.0000 0.84521  0.07890  0.76329  Biso   1.000  O
  O11      1.0000 0.65479  0.57890  0.73671  Biso   1.000  O
  O12      1.0000 0.15479  0.92110  0.23671  Biso   1.000  O
  O13      1.0000 0.42301  0.04260  0.02567  Biso   1.000  O
  O14      1.0000 0.92301  0.45740  0.52567  Biso   1.000  O
  O15      1.0000 0.57699  0.95740  0.97433  Biso   1.000  O
  O16      1.0000 0.07699  0.54260  0.47433  Biso   1.000  O
  O17      1.0000 0.26199  0.69720  0.90997  Biso   1.000  O
  O18      1.0000 0.76199  0.80280  0.40997  Biso   1.000  O
  O19      1.0000 0.73801  0.30280  0.09003  Biso   1.000  O
  O20      1.0000 0.23801  0.19720  0.59003  Biso   1.000  O
  O21      1.0000 0.25911  0.05330  0.94132  Biso   1.000  O
  O22      1.0000 0.75911  0.44670  0.44132  Biso   1.000  O
  O23      1.0000 0.74089  0.94670  0.05868  Biso   1.000  O
  O24      1.0000 0.24089  0.55330  0.55868  Biso   1.000  O
  O25      1.0000 0.63894  0.18220  0.34993  Biso   1.000  O
  O26      1.0000 0.13894  0.31780  0.84993  Biso   1.000  O
  O27      1.0000 0.36106  0.81780  0.65007  Biso   1.000  O
  O28      1.0000 0.86106  0.68220  0.15007  Biso   1.000  O
  C1       1.0000 0.58080  0.75930  0.50618  Biso   1.000  C
  C2       1.0000 0.08080  0.74070  0.00618  Biso   1.000  C
  C3       1.0000 0.41920  0.24070  0.49382  Biso   1.000  C
  C4       1.0000 0.91920  0.25930  0.99382  Biso   1.000  C
  C5       1.0000 0.67160  0.92780  0.59623  Biso   1.000  C
  C6       1.0000 0.17160  0.57220  0.09623  Biso   1.000  C
  C7       1.0000 0.32840  0.07220  0.40377  Biso   1.000  C
  C8       1.0000 0.82840  0.42780  0.90377  Biso   1.000  C
  C9       1.0000 0.69110  0.96150  0.53256  Biso   1.000  C
  C10      1.0000 0.19110  0.53850  0.03256  Biso   1.000  C
  C11      1.0000 0.30890  0.03850  0.46744  Biso   1.000  C
  C12      1.0000 0.80890  0.46150  0.96744  Biso   1.000  C
  C13      1.0000 0.59260  0.84750  0.20746  Biso   1.000  C
  C14      1.0000 0.09260  0.65250  0.70746  Biso   1.000  C
  C15      1.0000 0.40740  0.15250  0.79254  Biso   1.000  C
  C16      1.0000 0.90740  0.34750  0.29254  Biso   1.000  C
  C17      1.0000 0.60910  0.75510  0.14872  Biso   1.000  C
  C18      1.0000 0.10910  0.74490  0.64872  Biso   1.000  C
  C19      1.0000 0.39090  0.24490  0.85128  Biso   1.000  C
  C20      1.0000 0.89090  0.25510  0.35128  Biso   1.000  C
  C21      1.0000 0.68490  0.59360  0.24909  Biso   1.000  C
  C22      1.0000 0.18490  0.90640  0.74909  Biso   1.000  C
  C23      1.0000 0.31510  0.40640  0.75091  Biso   1.000  C
  C24      1.0000 0.81510  0.09360  0.25091  Biso   1.000  C
  C25      1.0000 0.47468  0.62060  0.33111  Biso   1.000  C
  C26      1.0000 0.97468  0.87940  0.83111  Biso   1.000  C
  C27      1.0000 0.52532  0.37940  0.66889  Biso   1.000  C
  C28      1.0000 0.02532  0.12060  0.16889  Biso   1.000  C
  C29      1.0000 0.38120  0.63110  0.28965  Biso   1.000  C
  C30      1.0000 0.88120  0.86890  0.78965  Biso   1.000  C
  C31      1.0000 0.61880  0.36890  0.71035  Biso   1.000  C
  C32      1.0000 0.11880  0.13110  0.21035  Biso   1.000  C
  C33      1.0000 0.36731  0.33150  0.20443  Biso   1.000  C
  C34      1.0000 0.86731  0.16850  0.70443  Biso   1.000  C
  C35      1.0000 0.63269  0.66850  0.79557  Biso   1.000  C
  C36      1.0000 0.13269  0.83150  0.29557  Biso   1.000  C
  C37      1.0000 0.42500  0.42510  0.17340  Biso   1.000  C
  C38      1.0000 0.92500  0.07490  0.67340  Biso   1.000  C
  C39      1.0000 0.57500  0.57490  0.82660  Biso   1.000  C
  C40      1.0000 0.07500  0.92510  0.32660  Biso   1.000  C
  C41      1.0000 0.44057  0.32240  0.11384  Biso   1.000  C
  C42      1.0000 0.94057  0.17760  0.61384  Biso   1.000  C
  C43      1.0000 0.55943  0.67760  0.88616  Biso   1.000  C
  C44      1.0000 0.05943  0.82240  0.38616  Biso   1.000  C
  C45      1.0000 0.40035  0.12910  0.08443  Biso   1.000  C
  C46      1.0000 0.90035  0.37090  0.58443  Biso   1.000  C
  C47      1.0000 0.59965  0.87090  0.91557  Biso   1.000  C
  C48      1.0000 0.09965  0.62910  0.41557  Biso   1.000  C
  C49      1.0000 0.34308  0.03480  0.11569  Biso   1.000  C
  C50      1.0000 0.84308  0.46520  0.61569  Biso   1.000  C
  C51      1.0000 0.65692  0.96520  0.88431  Biso   1.000  C
  C52      1.0000 0.15692  0.53480  0.38431  Biso   1.000  C
  C53      1.0000 0.32729  0.13630  0.17548  Biso   1.000  C
  C54      1.0000 0.82729  0.36370  0.67548  Biso   1.000  C
  C55      1.0000 0.67271  0.86370  0.82452  Biso   1.000  C
  C56      1.0000 0.17271  0.63630  0.32452  Biso   1.000  C
  C57      1.0000 0.38411  0.84370  0.99236  Biso   1.000  C
  C58      1.0000 0.88411  0.65630  0.49236  Biso   1.000  C
  C59      1.0000 0.61589  0.15630  0.00764  Biso   1.000  C
  C60      1.0000 0.11589  0.34370  0.50764  Biso   1.000  C
  C61      1.0000 0.29387  0.87390  0.94384  Biso   1.000  C
  C62      1.0000 0.79387  0.62610  0.44384  Biso   1.000  C
  C63      1.0000 0.70613  0.12610  0.05616  Biso   1.000  C
  C64      1.0000 0.20613  0.37390  0.55616  Biso   1.000  C
  H1       1.0000 0.59390  0.24700  0.35000  Biso   1.000  H
  H2       1.0000 0.09390  0.25300  0.85000  Biso   1.000  H
  H3       1.0000 0.40610  0.75300  0.65000  Biso   1.000  H
  H4       1.0000 0.90610  0.74700  0.15000  Biso   1.000  H
  H5       1.0000 0.68060  0.24600  0.37940  Biso   1.000  H
  H6       1.0000 0.18060  0.25400  0.87940  Biso   1.000  H
  H7       1.0000 0.31940  0.75400  0.62060  Biso   1.000  H
  H8       1.0000 0.81940  0.74600  0.12060  Biso   1.000  H
  H9       1.0000 0.53510  0.67390  0.48070  Biso   1.000  H
  H10      1.0000 0.03510  0.82610  0.98070  Biso   1.000  H
  H11      1.0000 0.46490  0.32610  0.51930  Biso   1.000  H
  H12      1.0000 0.96490  0.17390  0.01930  Biso   1.000  H
  H13      1.0000 0.70080  0.97990  0.64280  Biso   1.000  H
  H14      1.0000 0.20080  0.52010  0.14280  Biso   1.000  H
  H15      1.0000 0.29920  0.02010  0.35720  Biso   1.000  H
  H16      1.0000 0.79920  0.47990  0.85720  Biso   1.000  H
  H17      1.0000 0.73610  0.04490  0.52790  Biso   1.000  H
  H18      1.0000 0.23610  0.45510  0.02790  Biso   1.000  H
  H19      1.0000 0.26390  0.95510  0.47210  Biso   1.000  H
  H20      1.0000 0.76390  0.54490  0.97210  Biso   1.000  H
  H21      1.0000 0.55490  0.96260  0.20560  Biso   1.000  H
  H22      1.0000 0.05490  0.53740  0.70560  Biso   1.000  H
  H23      1.0000 0.44510  0.03740  0.79440  Biso   1.000  H
  H24      1.0000 0.94510  0.46260  0.29440  Biso   1.000  H
  H25      1.0000 0.58520  0.79300  0.09950  Biso   1.000  H
  H26      1.0000 0.08520  0.70700  0.59950  Biso   1.000  H
  H27      1.0000 0.41480  0.20700  0.90050  Biso   1.000  H
  H28      1.0000 0.91480  0.29300  0.40050  Biso   1.000  H
  H29      1.0000 0.72310  0.49880  0.28040  Biso   1.000  H
  H30      1.0000 0.22310  0.00120  0.78040  Biso   1.000  H
  H31      1.0000 0.27690  0.50120  0.71960  Biso   1.000  H
  H32      1.0000 0.77690  0.99880  0.21960  Biso   1.000  H
  H33      1.0000 0.35160  0.69260  0.32210  Biso   1.000  H
  H34      1.0000 0.85160  0.80740  0.82210  Biso   1.000  H
  H35      1.0000 0.64840  0.30740  0.67790  Biso   1.000  H
  H36      1.0000 0.14840  0.19260  0.17790  Biso   1.000  H
  H37      1.0000 0.37300  0.73100  0.24810  Biso   1.000  H
  H38      1.0000 0.87300  0.76900  0.74810  Biso   1.000  H
  H39      1.0000 0.62700  0.26900  0.75190  Biso   1.000  H
  H40      1.0000 0.12700  0.23100  0.25190  Biso   1.000  H
  H41      1.0000 0.45270  0.55530  0.19250  Biso   1.000  H
  H42      1.0000 0.95270  0.94470  0.69250  Biso   1.000  H
  H43      1.0000 0.54730  0.44470  0.80750  Biso   1.000  H
  H44      1.0000 0.04730  0.05530  0.30750  Biso   1.000  H
  H45      1.0000 0.47920  0.38500  0.09300  Biso   1.000  H
  H46      1.0000 0.97920  0.11500  0.59300  Biso   1.000  H
  H47      1.0000 0.52080  0.61500  0.90700  Biso   1.000  H
  H48      1.0000 0.02080  0.88500  0.40700  Biso   1.000  H
  H49      1.0000 0.31560  0.90430  0.09660  Biso   1.000  H
  H50      1.0000 0.81560  0.59570  0.59660  Biso   1.000  H
  H51      1.0000 0.68440  0.09570  0.90340  Biso   1.000  H
  H52      1.0000 0.18440  0.40430  0.40340  Biso   1.000  H
  H53      1.0000 0.28920  0.07260  0.19670  Biso   1.000  H
  H54      1.0000 0.78920  0.42740  0.69670  Biso   1.000  H
  H55      1.0000 0.71080  0.92740  0.80330  Biso   1.000  H
  H56      1.0000 0.21080  0.57260  0.30330  Biso   1.000  H
  H57      1.0000 0.38460  0.73750  0.03090  Biso   1.000  H
  H58      1.0000 0.88460  0.76250  0.53090  Biso   1.000  H
  H59      1.0000 0.61540  0.26250  0.96910  Biso   1.000  H
  H60      1.0000 0.11540  0.23750  0.46910  Biso   1.000  H
  H61      1.0000 0.41700  0.78180  0.96260  Biso   1.000  H
  H62      1.0000 0.91700  0.71820  0.46260  Biso   1.000  H
  H63      1.0000 0.58300  0.21820  0.03740  Biso   1.000  H
  H64      1.0000 0.08300  0.28180  0.53740  Biso   1.000  H
  H65      1.0000 0.57200  0.74900  0.60690  Biso   1.000  H
  H66      1.0000 0.07200  0.75100  0.10690  Biso   1.000  H
  H67      1.0000 0.42800  0.25100  0.39310  Biso   1.000  H
  H68      1.0000 0.92800  0.24900  0.89310  Biso   1.000  H
  H69      1.0000 0.68800  0.49500  0.15080  Biso   1.000  H
  H70      1.0000 0.18800  0.00500  0.65080  Biso   1.000  H
  H71      1.0000 0.31200  0.50500  0.84920  Biso   1.000  H
  H72      1.0000 0.81200  0.99500  0.34920  Biso   1.000  H
