data_image0
_cell_length_a       9.509
_cell_length_b       5.206
_cell_length_c       8.189
_cell_angle_alpha    90
_cell_angle_beta     109.4
_cell_angle_gamma    90

_symmetry_space_group_name_H-M    "P 1"
_symmetry_int_tables_number       1

loop_
  _symmetry_equiv_pos_as_xyz
  'x, y, z'

loop_
  _atom_site_label
  _atom_site_occupancy
  _atom_site_fract_x
  _atom_site_fract_y
  _atom_site_fract_z
  _atom_site_thermal_displace_type
  _atom_site_B_iso_or_equiv
  _atom_site_type_symbol
  Cu1      1.0000 0.24883  0.25000  0.14352  Biso   1.000  Cu
  Cu2      1.0000 0.75117  0.75000  0.85648  Biso   1.000  Cu
  Cl1      1.0000 0.45124  0.48480  0.29096  Biso   1.000  Cl
  Cl2      1.0000 0.54876  0.98480  0.70904  Biso   1.000  Cl
  O1       1.0000 0.28640  0.00060  0.33710  Biso   1.000  O
  O2       1.0000 0.71360  0.50060  0.66290  Biso   1.000  O
  O3       1.0000 0.11200  0.99840  0.99820  Biso   1.000  O
  O4       1.0000 0.88800  0.49840  0.00180  Biso   1.000  O
  O5       1.0000 0.91300  0.98070  0.76070  Biso   1.000  O
  O6       1.0000 0.08700  0.48070  0.23930  Biso   1.000  O
  N1       1.0000 0.20130  0.45650  0.92690  Biso   1.000  N
  N2       1.0000 0.79870  0.95650  0.07310  Biso   1.000  N
  C1       1.0000 0.02960  0.08520  0.85090  Biso   1.000  C
  C2       1.0000 0.97040  0.58520  0.14910  Biso   1.000  C
  C3       1.0000 0.08140  0.32510  0.78530  Biso   1.000  C
  C4       1.0000 0.91860  0.82510  0.21470  Biso   1.000  C
  C5       1.0000 0.15210  0.26670  0.64600  Biso   1.000  C
  C6       1.0000 0.84790  0.76670  0.35400  Biso   1.000  C
  C7       1.0000 0.26030  0.48660  0.66470  Biso   1.000  C
  C8       1.0000 0.73970  0.98660  0.33530  Biso   1.000  C
  C9       1.0000 0.32560  0.51710  0.85960  Biso   1.000  C
  C10      1.0000 0.67440  0.01710  0.14040  Biso   1.000  C
  H1       1.0000 0.00600  0.43500  0.73600  Biso   1.000  H
  H2       1.0000 0.99400  0.93500  0.26400  Biso   1.000  H
  H3       1.0000 0.08500  0.26000  0.53500  Biso   1.000  H
  H4       1.0000 0.91500  0.76000  0.46500  Biso   1.000  H
  H5       1.0000 0.19200  0.12800  0.66100  Biso   1.000  H
  H6       1.0000 0.80800  0.62800  0.33900  Biso   1.000  H
  H7       1.0000 0.20900  0.66500  0.62100  Biso   1.000  H
  H8       1.0000 0.79100  0.16500  0.37900  Biso   1.000  H
  H9       1.0000 0.32600  0.44100  0.62200  Biso   1.000  H
  H10      1.0000 0.67400  0.94100  0.37800  Biso   1.000  H
  H11      1.0000 0.35300  0.68100  0.89700  Biso   1.000  H
  H12      1.0000 0.64700  0.18100  0.10300  Biso   1.000  H
  H13      1.0000 0.40000  0.41700  0.90900  Biso   1.000  H
  H14      1.0000 0.60000  0.91700  0.09100  Biso   1.000  H
  H15      1.0000 0.16900  0.59000  0.96000  Biso   1.000  H
  H16      1.0000 0.83100  0.09000  0.04000  Biso   1.000  H
  H17      1.0000 0.37200  0.02300  0.40700  Biso   1.000  H
  H18      1.0000 0.62800  0.52300  0.59300  Biso   1.000  H
