data_image0
_cell_length_a       9.038
_cell_length_b       5.98
_cell_length_c       8.567
_cell_angle_alpha    90
_cell_angle_beta     101.62
_cell_angle_gamma    90

_symmetry_space_group_name_H-M    "P 1"
_symmetry_int_tables_number       1

loop_
  _symmetry_equiv_pos_as_xyz
  'x, y, z'

loop_
  _atom_site_label
  _atom_site_occupancy
  _atom_site_fract_x
  _atom_site_fract_y
  _atom_site_fract_z
  _atom_site_thermal_displace_type
  _atom_site_B_iso_or_equiv
  _atom_site_type_symbol
  Cu1      1.0000 0.08529  0.25000  0.19978  Biso   1.000  Cu
  Cu2      1.0000 0.91471  0.75000  0.80022  Biso   1.000  Cu
  Cl1      1.0000 0.19900  0.45780  0.41290  Biso   1.000  Cl
  Cl2      1.0000 0.80100  0.95780  0.58710  Biso   1.000  Cl
  O1       1.0000 0.77740  0.85590  0.94060  Biso   1.000  O
  O2       1.0000 0.22260  0.35590  0.05940  Biso   1.000  O
  O3       1.0000 0.98160  0.05880  0.02620  Biso   1.000  O
  O4       1.0000 0.01840  0.55880  0.97380  Biso   1.000  O
  N1       1.0000 0.89020  0.22740  0.27630  Biso   1.000  N
  N2       1.0000 0.10980  0.72740  0.72370  Biso   1.000  N
  C1       1.0000 0.85040  0.99640  0.03450  Biso   1.000  C
  C2       1.0000 0.14960  0.49640  0.96550  Biso   1.000  C
  C3       1.0000 0.77800  0.09830  0.16010  Biso   1.000  C
  C4       1.0000 0.22200  0.59830  0.83990  Biso   1.000  C
  C5       1.0000 0.65490  0.26900  0.09100  Biso   1.000  C
  C6       1.0000 0.34510  0.76900  0.90900  Biso   1.000  C
  C7       1.0000 0.65810  0.43270  0.22520  Biso   1.000  C
  C8       1.0000 0.34190  0.93270  0.77480  Biso   1.000  C
  C9       1.0000 0.82320  0.45320  0.29480  Biso   1.000  C
  C10      1.0000 0.17680  0.95320  0.70520  Biso   1.000  C
  O5       1.0000 0.23480  0.94420  0.28160  Biso   1.000  O
  O6       1.0000 0.76520  0.44420  0.71840  Biso   1.000  O
  C11      1.0000 0.39270  0.96760  0.34080  Biso   1.000  C
  C12      1.0000 0.60730  0.46760  0.65920  Biso   1.000  C
  H1       1.0000 0.73700  0.00000  0.20600  Biso   1.000  H
  H2       1.0000 0.26300  0.50000  0.79400  Biso   1.000  H
  H3       1.0000 0.56000  0.20200  0.05700  Biso   1.000  H
  H4       1.0000 0.44000  0.70200  0.94300  Biso   1.000  H
  H5       1.0000 0.59600  0.35400  0.29100  Biso   1.000  H
  H6       1.0000 0.40400  0.85400  0.70900  Biso   1.000  H
  H7       1.0000 0.70000  0.33500  0.02200  Biso   1.000  H
  H8       1.0000 0.30000  0.83500  0.97800  Biso   1.000  H
  H9       1.0000 0.60400  0.56300  0.19500  Biso   1.000  H
  H10      1.0000 0.39600  0.06300  0.80500  Biso   1.000  H
  H11      1.0000 0.86500  0.51700  0.41200  Biso   1.000  H
  H12      1.0000 0.13500  0.01700  0.58800  Biso   1.000  H
  H13      1.0000 0.78800  0.51500  0.22500  Biso   1.000  H
  H14      1.0000 0.21200  0.01500  0.77500  Biso   1.000  H
  H15      1.0000 0.90100  0.14300  0.35600  Biso   1.000  H
  H16      1.0000 0.09900  0.64300  0.64400  Biso   1.000  H
  H17      1.0000 0.21300  0.83100  0.31800  Biso   1.000  H
  H18      1.0000 0.78700  0.33100  0.68200  Biso   1.000  H
  H19      1.0000 0.42500  0.98300  0.26100  Biso   1.000  H
  H20      1.0000 0.57500  0.48300  0.73900  Biso   1.000  H
  H21      1.0000 0.40400  0.13000  0.39800  Biso   1.000  H
  H22      1.0000 0.59600  0.63000  0.60200  Biso   1.000  H
  H23      1.0000 0.42100  0.88500  0.35000  Biso   1.000  H
  H24      1.0000 0.57900  0.38500  0.65000  Biso   1.000  H
