data_image0
_cell_length_a       9.41
_cell_length_b       10.291
_cell_length_c       9.208
_cell_angle_alpha    108.56
_cell_angle_beta     91.82
_cell_angle_gamma    68.04

_symmetry_space_group_name_H-M    "P 1"
_symmetry_int_tables_number       1

loop_
  _symmetry_equiv_pos_as_xyz
  'x, y, z'

loop_
  _atom_site_label
  _atom_site_occupancy
  _atom_site_fract_x
  _atom_site_fract_y
  _atom_site_fract_z
  _atom_site_thermal_displace_type
  _atom_site_B_iso_or_equiv
  _atom_site_type_symbol
  Cu1      1.0000 0.49896  0.46980  0.83978  Biso   1.000  Cu
  Cu2      1.0000 0.50104  0.53020  0.16022  Biso   1.000  Cu
  Cl1      1.0000 0.35380  0.41590  0.99710  Biso   1.000  Cl
  Cl2      1.0000 0.64620  0.58410  0.00290  Biso   1.000  Cl
  S1       1.0000 0.68800  0.24370  0.68220  Biso   1.000  S
  S2       1.0000 0.31200  0.75630  0.31780  Biso   1.000  S
  S3       1.0000 0.33370  0.03660  0.90550  Biso   1.000  S
  S4       1.0000 0.66630  0.96340  0.09450  Biso   1.000  S
  S5       1.0000 0.34980  0.58000  0.67890  Biso   1.000  S
  S6       1.0000 0.65020  0.42000  0.32110  Biso   1.000  S
  S7       1.0000 0.73730  0.77500  0.54140  Biso   1.000  S
  S8       1.0000 0.26270  0.22500  0.45860  Biso   1.000  S
  N1       1.0000 0.91760  0.07370  0.79390  Biso   1.000  N
  N2       1.0000 0.08240  0.92630  0.20610  Biso   1.000  N
  N3       1.0000 0.06120  0.02650  0.84270  Biso   1.000  N
  N4       1.0000 0.93880  0.97350  0.15730  Biso   1.000  N
  C1       1.0000 0.86560  0.19970  0.76410  Biso   1.000  C
  C2       1.0000 0.13440  0.80030  0.23590  Biso   1.000  C
  C3       1.0000 0.94490  0.29390  0.78830  Biso   1.000  C
  C4       1.0000 0.05510  0.70610  0.21170  Biso   1.000  C
  C5       1.0000 0.08760  0.24810  0.83820  Biso   1.000  C
  C6       1.0000 0.91240  0.75190  0.16180  Biso   1.000  C
  C7       1.0000 0.14340  0.10920  0.86020  Biso   1.000  C
  C8       1.0000 0.85660  0.89080  0.13980  Biso   1.000  C
  C9       1.0000 0.35690  0.84730  0.88000  Biso   1.000  C
  C10      1.0000 0.64310  0.15270  0.12000  Biso   1.000  C
  C11      1.0000 0.36670  0.75680  0.71100  Biso   1.000  C
  C12      1.0000 0.63330  0.24320  0.28900  Biso   1.000  C
  C13      1.0000 0.14840  0.64020  0.74410  Biso   1.000  C
  C14      1.0000 0.85160  0.35980  0.25590  Biso   1.000  C
  C15      1.0000 0.04150  0.67960  0.62230  Biso   1.000  C
  C16      1.0000 0.95850  0.32040  0.37770  Biso   1.000  C
  C17      1.0000 0.87210  0.73640  0.68180  Biso   1.000  C
  C18      1.0000 0.12790  0.26360  0.31820  Biso   1.000  C
  C19      1.0000 0.73970  0.94790  0.53440  Biso   1.000  C
  C20      1.0000 0.26030  0.05210  0.46560  Biso   1.000  C
  C21      1.0000 0.64330  0.08380  0.67010  Biso   1.000  C
  C22      1.0000 0.35670  0.91620  0.32990  Biso   1.000  C
  H1       1.0000 0.90290  0.39390  0.76910  Biso   1.000  H
  H2       1.0000 0.09710  0.60610  0.23090  Biso   1.000  H
  H3       1.0000 0.14930  0.31800  0.86680  Biso   1.000  H
  H4       1.0000 0.85070  0.68200  0.13320  Biso   1.000  H
  H5       1.0000 0.44890  0.80130  0.92120  Biso   1.000  H
  H6       1.0000 0.55110  0.19870  0.07880  Biso   1.000  H
  H7       1.0000 0.27140  0.84920  0.93390  Biso   1.000  H
  H8       1.0000 0.72860  0.15080  0.06610  Biso   1.000  H
  H9       1.0000 0.46320  0.73820  0.66240  Biso   1.000  H
  H10      1.0000 0.53680  0.26180  0.33760  Biso   1.000  H
  H11      1.0000 0.28600  0.81400  0.66520  Biso   1.000  H
  H12      1.0000 0.71400  0.18600  0.33480  Biso   1.000  H
  H13      1.0000 0.13400  0.56240  0.76810  Biso   1.000  H
  H14      1.0000 0.86600  0.43760  0.23190  Biso   1.000  H
  H15      1.0000 0.12210  0.72530  0.83400  Biso   1.000  H
  H16      1.0000 0.87790  0.27470  0.16600  Biso   1.000  H
  H17      1.0000 0.05860  0.75450  0.59490  Biso   1.000  H
  H18      1.0000 0.94140  0.24550  0.40510  Biso   1.000  H
  H19      1.0000 0.06430  0.59350  0.53390  Biso   1.000  H
  H20      1.0000 0.93570  0.40650  0.46610  Biso   1.000  H
  H21      1.0000 0.84910  0.82560  0.76640  Biso   1.000  H
  H22      1.0000 0.15090  0.17440  0.23360  Biso   1.000  H
  H23      1.0000 0.85790  0.66360  0.71560  Biso   1.000  H
  H24      1.0000 0.14210  0.33640  0.28440  Biso   1.000  H
  H25      1.0000 0.84330  0.94090  0.53430  Biso   1.000  H
  H26      1.0000 0.15670  0.05910  0.46570  Biso   1.000  H
  H27      1.0000 0.70050  0.96190  0.44160  Biso   1.000  H
  H28      1.0000 0.29950  0.03810  0.55840  Biso   1.000  H
  H29      1.0000 0.66450  0.06140  0.76290  Biso   1.000  H
  H30      1.0000 0.33550  0.93860  0.23710  Biso   1.000  H
  H31      1.0000 0.53710  0.10660  0.65670  Biso   1.000  H
  H32      1.0000 0.46290  0.89340  0.34330  Biso   1.000  H
