data_image0
_cell_length_a       9.8755
_cell_length_b       10.5099
_cell_length_c       24.57
_cell_angle_alpha    81.129
_cell_angle_beta     84.708
_cell_angle_gamma    67.205

_symmetry_space_group_name_H-M    "P 1"
_symmetry_int_tables_number       1

loop_
  _symmetry_equiv_pos_as_xyz
  'x, y, z'

loop_
  _atom_site_label
  _atom_site_occupancy
  _atom_site_fract_x
  _atom_site_fract_y
  _atom_site_fract_z
  _atom_site_thermal_displace_type
  _atom_site_B_iso_or_equiv
  _atom_site_type_symbol
  Cu1      1.0000 0.69949  0.44475  0.33936  Biso   1.000  Cu
  Cu2      1.0000 0.30051  0.55525  0.66064  Biso   1.000  Cu
  Cu3      1.0000 0.41912  0.81542  0.21518  Biso   1.000  Cu
  Cu4      1.0000 0.58088  0.18458  0.78482  Biso   1.000  Cu
  Cu5      1.0000 0.06878  0.62685  0.26863  Biso   1.000  Cu
  Cu6      1.0000 0.93122  0.37315  0.73137  Biso   1.000  Cu
  P1       1.0000 0.37285  0.59929  0.30614  Biso   1.000  P
  P2       1.0000 0.62715  0.40071  0.69386  Biso   1.000  P
  P3       1.0000 0.14295  0.88097  0.28710  Biso   1.000  P
  P4       1.0000 0.85705  0.11903  0.71290  Biso   1.000  P
  P5       1.0000 0.97389  0.37338  0.26684  Biso   1.000  P
  P6       1.0000 0.02611  0.62662  0.73316  Biso   1.000  P
  P7       1.0000 0.74723  0.65808  0.24688  Biso   1.000  P
  P8       1.0000 0.25277  0.34192  0.75312  Biso   1.000  P
  N1       1.0000 0.71150  0.27730  0.39580  Biso   1.000  N
  N2       1.0000 0.28850  0.72270  0.60420  Biso   1.000  N
  N3       1.0000 0.77930  0.73350  0.60640  Biso   1.000  N
  N4       1.0000 0.22070  0.26650  0.39360  Biso   1.000  N
  H1       1.0000 0.78840  0.66600  0.63240  Biso   1.000  H
  H2       1.0000 0.21160  0.33400  0.36760  Biso   1.000  H
  C1       1.0000 0.55730  0.78880  0.69700  Biso   1.000  C
  C2       1.0000 0.44270  0.21120  0.30300  Biso   1.000  C
  H3       1.0000 0.64360  0.71070  0.70290  Biso   1.000  H
  H4       1.0000 0.35640  0.28930  0.29710  Biso   1.000  H
  C3       1.0000 0.01490  0.46240  0.58740  Biso   1.000  C
  C4       1.0000 0.98510  0.53760  0.41260  Biso   1.000  C
  H5       1.0000 0.93420  0.45760  0.60900  Biso   1.000  H
  H6       1.0000 0.06580  0.54240  0.39100  Biso   1.000  H
  N5       1.0000 0.40590  0.97580  0.15700  Biso   1.000  N
  N6       1.0000 0.59410  0.02420  0.84300  Biso   1.000  N
  N7       1.0000 0.35190  0.52140  0.94800  Biso   1.000  N
  N8       1.0000 0.64810  0.47860  0.05200  Biso   1.000  N
  H7       1.0000 0.34230  0.59040  0.92270  Biso   1.000  H
  H8       1.0000 0.65770  0.40960  0.07730  Biso   1.000  H
  C5       1.0000 0.08880  0.77390  0.95150  Biso   1.000  C
  C6       1.0000 0.91120  0.22610  0.04850  Biso   1.000  C
  H9       1.0000 0.15830  0.77280  0.92310  Biso   1.000  H
  H10      1.0000 0.84170  0.22720  0.07690  Biso   1.000  H
  C7       1.0000 0.58600  0.50720  0.86790  Biso   1.000  C
  C8       1.0000 0.41400  0.49280  0.13210  Biso   1.000  C
  H11      1.0000 0.51500  0.58670  0.86930  Biso   1.000  H
  H12      1.0000 0.48500  0.41330  0.13070  Biso   1.000  H
  O1       1.0000 0.49170  0.50510  0.34541  Biso   1.000  O
  O2       1.0000 0.50830  0.49490  0.65459  Biso   1.000  O
  O3       1.0000 0.43320  0.62700  0.24808  Biso   1.000  O
  O4       1.0000 0.56680  0.37300  0.75192  Biso   1.000  O
  O5       1.0000 0.25160  0.54370  0.30759  Biso   1.000  O
  O6       1.0000 0.74840  0.45630  0.69241  Biso   1.000  O
  O7       1.0000 0.20950  0.89890  0.22970  Biso   1.000  O
  O8       1.0000 0.79050  0.10110  0.77030  Biso   1.000  O
  O9       1.0000 0.03580  0.80850  0.29040  Biso   1.000  O
  O10      1.0000 0.96420  0.19150  0.70960  Biso   1.000  O
  O11      1.0000 0.07030  0.02060  0.31030  Biso   1.000  O
  O12      1.0000 0.92970  0.97940  0.68970  Biso   1.000  O
  O13      1.0000 0.90520  0.36390  0.32472  Biso   1.000  O
  O14      1.0000 0.09480  0.63610  0.67528  Biso   1.000  O
  O15      1.0000 0.03650  0.23100  0.24562  Biso   1.000  O
  O16      1.0000 0.96350  0.76900  0.75438  Biso   1.000  O
  O17      1.0000 0.08770  0.43820  0.26194  Biso   1.000  O
  O18      1.0000 0.91230  0.56180  0.73806  Biso   1.000  O
  O19      1.0000 0.86950  0.71360  0.24304  Biso   1.000  O
  O20      1.0000 0.13050  0.28640  0.75696  Biso   1.000  O
  O21      1.0000 0.69040  0.63280  0.30571  Biso   1.000  O
  O22      1.0000 0.30960  0.36720  0.69429  Biso   1.000  O
  O23      1.0000 0.62710  0.75500  0.20803  Biso   1.000  O
  O24      1.0000 0.37290  0.24500  0.79197  Biso   1.000  O
  O25      1.0000 0.40620  0.83450  0.31800  Biso   1.000  O
  O26      1.0000 0.59380  0.16550  0.68200  Biso   1.000  O
  H13      1.0000 0.48520  0.77180  0.32970  Biso   1.000  H
  H14      1.0000 0.51480  0.22820  0.67030  Biso   1.000  H
  O27      1.0000 0.71170  0.42620  0.23190  Biso   1.000  O
  O28      1.0000 0.28830  0.57380  0.76810  Biso   1.000  O
  H15      1.0000 0.63130  0.49240  0.22450  Biso   1.000  H
  H16      1.0000 0.36870  0.50760  0.77550  Biso   1.000  H
  O29      1.0000 0.88690  0.11390  0.19080  Biso   1.000  O
  O30      1.0000 0.11310  0.88610  0.80920  Biso   1.000  O
  H17      1.0000 0.96410  0.04260  0.19700  Biso   1.000  H
  H18      1.0000 0.03590  0.95740  0.80300  Biso   1.000  H
  H19      1.0000 0.81440  0.16330  0.16970  Biso   1.000  H
  H20      1.0000 0.18560  0.83670  0.83030  Biso   1.000  H
  O31      1.0000 0.84800  0.94220  0.17920  Biso   1.000  O
  O32      1.0000 0.15200  0.05780  0.82080  Biso   1.000  O
  H21      1.0000 0.83880  0.01410  0.15380  Biso   1.000  H
  H22      1.0000 0.16120  0.98590  0.84620  Biso   1.000  H
  H23      1.0000 0.82130  0.86690  0.17210  Biso   1.000  H
  H24      1.0000 0.17870  0.13310  0.82790  Biso   1.000  H
  C9       1.0000 0.13640  0.34550  0.58210  Biso   1.000  C
  C10      1.0000 0.86360  0.65450  0.41790  Biso   1.000  C
  H25      1.0000 0.13450  0.26180  0.60040  Biso   1.000  H
  H26      1.0000 0.86550  0.73820  0.39960  Biso   1.000  H
  N9       1.0000 0.25850  0.34140  0.55270  Biso   1.000  N
  N10      1.0000 0.74150  0.65860  0.44730  Biso   1.000  N
  C11      1.0000 0.25320  0.46390  0.52640  Biso   1.000  C
  C12      1.0000 0.74680  0.53610  0.47360  Biso   1.000  C
  H27      1.0000 0.33590  0.46570  0.50540  Biso   1.000  H
  H28      1.0000 0.66410  0.53430  0.49460  Biso   1.000  H
  C13      1.0000 0.13410  0.58870  0.52800  Biso   1.000  C
  C14      1.0000 0.86590  0.41130  0.47200  Biso   1.000  C
  H29      1.0000 0.13650  0.67020  0.50760  Biso   1.000  H
  H30      1.0000 0.86350  0.32980  0.49240  Biso   1.000  H
  C15      1.0000 0.01230  0.58990  0.56010  Biso   1.000  C
  C16      1.0000 0.98770  0.41010  0.43990  Biso   1.000  C
  C17      1.0000 0.88370  0.72090  0.56300  Biso   1.000  C
  C18      1.0000 0.11630  0.27910  0.43700  Biso   1.000  C
  C19      1.0000 0.86960  0.82620  0.52400  Biso   1.000  C
  C20      1.0000 0.13040  0.17380  0.47600  Biso   1.000  C
  H31      1.0000 0.94120  0.81940  0.49600  Biso   1.000  H
  H32      1.0000 0.05880  0.18060  0.50400  Biso   1.000  H
  C21      1.0000 0.75090  0.94160  0.52560  Biso   1.000  C
  C22      1.0000 0.24910  0.05840  0.47440  Biso   1.000  C
  C23      1.0000 0.64730  0.96260  0.56480  Biso   1.000  C
  C24      1.0000 0.35270  0.03740  0.43520  Biso   1.000  C
  H33      1.0000 0.56730  0.04700  0.56390  Biso   1.000  H
  H34      1.0000 0.43270  0.95300  0.43610  Biso   1.000  H
  C25      1.0000 0.65980  0.86000  0.60570  Biso   1.000  C
  C26      1.0000 0.34020  0.14000  0.39430  Biso   1.000  C
  C27      1.0000 0.54210  0.88470  0.64950  Biso   1.000  C
  C28      1.0000 0.45790  0.11530  0.35050  Biso   1.000  C
  C29      1.0000 0.41540  0.99960  0.64500  Biso   1.000  C
  C30      1.0000 0.58460  0.00040  0.35500  Biso   1.000  C
  H35      1.0000 0.40290  0.06530  0.61390  Biso   1.000  H
  H36      1.0000 0.59710  0.93470  0.38610  Biso   1.000  H
  C31      1.0000 0.30560  0.02090  0.68520  Biso   1.000  C
  C32      1.0000 0.69440  0.97910  0.31480  Biso   1.000  C
  H37      1.0000 0.22170  0.10220  0.68190  Biso   1.000  H
  H38      1.0000 0.77830  0.89780  0.31810  Biso   1.000  H
  N11      1.0000 0.31900  0.92810  0.72770  Biso   1.000  N
  N12      1.0000 0.68100  0.07190  0.27230  Biso   1.000  N
  C33      1.0000 0.44160  0.81260  0.73500  Biso   1.000  C
  C34      1.0000 0.55840  0.18740  0.26500  Biso   1.000  C
  H39      1.0000 0.44840  0.74800  0.76610  Biso   1.000  H
  H40      1.0000 0.55160  0.25200  0.23390  Biso   1.000  H
  C35      1.0000 0.73590  0.05850  0.48020  Biso   1.000  C
  C36      1.0000 0.26410  0.94150  0.51980  Biso   1.000  C
  C37      1.0000 0.84840  0.05310  0.44170  Biso   1.000  C
  C38      1.0000 0.15160  0.94690  0.55830  Biso   1.000  C
  H41      1.0000 0.93520  0.97450  0.44340  Biso   1.000  H
  H42      1.0000 0.06480  0.02550  0.55660  Biso   1.000  H
  C39      1.0000 0.83380  0.16220  0.40110  Biso   1.000  C
  C40      1.0000 0.16620  0.83780  0.59890  Biso   1.000  C
  H43      1.0000 0.91220  0.15600  0.37620  Biso   1.000  H
  H44      1.0000 0.08780  0.84400  0.62380  Biso   1.000  H
  C41      1.0000 0.60030  0.28160  0.43340  Biso   1.000  C
  C42      1.0000 0.39970  0.71840  0.56660  Biso   1.000  C
  H45      1.0000 0.51360  0.36010  0.43040  Biso   1.000  H
  H46      1.0000 0.48640  0.63990  0.56960  Biso   1.000  H
  C43      1.0000 0.60810  0.17890  0.47500  Biso   1.000  C
  C44      1.0000 0.39190  0.82110  0.52500  Biso   1.000  C
  H47      1.0000 0.52900  0.18830  0.49990  Biso   1.000  H
  H48      1.0000 0.47100  0.81170  0.50010  Biso   1.000  H
  C45      1.0000 0.96180  0.89150  0.95560  Biso   1.000  C
  C46      1.0000 0.03820  0.10850  0.04440  Biso   1.000  C
  H49      1.0000 0.94820  0.96700  0.92840  Biso   1.000  H
  H50      1.0000 0.05180  0.03300  0.07160  Biso   1.000  H
  N13      1.0000 0.86200  0.90470  0.99380  Biso   1.000  N
  N14      1.0000 0.13800  0.09530  0.00620  Biso   1.000  N
  C47      1.0000 0.88440  0.79280  0.03080  Biso   1.000  C
  C48      1.0000 0.11560  0.20720  0.96920  Biso   1.000  C
  H51      1.0000 0.81430  0.79700  0.05920  Biso   1.000  H
  H52      1.0000 0.18570  0.20300  0.94080  Biso   1.000  H
  C49      1.0000 0.00640  0.67070  0.02940  Biso   1.000  C
  C50      1.0000 0.99360  0.32930  0.97060  Biso   1.000  C
  H53      1.0000 0.01600  0.59560  0.05640  Biso   1.000  H
  H54      1.0000 0.98400  0.40440  0.94360  Biso   1.000  H
  C51      1.0000 0.10970  0.65930  0.99000  Biso   1.000  C
  C52      1.0000 0.89030  0.34070  0.01000  Biso   1.000  C
  C53      1.0000 0.24470  0.52970  0.98900  Biso   1.000  C
  C54      1.0000 0.75530  0.47030  0.01100  Biso   1.000  C
  C55      1.0000 0.25710  0.42420  0.02750  Biso   1.000  C
  C56      1.0000 0.74290  0.57580  0.97250  Biso   1.000  C
  H55      1.0000 0.18340  0.43040  0.05460  Biso   1.000  H
  H56      1.0000 0.81660  0.56960  0.94540  Biso   1.000  H
  C57      1.0000 0.37580  0.30990  0.02680  Biso   1.000  C
  C58      1.0000 0.62420  0.69010  0.97320  Biso   1.000  C
  C59      1.0000 0.48180  0.29700  0.98760  Biso   1.000  C
  C60      1.0000 0.51820  0.70300  0.01240  Biso   1.000  C
  H57      1.0000 0.56300  0.21370  0.98760  Biso   1.000  H
  H58      1.0000 0.43700  0.78630  0.01240  Biso   1.000  H
  C61      1.0000 0.47110  0.40370  0.94830  Biso   1.000  C
  C62      1.0000 0.52890  0.59630  0.05170  Biso   1.000  C
  C63      1.0000 0.58720  0.39440  0.90550  Biso   1.000  C
  C64      1.0000 0.41280  0.60560  0.09450  Biso   1.000  C
  C65      1.0000 0.70900  0.26960  0.90100  Biso   1.000  C
  C66      1.0000 0.29100  0.73040  0.09900  Biso   1.000  C
  H59      1.0000 0.71870  0.19030  0.92570  Biso   1.000  H
  H60      1.0000 0.28130  0.80970  0.07430  Biso   1.000  H
  C67      1.0000 0.81350  0.26640  0.85970  Biso   1.000  C
  C68      1.0000 0.18650  0.73360  0.14030  Biso   1.000  C
  H61      1.0000 0.89130  0.18190  0.85670  Biso   1.000  H
  H62      1.0000 0.10870  0.81810  0.14330  Biso   1.000  H
  N15      1.0000 0.81120  0.37520  0.82370  Biso   1.000  N
  N16      1.0000 0.18880  0.62480  0.17630  Biso   1.000  N
  C69      1.0000 0.69900  0.49280  0.82840  Biso   1.000  C
  C70      1.0000 0.30100  0.50720  0.17160  Biso   1.000  C
  H63      1.0000 0.69510  0.57070  0.80390  Biso   1.000  H
  H64      1.0000 0.30490  0.42930  0.19610  Biso   1.000  H
  C71      1.0000 0.38760  0.19230  0.07240  Biso   1.000  C
  C72      1.0000 0.61240  0.80770  0.92760  Biso   1.000  C
  C73      1.0000 0.28730  0.21130  0.11580  Biso   1.000  C
  C74      1.0000 0.71270  0.78870  0.88420  Biso   1.000  C
  H65      1.0000 0.21220  0.29780  0.11790  Biso   1.000  H
  H66      1.0000 0.78780  0.70220  0.88210  Biso   1.000  H
  C75      1.0000 0.29820  0.10160  0.15640  Biso   1.000  C
  C76      1.0000 0.70180  0.89840  0.84360  Biso   1.000  C
  H67      1.0000 0.22680  0.11590  0.18470  Biso   1.000  H
  H68      1.0000 0.77320  0.88410  0.81530  Biso   1.000  H
  C77      1.0000 0.50370  0.95880  0.11370  Biso   1.000  C
  C78      1.0000 0.49630  0.04120  0.88630  Biso   1.000  C
  H69      1.0000 0.57860  0.87180  0.11240  Biso   1.000  H
  H70      1.0000 0.42140  0.12820  0.88760  Biso   1.000  H
  C79      1.0000 0.49850  0.06270  0.07190  Biso   1.000  C
  C80      1.0000 0.50150  0.93730  0.92810  Biso   1.000  C
  H71      1.0000 0.56930  0.04600  0.04330  Biso   1.000  H
  H72      1.0000 0.43070  0.95400  0.95670  Biso   1.000  H
  C81      1.0000 0.29560  0.77110  0.33070  Biso   1.000  C
  C82      1.0000 0.70440  0.22890  0.66930  Biso   1.000  C
  C83      1.0000 0.25160  0.76420  0.39090  Biso   1.000  C
  C84      1.0000 0.74840  0.23580  0.60910  Biso   1.000  C
  H73      1.0000 0.33470  0.70330  0.41200  Biso   1.000  H
  H74      1.0000 0.66530  0.29670  0.58800  Biso   1.000  H
  H75      1.0000 0.17420  0.72920  0.39730  Biso   1.000  H
  H76      1.0000 0.82580  0.27080  0.60270  Biso   1.000  H
  H77      1.0000 0.21760  0.85560  0.40180  Biso   1.000  H
  H78      1.0000 0.78240  0.14440  0.59820  Biso   1.000  H
  C85      1.0000 0.82230  0.48800  0.22240  Biso   1.000  C
  C86      1.0000 0.17770  0.51200  0.77760  Biso   1.000  C
  C87      1.0000 0.87470  0.49670  0.16200  Biso   1.000  C
  C88      1.0000 0.12530  0.50330  0.83800  Biso   1.000  C
  H79      1.0000 0.91050  0.40580  0.15050  Biso   1.000  H
  H80      1.0000 0.08950  0.59420  0.84950  Biso   1.000  H
  H81      1.0000 0.95210  0.53160  0.15780  Biso   1.000  H
  H82      1.0000 0.04790  0.46840  0.84220  Biso   1.000  H
  H83      1.0000 0.79420  0.55830  0.13980  Biso   1.000  H
  H84      1.0000 0.20580  0.44170  0.86020  Biso   1.000  H
  O33      1.0000 0.82000  0.94100  0.15340  Biso   1.000  O
  O34      1.0000 0.18000  0.05900  0.84660  Biso   1.000  O
