data_image0
_cell_length_a       9.0321
_cell_length_b       10.0674
_cell_length_c       15.5816
_cell_angle_alpha    103.929
_cell_angle_beta     91.157
_cell_angle_gamma    99.574

_symmetry_space_group_name_H-M    "P 1"
_symmetry_int_tables_number       1

loop_
  _symmetry_equiv_pos_as_xyz
  'x, y, z'

loop_
  _atom_site_label
  _atom_site_occupancy
  _atom_site_fract_x
  _atom_site_fract_y
  _atom_site_fract_z
  _atom_site_thermal_displace_type
  _atom_site_B_iso_or_equiv
  _atom_site_type_symbol
  Cu1      1.0000 0.42283  0.98209  0.28823  Biso   1.000  Cu
  Cu2      1.0000 0.57717  0.01791  0.71177  Biso   1.000  Cu
  Cu3      1.0000 0.13454  0.52514  0.06559  Biso   1.000  Cu
  Cu4      1.0000 0.86546  0.47486  0.93441  Biso   1.000  Cu
  Cu5      1.0000 0.07397  0.52671  0.72363  Biso   1.000  Cu
  Cu6      1.0000 0.92603  0.47329  0.27637  Biso   1.000  Cu
  Cu7      1.0000 0.64553  0.03927  0.05976  Biso   1.000  Cu
  Cu8      1.0000 0.35447  0.96073  0.94024  Biso   1.000  Cu
  P1       1.0000 0.34952  0.14219  0.14091  Biso   1.000  P
  P2       1.0000 0.65048  0.85781  0.85909  Biso   1.000  P
  P3       1.0000 0.64051  0.23091  0.25187  Biso   1.000  P
  P4       1.0000 0.35949  0.76909  0.74813  Biso   1.000  P
  P5       1.0000 0.84622  0.64425  0.13718  Biso   1.000  P
  P6       1.0000 0.15378  0.35575  0.86282  Biso   1.000  P
  P7       1.0000 0.13204  0.73702  0.25234  Biso   1.000  P
  P8       1.0000 0.86796  0.26298  0.74766  Biso   1.000  P
  N1       1.0000 0.53170  0.91050  0.37880  Biso   1.000  N
  N2       1.0000 0.46830  0.08950  0.62120  Biso   1.000  N
  N3       1.0000 0.95030  0.60990  0.64850  Biso   1.000  N
  N4       1.0000 0.04970  0.39010  0.35150  Biso   1.000  N
  O1       1.0000 0.30810  0.04800  0.20290  Biso   1.000  O
  O2       1.0000 0.69190  0.95200  0.79710  Biso   1.000  O
  O3       1.0000 0.43400  0.06980  0.06124  Biso   1.000  O
  O4       1.0000 0.56600  0.93020  0.93876  Biso   1.000  O
  O5       1.0000 0.21570  0.18980  0.10795  Biso   1.000  O
  O6       1.0000 0.78430  0.81020  0.89205  Biso   1.000  O
  O7       1.0000 0.56970  0.14930  0.31563  Biso   1.000  O
  O8       1.0000 0.43030  0.85070  0.68437  Biso   1.000  O
  O9       1.0000 0.71390  0.14390  0.17655  Biso   1.000  O
  O10      1.0000 0.28610  0.85610  0.82345  Biso   1.000  O
  O11      1.0000 0.74910  0.35960  0.30236  Biso   1.000  O
  O12      1.0000 0.25090  0.64040  0.69764  Biso   1.000  O
  O13      1.0000 0.93660  0.58130  0.05777  Biso   1.000  O
  O14      1.0000 0.06340  0.41870  0.94223  Biso   1.000  O
  O15      1.0000 0.80610  0.54300  0.19517  Biso   1.000  O
  O16      1.0000 0.19390  0.45700  0.80483  Biso   1.000  O
  O17      1.0000 0.71060  0.68970  0.10356  Biso   1.000  O
  O18      1.0000 0.28940  0.31030  0.89644  Biso   1.000  O
  O19      1.0000 0.23550  0.86720  0.30571  Biso   1.000  O
  O20      1.0000 0.76450  0.13280  0.69429  Biso   1.000  O
  O21      1.0000 0.21020  0.66250  0.17315  Biso   1.000  O
  O22      1.0000 0.78980  0.33750  0.82685  Biso   1.000  O
  O23      1.0000 0.07050  0.64350  0.31124  Biso   1.000  O
  O24      1.0000 0.92950  0.35650  0.68876  Biso   1.000  O
  O25      1.0000 0.48690  0.82090  0.16940  Biso   1.000  O
  O26      1.0000 0.51310  0.17910  0.83060  Biso   1.000  O
  H1       1.0000 0.57260  0.80090  0.14950  Biso   1.000  H
  H2       1.0000 0.42740  0.19910  0.85050  Biso   1.000  H
  H3       1.0000 0.42310  0.74840  0.16210  Biso   1.000  H
  H4       1.0000 0.57690  0.25160  0.83790  Biso   1.000  H
  O27      1.0000 0.33540  0.48020  0.05139  Biso   1.000  O
  O28      1.0000 0.66460  0.51980  0.94861  Biso   1.000  O
  H5       1.0000 0.38910  0.46450  0.09110  Biso   1.000  H
  H6       1.0000 0.61090  0.53550  0.90890  Biso   1.000  H
  H7       1.0000 0.35230  0.41330  0.00420  Biso   1.000  H
  H8       1.0000 0.64770  0.58670  0.99580  Biso   1.000  H
  O29      1.0000 0.01530  0.35480  0.13716  Biso   1.000  O
  O30      1.0000 0.98470  0.64520  0.86284  Biso   1.000  O
  H9       1.0000 0.08050  0.30620  0.14070  Biso   1.000  H
  H10      1.0000 0.91950  0.69380  0.85930  Biso   1.000  H
  H11      1.0000 0.93680  0.30670  0.10680  Biso   1.000  H
  H12      1.0000 0.06320  0.69330  0.89320  Biso   1.000  H
  O31      1.0000 0.84060  0.98570  0.04714  Biso   1.000  O
  O32      1.0000 0.15940  0.01430  0.95286  Biso   1.000  O
  H13      1.0000 0.89220  0.96900  0.08970  Biso   1.000  H
  H14      1.0000 0.10780  0.03100  0.91030  Biso   1.000  H
  H15      1.0000 0.85850  0.91840  0.00380  Biso   1.000  H
  H16      1.0000 0.14150  0.08160  0.99620  Biso   1.000  H
  O33      1.0000 0.54070  0.36940  0.13869  Biso   1.000  O
  O34      1.0000 0.45930  0.63060  0.86131  Biso   1.000  O
  H17      1.0000 0.61690  0.42530  0.16010  Biso   1.000  H
  H18      1.0000 0.38310  0.57470  0.83990  Biso   1.000  H
  O35      1.0000 0.02110  0.88970  0.15479  Biso   1.000  O
  O36      1.0000 0.97890  0.11030  0.84521  Biso   1.000  O
  H19      1.0000 0.09890  0.94140  0.17800  Biso   1.000  H
  H20      1.0000 0.90110  0.05860  0.82200  Biso   1.000  H
  O37      1.0000 0.73150  0.24420  0.00440  Biso   1.000  O
  O38      1.0000 0.26850  0.75580  0.99560  Biso   1.000  O
  H21      1.0000 0.70590  0.21270  0.95250  Biso   1.000  H
  H22      1.0000 0.29410  0.78730  0.04750  Biso   1.000  H
  H23      1.0000 0.66750  0.28180  0.03370  Biso   1.000  H
  H24      1.0000 0.33250  0.71820  0.96630  Biso   1.000  H
  C1       1.0000 0.48520  0.29320  0.20240  Biso   1.000  C
  C2       1.0000 0.51480  0.70680  0.79760  Biso   1.000  C
  C3       1.0000 0.41090  0.38550  0.27390  Biso   1.000  C
  C4       1.0000 0.58910  0.61450  0.72610  Biso   1.000  C
  H25      1.0000 0.48080  0.46910  0.30020  Biso   1.000  H
  H26      1.0000 0.51920  0.53090  0.69980  Biso   1.000  H
  H27      1.0000 0.38070  0.33710  0.31850  Biso   1.000  H
  H28      1.0000 0.61930  0.66290  0.68150  Biso   1.000  H
  H29      1.0000 0.32410  0.40870  0.24830  Biso   1.000  H
  H30      1.0000 0.67590  0.59130  0.75170  Biso   1.000  H
  C5       1.0000 0.97100  0.79450  0.20840  Biso   1.000  C
  C6       1.0000 0.02900  0.20550  0.79160  Biso   1.000  C
  C7       1.0000 0.87800  0.86130  0.28240  Biso   1.000  C
  C8       1.0000 0.12200  0.13870  0.71760  Biso   1.000  C
  H31      1.0000 0.94290  0.93270  0.32550  Biso   1.000  H
  H32      1.0000 0.05710  0.06730  0.67450  Biso   1.000  H
  H33      1.0000 0.82980  0.79180  0.31030  Biso   1.000  H
  H34      1.0000 0.17020  0.20820  0.68970  Biso   1.000  H
  H35      1.0000 0.80310  0.90140  0.25790  Biso   1.000  H
  H36      1.0000 0.19690  0.09860  0.74210  Biso   1.000  H
  C9       1.0000 0.65020  0.98840  0.43210  Biso   1.000  C
  C10      1.0000 0.34980  0.01160  0.56790  Biso   1.000  C
  H37      1.0000 0.67840  0.08130  0.43140  Biso   1.000  H
  H38      1.0000 0.32160  0.91870  0.56860  Biso   1.000  H
  C11      1.0000 0.73120  0.93430  0.48790  Biso   1.000  C
  C12      1.0000 0.26880  0.06570  0.51210  Biso   1.000  C
  H39      1.0000 0.80980  0.99220  0.52520  Biso   1.000  H
  H40      1.0000 0.19020  0.00780  0.47480  Biso   1.000  H
  C13      1.0000 0.69720  0.79610  0.48900  Biso   1.000  C
  C14      1.0000 0.30280  0.20390  0.51100  Biso   1.000  C
  C15      1.0000 0.57160  0.71670  0.43590  Biso   1.000  C
  C16      1.0000 0.42840  0.28330  0.56410  Biso   1.000  C
  H41      1.0000 0.54050  0.62410  0.43640  Biso   1.000  H
  H42      1.0000 0.45950  0.37590  0.56360  Biso   1.000  H
  C17      1.0000 0.49400  0.77700  0.38260  Biso   1.000  C
  C18      1.0000 0.50600  0.22300  0.61740  Biso   1.000  C
  H43      1.0000 0.41120  0.72230  0.34740  Biso   1.000  H
  H44      1.0000 0.58880  0.27770  0.65260  Biso   1.000  H
  C19      1.0000 0.78620  0.73020  0.54310  Biso   1.000  C
  C20      1.0000 0.21380  0.26980  0.45690  Biso   1.000  C
  C21      1.0000 0.79280  0.58990  0.51870  Biso   1.000  C
  C22      1.0000 0.20720  0.41010  0.48130  Biso   1.000  C
  H45      1.0000 0.74510  0.53440  0.46560  Biso   1.000  H
  H46      1.0000 0.25490  0.46560  0.53440  Biso   1.000  H
  C23      1.0000 0.87100  0.53250  0.57410  Biso   1.000  C
  C24      1.0000 0.12900  0.46750  0.42590  Biso   1.000  C
  H47      1.0000 0.86850  0.43700  0.55910  Biso   1.000  H
  H48      1.0000 0.13150  0.56300  0.44090  Biso   1.000  H
  C25      1.0000 0.94860  0.74780  0.66980  Biso   1.000  C
  C26      1.0000 0.05140  0.25220  0.33020  Biso   1.000  C
  H49      1.0000 0.00540  0.80310  0.72000  Biso   1.000  H
  H50      1.0000 0.99460  0.19690  0.28000  Biso   1.000  H
  C27      1.0000 0.86720  0.81010  0.62090  Biso   1.000  C
  C28      1.0000 0.13280  0.18990  0.37910  Biso   1.000  C
  H51      1.0000 0.86580  0.90480  0.63940  Biso   1.000  H
  H52      1.0000 0.13420  0.09520  0.36060  Biso   1.000  H
