data_image0
_cell_length_a       4.161
_cell_length_b       14.056
_cell_length_c       6.898
_cell_angle_alpha    90
_cell_angle_beta     97.24
_cell_angle_gamma    90

_symmetry_space_group_name_H-M    "P 1"
_symmetry_int_tables_number       1

loop_
  _symmetry_equiv_pos_as_xyz
  'x, y, z'

loop_
  _atom_site_label
  _atom_site_occupancy
  _atom_site_fract_x
  _atom_site_fract_y
  _atom_site_fract_z
  _atom_site_thermal_displace_type
  _atom_site_B_iso_or_equiv
  _atom_site_type_symbol
  Cu1      1.0000 0.00000  0.50000  0.50000  Biso   1.000  Cu
  Cu2      1.0000 0.00000  0.00000  0.50000  Biso   1.000  Cu
  S1       1.0000 0.19310  0.64540  0.64200  Biso   1.000  S
  S2       1.0000 0.80690  0.14540  0.35800  Biso   1.000  S
  S3       1.0000 0.80690  0.35460  0.35800  Biso   1.000  S
  S4       1.0000 0.19310  0.85460  0.64200  Biso   1.000  S
  S5       1.0000 0.25380  0.75000  0.02440  Biso   1.000  S
  S6       1.0000 0.74620  0.25000  0.97560  Biso   1.000  S
  Cl1      1.0000 0.63220  0.56450  0.27690  Biso   1.000  Cl
  Cl2      1.0000 0.36780  0.06450  0.72310  Biso   1.000  Cl
  Cl3      1.0000 0.36780  0.43550  0.72310  Biso   1.000  Cl
  Cl4      1.0000 0.63220  0.93550  0.27690  Biso   1.000  Cl
  C1       1.0000 0.98840  0.75000  0.53340  Biso   1.000  C
  C2       1.0000 0.01160  0.25000  0.46660  Biso   1.000  C
  C3       1.0000 0.06740  0.65170  0.88390  Biso   1.000  C
  C4       1.0000 0.93260  0.15170  0.11610  Biso   1.000  C
  C5       1.0000 0.93260  0.34830  0.11610  Biso   1.000  C
  C6       1.0000 0.06740  0.84830  0.88390  Biso   1.000  C
  H1       1.0000 0.00900  0.75000  0.41080  Biso   1.000  H
  H2       1.0000 0.99100  0.25000  0.58920  Biso   1.000  H
  H3       1.0000 0.75790  0.75000  0.56130  Biso   1.000  H
  H4       1.0000 0.24210  0.25000  0.43870  Biso   1.000  H
  H5       1.0000 0.17550  0.59480  0.94920  Biso   1.000  H
  H6       1.0000 0.82450  0.09480  0.05080  Biso   1.000  H
  H7       1.0000 0.82450  0.40520  0.05080  Biso   1.000  H
  H8       1.0000 0.17550  0.90520  0.94920  Biso   1.000  H
  H9       1.0000 0.83240  0.65600  0.88110  Biso   1.000  H
  H10      1.0000 0.16760  0.15600  0.11890  Biso   1.000  H
  H11      1.0000 0.16760  0.34400  0.11890  Biso   1.000  H
  H12      1.0000 0.83240  0.84400  0.88110  Biso   1.000  H
