data_image0
_cell_length_a       11.298
_cell_length_b       18.9808
_cell_length_c       14.7022
_cell_angle_alpha    90
_cell_angle_beta     101.983
_cell_angle_gamma    90

_symmetry_space_group_name_H-M    "P 1"
_symmetry_int_tables_number       1

loop_
  _symmetry_equiv_pos_as_xyz
  'x, y, z'

loop_
  _atom_site_label
  _atom_site_occupancy
  _atom_site_fract_x
  _atom_site_fract_y
  _atom_site_fract_z
  _atom_site_thermal_displace_type
  _atom_site_B_iso_or_equiv
  _atom_site_type_symbol
  Cu1      1.0000 0.75000  0.25000  0.00000  Biso   1.000  Cu
  Cu2      1.0000 0.25000  0.75000  0.00000  Biso   1.000  Cu
  Cu3      1.0000 0.25000  0.25000  0.50000  Biso   1.000  Cu
  Cu4      1.0000 0.75000  0.75000  0.50000  Biso   1.000  Cu
  N1       1.0000 0.77544  0.25813  0.13508  Biso   1.000  N
  N2       1.0000 0.27544  0.75813  0.13508  Biso   1.000  N
  N3       1.0000 0.22456  0.25813  0.36492  Biso   1.000  N
  N4       1.0000 0.72456  0.75813  0.36492  Biso   1.000  N
  N5       1.0000 0.22456  0.74187  0.86492  Biso   1.000  N
  N6       1.0000 0.72456  0.24187  0.86492  Biso   1.000  N
  N7       1.0000 0.77544  0.74187  0.63508  Biso   1.000  N
  N8       1.0000 0.27544  0.24187  0.63508  Biso   1.000  N
  H1       1.0000 0.83540  0.23820  0.16700  Biso   1.000  H
  H2       1.0000 0.33540  0.73820  0.16700  Biso   1.000  H
  H3       1.0000 0.16460  0.23820  0.33300  Biso   1.000  H
  H4       1.0000 0.66460  0.73820  0.33300  Biso   1.000  H
  H5       1.0000 0.16460  0.76180  0.83300  Biso   1.000  H
  H6       1.0000 0.66460  0.26180  0.83300  Biso   1.000  H
  H7       1.0000 0.83540  0.76180  0.66700  Biso   1.000  H
  H8       1.0000 0.33540  0.26180  0.66700  Biso   1.000  H
  S1       1.0000 0.69568  0.30094  0.19367  Biso   1.000  S
  S2       1.0000 0.19568  0.80094  0.19367  Biso   1.000  S
  S3       1.0000 0.30432  0.30094  0.30633  Biso   1.000  S
  S4       1.0000 0.80432  0.80094  0.30633  Biso   1.000  S
  S5       1.0000 0.30432  0.69906  0.80633  Biso   1.000  S
  S6       1.0000 0.80432  0.19906  0.80633  Biso   1.000  S
  S7       1.0000 0.69568  0.69906  0.69367  Biso   1.000  S
  S8       1.0000 0.19568  0.19906  0.69367  Biso   1.000  S
  C1       1.0000 0.66610  0.24272  0.28313  Biso   1.000  C
  C2       1.0000 0.16610  0.74272  0.28313  Biso   1.000  C
  C3       1.0000 0.33390  0.24272  0.21687  Biso   1.000  C
  C4       1.0000 0.83390  0.74272  0.21687  Biso   1.000  C
  C5       1.0000 0.33390  0.75728  0.71687  Biso   1.000  C
  C6       1.0000 0.83390  0.25728  0.71687  Biso   1.000  C
  C7       1.0000 0.66610  0.75728  0.78313  Biso   1.000  C
  C8       1.0000 0.16610  0.25728  0.78313  Biso   1.000  C
  C9       1.0000 0.63130  0.26962  0.36111  Biso   1.000  C
  C10      1.0000 0.13130  0.76962  0.36111  Biso   1.000  C
  C11      1.0000 0.36870  0.26962  0.13889  Biso   1.000  C
  C12      1.0000 0.86870  0.76962  0.13889  Biso   1.000  C
  C13      1.0000 0.36870  0.73038  0.63889  Biso   1.000  C
  C14      1.0000 0.86870  0.23038  0.63889  Biso   1.000  C
  C15      1.0000 0.63130  0.73038  0.86111  Biso   1.000  C
  C16      1.0000 0.13130  0.23038  0.86111  Biso   1.000  C
  H9       1.0000 0.62720  0.31800  0.36960  Biso   1.000  H
  H10      1.0000 0.12720  0.81800  0.36960  Biso   1.000  H
  H11      1.0000 0.37280  0.31800  0.13040  Biso   1.000  H
  H12      1.0000 0.87280  0.81800  0.13040  Biso   1.000  H
  H13      1.0000 0.37280  0.68200  0.63040  Biso   1.000  H
  H14      1.0000 0.87280  0.18200  0.63040  Biso   1.000  H
  H15      1.0000 0.62720  0.68200  0.86960  Biso   1.000  H
  H16      1.0000 0.12720  0.18200  0.86960  Biso   1.000  H
  C17      1.0000 0.60260  0.22363  0.42619  Biso   1.000  C
  C18      1.0000 0.10260  0.72363  0.42619  Biso   1.000  C
  C19      1.0000 0.39740  0.22363  0.07381  Biso   1.000  C
  C20      1.0000 0.89740  0.72363  0.07381  Biso   1.000  C
  C21      1.0000 0.39740  0.77637  0.57381  Biso   1.000  C
  C22      1.0000 0.89740  0.27637  0.57381  Biso   1.000  C
  C23      1.0000 0.60260  0.77637  0.92619  Biso   1.000  C
  C24      1.0000 0.10260  0.27637  0.92619  Biso   1.000  C
  H17      1.0000 0.57800  0.24110  0.47840  Biso   1.000  H
  H18      1.0000 0.07800  0.74110  0.47840  Biso   1.000  H
  H19      1.0000 0.42200  0.24110  0.02160  Biso   1.000  H
  H20      1.0000 0.92200  0.74110  0.02160  Biso   1.000  H
  H21      1.0000 0.42200  0.75890  0.52160  Biso   1.000  H
  H22      1.0000 0.92200  0.25890  0.52160  Biso   1.000  H
  H23      1.0000 0.57800  0.75890  0.97840  Biso   1.000  H
  H24      1.0000 0.07800  0.25890  0.97840  Biso   1.000  H
  C25      1.0000 0.61040  0.15251  0.41398  Biso   1.000  C
  C26      1.0000 0.11040  0.65251  0.41398  Biso   1.000  C
  C27      1.0000 0.38960  0.15251  0.08602  Biso   1.000  C
  C28      1.0000 0.88960  0.65251  0.08602  Biso   1.000  C
  C29      1.0000 0.38960  0.84749  0.58602  Biso   1.000  C
  C30      1.0000 0.88960  0.34749  0.58602  Biso   1.000  C
  C31      1.0000 0.61040  0.84749  0.91398  Biso   1.000  C
  C32      1.0000 0.11040  0.34749  0.91398  Biso   1.000  C
  H25      1.0000 0.59310  0.12180  0.45880  Biso   1.000  H
  H26      1.0000 0.09310  0.62180  0.45880  Biso   1.000  H
  H27      1.0000 0.40690  0.12180  0.04120  Biso   1.000  H
  H28      1.0000 0.90690  0.62180  0.04120  Biso   1.000  H
  H29      1.0000 0.40690  0.87820  0.54120  Biso   1.000  H
  H30      1.0000 0.90690  0.37820  0.54120  Biso   1.000  H
  H31      1.0000 0.59310  0.87820  0.95880  Biso   1.000  H
  H32      1.0000 0.09310  0.37820  0.95880  Biso   1.000  H
  C33      1.0000 0.64360  0.12623  0.33600  Biso   1.000  C
  C34      1.0000 0.14360  0.62623  0.33600  Biso   1.000  C
  C35      1.0000 0.35640  0.12623  0.16400  Biso   1.000  C
  C36      1.0000 0.85640  0.62623  0.16400  Biso   1.000  C
  C37      1.0000 0.35640  0.87377  0.66400  Biso   1.000  C
  C38      1.0000 0.85640  0.37377  0.66400  Biso   1.000  C
  C39      1.0000 0.64360  0.87377  0.83600  Biso   1.000  C
  C40      1.0000 0.14360  0.37377  0.83600  Biso   1.000  C
  H33      1.0000 0.64810  0.07780  0.32820  Biso   1.000  H
  H34      1.0000 0.14810  0.57780  0.32820  Biso   1.000  H
  H35      1.0000 0.35190  0.07780  0.17180  Biso   1.000  H
  H36      1.0000 0.85190  0.57780  0.17180  Biso   1.000  H
  H37      1.0000 0.35190  0.92220  0.67180  Biso   1.000  H
  H38      1.0000 0.85190  0.42220  0.67180  Biso   1.000  H
  H39      1.0000 0.64810  0.92220  0.82820  Biso   1.000  H
  H40      1.0000 0.14810  0.42220  0.82820  Biso   1.000  H
  C41      1.0000 0.67040  0.17115  0.26893  Biso   1.000  C
  C42      1.0000 0.17040  0.67115  0.26893  Biso   1.000  C
  C43      1.0000 0.32960  0.17115  0.23107  Biso   1.000  C
  C44      1.0000 0.82960  0.67115  0.23107  Biso   1.000  C
  C45      1.0000 0.32960  0.82885  0.73107  Biso   1.000  C
  C46      1.0000 0.82960  0.32885  0.73107  Biso   1.000  C
  C47      1.0000 0.67040  0.82885  0.76893  Biso   1.000  C
  C48      1.0000 0.17040  0.32885  0.76893  Biso   1.000  C
  H41      1.0000 0.69080  0.15330  0.21530  Biso   1.000  H
  H42      1.0000 0.19080  0.65330  0.21530  Biso   1.000  H
  H43      1.0000 0.30920  0.15330  0.28470  Biso   1.000  H
  H44      1.0000 0.80920  0.65330  0.28470  Biso   1.000  H
  H45      1.0000 0.30920  0.84670  0.78470  Biso   1.000  H
  H46      1.0000 0.80920  0.34670  0.78470  Biso   1.000  H
  H47      1.0000 0.69080  0.84670  0.71530  Biso   1.000  H
  H48      1.0000 0.19080  0.34670  0.71530  Biso   1.000  H
  C49      1.0000 0.78678  0.36494  0.26557  Biso   1.000  C
  C50      1.0000 0.28678  0.86494  0.26557  Biso   1.000  C
  C51      1.0000 0.21322  0.36494  0.23443  Biso   1.000  C
  C52      1.0000 0.71322  0.86494  0.23443  Biso   1.000  C
  C53      1.0000 0.21322  0.63506  0.73443  Biso   1.000  C
  C54      1.0000 0.71322  0.13506  0.73443  Biso   1.000  C
  C55      1.0000 0.78678  0.63506  0.76557  Biso   1.000  C
  C56      1.0000 0.28678  0.13506  0.76557  Biso   1.000  C
  C57      1.0000 0.89890  0.34830  0.31765  Biso   1.000  C
  C58      1.0000 0.39890  0.84830  0.31765  Biso   1.000  C
  C59      1.0000 0.10110  0.34830  0.18235  Biso   1.000  C
  C60      1.0000 0.60110  0.84830  0.18235  Biso   1.000  C
  C61      1.0000 0.10110  0.65170  0.68235  Biso   1.000  C
  C62      1.0000 0.60110  0.15170  0.68235  Biso   1.000  C
  C63      1.0000 0.89890  0.65170  0.81765  Biso   1.000  C
  C64      1.0000 0.39890  0.15170  0.81765  Biso   1.000  C
  H49      1.0000 0.92900  0.30270  0.31810  Biso   1.000  H
  H50      1.0000 0.42900  0.80270  0.31810  Biso   1.000  H
  H51      1.0000 0.07100  0.30270  0.18190  Biso   1.000  H
  H52      1.0000 0.57100  0.80270  0.18190  Biso   1.000  H
  H53      1.0000 0.07100  0.69730  0.68190  Biso   1.000  H
  H54      1.0000 0.57100  0.19730  0.68190  Biso   1.000  H
  H55      1.0000 0.92900  0.69730  0.81810  Biso   1.000  H
  H56      1.0000 0.42900  0.19730  0.81810  Biso   1.000  H
  C65      1.0000 0.96660  0.40150  0.36988  Biso   1.000  C
  C66      1.0000 0.46660  0.90150  0.36988  Biso   1.000  C
  C67      1.0000 0.03340  0.40150  0.13012  Biso   1.000  C
  C68      1.0000 0.53340  0.90150  0.13012  Biso   1.000  C
  C69      1.0000 0.03340  0.59850  0.63012  Biso   1.000  C
  C70      1.0000 0.53340  0.09850  0.63012  Biso   1.000  C
  C71      1.0000 0.96660  0.59850  0.86988  Biso   1.000  C
  C72      1.0000 0.46660  0.09850  0.86988  Biso   1.000  C
  H57      1.0000 0.04370  0.39200  0.40420  Biso   1.000  H
  H58      1.0000 0.54370  0.89200  0.40420  Biso   1.000  H
  H59      1.0000 0.95630  0.39200  0.09580  Biso   1.000  H
  H60      1.0000 0.45630  0.89200  0.09580  Biso   1.000  H
  H61      1.0000 0.95630  0.60800  0.59580  Biso   1.000  H
  H62      1.0000 0.45630  0.10800  0.59580  Biso   1.000  H
  H63      1.0000 0.04370  0.60800  0.90420  Biso   1.000  H
  H64      1.0000 0.54370  0.10800  0.90420  Biso   1.000  H
  C73      1.0000 0.91860  0.46820  0.37030  Biso   1.000  C
  C74      1.0000 0.41860  0.96820  0.37030  Biso   1.000  C
  C75      1.0000 0.08140  0.46820  0.12970  Biso   1.000  C
  C76      1.0000 0.58140  0.96820  0.12970  Biso   1.000  C
  C77      1.0000 0.08140  0.53180  0.62970  Biso   1.000  C
  C78      1.0000 0.58140  0.03180  0.62970  Biso   1.000  C
  C79      1.0000 0.91860  0.53180  0.87030  Biso   1.000  C
  C80      1.0000 0.41860  0.03180  0.87030  Biso   1.000  C
  H65      1.0000 0.96360  0.50340  0.40570  Biso   1.000  H
  H66      1.0000 0.46360  0.00340  0.40570  Biso   1.000  H
  H67      1.0000 0.03640  0.50340  0.09430  Biso   1.000  H
  H68      1.0000 0.53640  0.00340  0.09430  Biso   1.000  H
  H69      1.0000 0.03640  0.49660  0.59430  Biso   1.000  H
  H70      1.0000 0.53640  0.99660  0.59430  Biso   1.000  H
  H71      1.0000 0.96360  0.49660  0.90570  Biso   1.000  H
  H72      1.0000 0.46360  0.99660  0.90570  Biso   1.000  H
  C81      1.0000 0.80700  0.48323  0.31990  Biso   1.000  C
  C82      1.0000 0.30700  0.98323  0.31990  Biso   1.000  C
  C83      1.0000 0.19300  0.48323  0.18010  Biso   1.000  C
  C84      1.0000 0.69300  0.98323  0.18010  Biso   1.000  C
  C85      1.0000 0.19300  0.51677  0.68010  Biso   1.000  C
  C86      1.0000 0.69300  0.01677  0.68010  Biso   1.000  C
  C87      1.0000 0.80700  0.51677  0.81990  Biso   1.000  C
  C88      1.0000 0.30700  0.01677  0.81990  Biso   1.000  C
  H73      1.0000 0.77550  0.52830  0.32210  Biso   1.000  H
  H74      1.0000 0.27550  0.02830  0.32210  Biso   1.000  H
  H75      1.0000 0.22450  0.52830  0.17790  Biso   1.000  H
  H76      1.0000 0.72450  0.02830  0.17790  Biso   1.000  H
  H77      1.0000 0.22450  0.47170  0.67790  Biso   1.000  H
  H78      1.0000 0.72450  0.97170  0.67790  Biso   1.000  H
  H79      1.0000 0.77550  0.47170  0.82210  Biso   1.000  H
  H80      1.0000 0.27550  0.97170  0.82210  Biso   1.000  H
  C89      1.0000 0.73960  0.43241  0.26530  Biso   1.000  C
  C90      1.0000 0.23960  0.93241  0.26530  Biso   1.000  C
  C91      1.0000 0.26040  0.43241  0.23470  Biso   1.000  C
  C92      1.0000 0.76040  0.93241  0.23470  Biso   1.000  C
  C93      1.0000 0.26040  0.56759  0.73470  Biso   1.000  C
  C94      1.0000 0.76040  0.06759  0.73470  Biso   1.000  C
  C95      1.0000 0.73960  0.56759  0.76530  Biso   1.000  C
  C96      1.0000 0.23960  0.06759  0.76530  Biso   1.000  C
  H81      1.0000 0.66410  0.44310  0.22910  Biso   1.000  H
  H82      1.0000 0.16410  0.94310  0.22910  Biso   1.000  H
  H83      1.0000 0.33590  0.44310  0.27090  Biso   1.000  H
  H84      1.0000 0.83590  0.94310  0.27090  Biso   1.000  H
  H85      1.0000 0.33590  0.55690  0.77090  Biso   1.000  H
  H86      1.0000 0.83590  0.05690  0.77090  Biso   1.000  H
  H87      1.0000 0.66410  0.55690  0.72910  Biso   1.000  H
  H88      1.0000 0.16410  0.05690  0.72910  Biso   1.000  H
  O1       1.0000 0.88191  0.17861  0.01823  Biso   1.000  O
  O2       1.0000 0.38191  0.67861  0.01823  Biso   1.000  O
  O3       1.0000 0.11809  0.17861  0.48177  Biso   1.000  O
  O4       1.0000 0.61809  0.67861  0.48177  Biso   1.000  O
  O5       1.0000 0.11809  0.82139  0.98177  Biso   1.000  O
  O6       1.0000 0.61809  0.32139  0.98177  Biso   1.000  O
  O7       1.0000 0.88191  0.82139  0.51823  Biso   1.000  O
  O8       1.0000 0.38191  0.32139  0.51823  Biso   1.000  O
  O9       1.0000 0.72981  0.10391  0.01390  Biso   1.000  O
  O10      1.0000 0.22981  0.60391  0.01390  Biso   1.000  O
  O11      1.0000 0.27019  0.10391  0.48610  Biso   1.000  O
  O12      1.0000 0.77019  0.60391  0.48610  Biso   1.000  O
  O13      1.0000 0.27019  0.89609  0.98610  Biso   1.000  O
  O14      1.0000 0.77019  0.39609  0.98610  Biso   1.000  O
  O15      1.0000 0.72981  0.89609  0.51390  Biso   1.000  O
  O16      1.0000 0.22981  0.39609  0.51390  Biso   1.000  O
  C97      1.0000 0.83619  0.11648  0.01346  Biso   1.000  C
  C98      1.0000 0.33619  0.61648  0.01346  Biso   1.000  C
  C99      1.0000 0.16381  0.11648  0.48654  Biso   1.000  C
  C100     1.0000 0.66381  0.61648  0.48654  Biso   1.000  C
  C101     1.0000 0.16381  0.88352  0.98654  Biso   1.000  C
  C102     1.0000 0.66381  0.38352  0.98654  Biso   1.000  C
  C103     1.0000 0.83619  0.88352  0.51346  Biso   1.000  C
  C104     1.0000 0.33619  0.38352  0.51346  Biso   1.000  C
  C105     1.0000 0.92268  0.05639  0.00671  Biso   1.000  C
  C106     1.0000 0.42268  0.55639  0.00671  Biso   1.000  C
  C107     1.0000 0.07732  0.05639  0.49329  Biso   1.000  C
  C108     1.0000 0.57732  0.55639  0.49329  Biso   1.000  C
  C109     1.0000 0.07732  0.94361  0.99329  Biso   1.000  C
  C110     1.0000 0.57732  0.44361  0.99329  Biso   1.000  C
  C111     1.0000 0.92268  0.94361  0.50671  Biso   1.000  C
  C112     1.0000 0.42268  0.44361  0.50671  Biso   1.000  C
  C113     1.0000 0.04385  0.06827  0.00707  Biso   1.000  C
  C114     1.0000 0.54385  0.56827  0.00707  Biso   1.000  C
  C115     1.0000 0.95615  0.06827  0.49293  Biso   1.000  C
  C116     1.0000 0.45615  0.56827  0.49293  Biso   1.000  C
  C117     1.0000 0.95615  0.93173  0.99293  Biso   1.000  C
  C118     1.0000 0.45615  0.43173  0.99293  Biso   1.000  C
  C119     1.0000 0.04385  0.93173  0.50707  Biso   1.000  C
  C120     1.0000 0.54385  0.43173  0.50707  Biso   1.000  C
  H89      1.0000 0.07390  0.11400  0.01180  Biso   1.000  H
  H90      1.0000 0.57390  0.61400  0.01180  Biso   1.000  H
  H91      1.0000 0.92610  0.11400  0.48820  Biso   1.000  H
  H92      1.0000 0.42610  0.61400  0.48820  Biso   1.000  H
  H93      1.0000 0.92610  0.88600  0.98820  Biso   1.000  H
  H94      1.0000 0.42610  0.38600  0.98820  Biso   1.000  H
  H95      1.0000 0.07390  0.88600  0.51180  Biso   1.000  H
  H96      1.0000 0.57390  0.38600  0.51180  Biso   1.000  H
  C121     1.0000 0.87929  0.98776  0.99960  Biso   1.000  C
  C122     1.0000 0.37929  0.48776  0.99960  Biso   1.000  C
  C123     1.0000 0.12071  0.98776  0.50040  Biso   1.000  C
  C124     1.0000 0.62071  0.48776  0.50040  Biso   1.000  C
  C125     1.0000 0.12071  0.01224  0.00040  Biso   1.000  C
  C126     1.0000 0.62071  0.51224  0.00040  Biso   1.000  C
  C127     1.0000 0.87929  0.01224  0.49960  Biso   1.000  C
  C128     1.0000 0.37929  0.51224  0.49960  Biso   1.000  C
  H97      1.0000 0.79820  0.97920  0.99930  Biso   1.000  H
  H98      1.0000 0.29820  0.47920  0.99930  Biso   1.000  H
  H99      1.0000 0.20180  0.97920  0.50070  Biso   1.000  H
  H100     1.0000 0.70180  0.47920  0.50070  Biso   1.000  H
  H101     1.0000 0.20180  0.02080  0.00070  Biso   1.000  H
  H102     1.0000 0.70180  0.52080  0.00070  Biso   1.000  H
  H103     1.0000 0.79820  0.02080  0.49930  Biso   1.000  H
  H104     1.0000 0.29820  0.52080  0.49930  Biso   1.000  H
  C129     1.0000 0.00000  0.11010  0.25000  Biso   1.000  C
  C130     1.0000 0.50000  0.61010  0.25000  Biso   1.000  C
  C131     1.0000 0.00000  0.88990  0.75000  Biso   1.000  C
  C132     1.0000 0.50000  0.38990  0.75000  Biso   1.000  C
  O17      1.0000 0.01370  0.17785  0.21030  Biso   1.000  O
  O18      1.0000 0.51370  0.67785  0.21030  Biso   1.000  O
  O19      1.0000 0.98630  0.17785  0.28970  Biso   1.000  O
  O20      1.0000 0.48630  0.67785  0.28970  Biso   1.000  O
  O21      1.0000 0.98630  0.82215  0.78970  Biso   1.000  O
  O22      1.0000 0.48630  0.32215  0.78970  Biso   1.000  O
  O23      1.0000 0.01370  0.82215  0.71030  Biso   1.000  O
  O24      1.0000 0.51370  0.32215  0.71030  Biso   1.000  O
  H105     1.0000 0.00100  0.17200  0.14810  Biso   1.000  H
  H106     1.0000 0.50100  0.67200  0.14810  Biso   1.000  H
  H107     1.0000 0.99900  0.17200  0.35190  Biso   1.000  H
  H108     1.0000 0.49900  0.67200  0.35190  Biso   1.000  H
  H109     1.0000 0.99900  0.82800  0.85190  Biso   1.000  H
  H110     1.0000 0.49900  0.32800  0.85190  Biso   1.000  H
  H111     1.0000 0.00100  0.82800  0.64810  Biso   1.000  H
  H112     1.0000 0.50100  0.32800  0.64810  Biso   1.000  H
