data_image0
_cell_length_a       17.875
_cell_length_b       7.3093
_cell_length_c       20.382
_cell_angle_alpha    90
_cell_angle_beta     92.89
_cell_angle_gamma    90

_symmetry_space_group_name_H-M    "P 1"
_symmetry_int_tables_number       1

loop_
  _symmetry_equiv_pos_as_xyz
  'x, y, z'

loop_
  _atom_site_label
  _atom_site_occupancy
  _atom_site_fract_x
  _atom_site_fract_y
  _atom_site_fract_z
  _atom_site_thermal_displace_type
  _atom_site_B_iso_or_equiv
  _atom_site_type_symbol
  Cu1      1.0000 0.16228  0.69740  0.21049  Biso   1.000  Cu
  Cu2      1.0000 0.66228  0.19740  0.21049  Biso   1.000  Cu
  Cu3      1.0000 0.83772  0.69740  0.28951  Biso   1.000  Cu
  Cu4      1.0000 0.33772  0.19740  0.28951  Biso   1.000  Cu
  Cu5      1.0000 0.83772  0.30260  0.78951  Biso   1.000  Cu
  Cu6      1.0000 0.33772  0.80260  0.78951  Biso   1.000  Cu
  Cu7      1.0000 0.16228  0.30260  0.71049  Biso   1.000  Cu
  Cu8      1.0000 0.66228  0.80260  0.71049  Biso   1.000  Cu
  C1       1.0000 0.18704  0.24710  0.05961  Biso   1.000  C
  C2       1.0000 0.68704  0.74710  0.05961  Biso   1.000  C
  C3       1.0000 0.81296  0.24710  0.44039  Biso   1.000  C
  C4       1.0000 0.31296  0.74710  0.44039  Biso   1.000  C
  C5       1.0000 0.81296  0.75290  0.94039  Biso   1.000  C
  C6       1.0000 0.31296  0.25290  0.94039  Biso   1.000  C
  C7       1.0000 0.18704  0.75290  0.55961  Biso   1.000  C
  C8       1.0000 0.68704  0.25290  0.55961  Biso   1.000  C
  H1       1.0000 0.23620  0.24000  0.07670  Biso   1.000  H
  H2       1.0000 0.73620  0.74000  0.07670  Biso   1.000  H
  H3       1.0000 0.76380  0.24000  0.42330  Biso   1.000  H
  H4       1.0000 0.26380  0.74000  0.42330  Biso   1.000  H
  H5       1.0000 0.76380  0.76000  0.92330  Biso   1.000  H
  H6       1.0000 0.26380  0.26000  0.92330  Biso   1.000  H
  H7       1.0000 0.23620  0.76000  0.57670  Biso   1.000  H
  H8       1.0000 0.73620  0.26000  0.57670  Biso   1.000  H
  C9       1.0000 0.16549  0.38990  0.01862  Biso   1.000  C
  C10      1.0000 0.66549  0.88990  0.01862  Biso   1.000  C
  C11      1.0000 0.83451  0.38990  0.48138  Biso   1.000  C
  C12      1.0000 0.33451  0.88990  0.48138  Biso   1.000  C
  C13      1.0000 0.83451  0.61010  0.98138  Biso   1.000  C
  C14      1.0000 0.33451  0.11010  0.98138  Biso   1.000  C
  C15      1.0000 0.16549  0.61010  0.51862  Biso   1.000  C
  C16      1.0000 0.66549  0.11010  0.51862  Biso   1.000  C
  H9       1.0000 0.19970  0.48110  0.00930  Biso   1.000  H
  H10      1.0000 0.69970  0.98110  0.00930  Biso   1.000  H
  H11      1.0000 0.80030  0.48110  0.49070  Biso   1.000  H
  H12      1.0000 0.30030  0.98110  0.49070  Biso   1.000  H
  H13      1.0000 0.80030  0.51890  0.99070  Biso   1.000  H
  H14      1.0000 0.30030  0.01890  0.99070  Biso   1.000  H
  H15      1.0000 0.19970  0.51890  0.50930  Biso   1.000  H
  H16      1.0000 0.69970  0.01890  0.50930  Biso   1.000  H
  C17      1.0000 0.09339  0.39770  0.99139  Biso   1.000  C
  C18      1.0000 0.59339  0.89770  0.99139  Biso   1.000  C
  C19      1.0000 0.90661  0.39770  0.50861  Biso   1.000  C
  C20      1.0000 0.40661  0.89770  0.50861  Biso   1.000  C
  C21      1.0000 0.90661  0.60230  0.00861  Biso   1.000  C
  C22      1.0000 0.40661  0.10230  0.00861  Biso   1.000  C
  C23      1.0000 0.09339  0.60230  0.49139  Biso   1.000  C
  C24      1.0000 0.59339  0.10230  0.49139  Biso   1.000  C
  H17      1.0000 0.07980  0.49030  0.96190  Biso   1.000  H
  H18      1.0000 0.57980  0.99030  0.96190  Biso   1.000  H
  H19      1.0000 0.92020  0.49030  0.53810  Biso   1.000  H
  H20      1.0000 0.42020  0.99030  0.53810  Biso   1.000  H
  H21      1.0000 0.92020  0.50970  0.03810  Biso   1.000  H
  H22      1.0000 0.42020  0.00970  0.03810  Biso   1.000  H
  H23      1.0000 0.07980  0.50970  0.46190  Biso   1.000  H
  H24      1.0000 0.57980  0.00970  0.46190  Biso   1.000  H
  C25      1.0000 0.04163  0.26860  0.00783  Biso   1.000  C
  C26      1.0000 0.54163  0.76860  0.00783  Biso   1.000  C
  C27      1.0000 0.95837  0.26860  0.49217  Biso   1.000  C
  C28      1.0000 0.45837  0.76860  0.49217  Biso   1.000  C
  C29      1.0000 0.95837  0.73140  0.99217  Biso   1.000  C
  C30      1.0000 0.45837  0.23140  0.99217  Biso   1.000  C
  C31      1.0000 0.04163  0.73140  0.50783  Biso   1.000  C
  C32      1.0000 0.54163  0.23140  0.50783  Biso   1.000  C
  H25      1.0000 0.99280  0.27580  0.99000  Biso   1.000  H
  H26      1.0000 0.49280  0.77580  0.99000  Biso   1.000  H
  H27      1.0000 0.00720  0.27580  0.51000  Biso   1.000  H
  H28      1.0000 0.50720  0.77580  0.51000  Biso   1.000  H
  H29      1.0000 0.00720  0.72420  0.01000  Biso   1.000  H
  H30      1.0000 0.50720  0.22420  0.01000  Biso   1.000  H
  H31      1.0000 0.99280  0.72420  0.49000  Biso   1.000  H
  H32      1.0000 0.49280  0.22420  0.49000  Biso   1.000  H
  C33      1.0000 0.06158  0.12840  0.05060  Biso   1.000  C
  C34      1.0000 0.56158  0.62840  0.05060  Biso   1.000  C
  C35      1.0000 0.93842  0.12840  0.44940  Biso   1.000  C
  C36      1.0000 0.43842  0.62840  0.44940  Biso   1.000  C
  C37      1.0000 0.93842  0.87160  0.94940  Biso   1.000  C
  C38      1.0000 0.43842  0.37160  0.94940  Biso   1.000  C
  C39      1.0000 0.06158  0.87160  0.55060  Biso   1.000  C
  C40      1.0000 0.56158  0.37160  0.55060  Biso   1.000  C
  H33      1.0000 0.02590  0.04400  0.06280  Biso   1.000  H
  H34      1.0000 0.52590  0.54400  0.06280  Biso   1.000  H
  H35      1.0000 0.97410  0.04400  0.43720  Biso   1.000  H
  H36      1.0000 0.47410  0.54400  0.43720  Biso   1.000  H
  H37      1.0000 0.97410  0.95600  0.93720  Biso   1.000  H
  H38      1.0000 0.47410  0.45600  0.93720  Biso   1.000  H
  H39      1.0000 0.02590  0.95600  0.56280  Biso   1.000  H
  H40      1.0000 0.52590  0.45600  0.56280  Biso   1.000  H
  C41      1.0000 0.13539  0.11380  0.07538  Biso   1.000  C
  C42      1.0000 0.63539  0.61380  0.07538  Biso   1.000  C
  C43      1.0000 0.86461  0.11380  0.42462  Biso   1.000  C
  C44      1.0000 0.36461  0.61380  0.42462  Biso   1.000  C
  C45      1.0000 0.86461  0.88620  0.92462  Biso   1.000  C
  C46      1.0000 0.36461  0.38620  0.92462  Biso   1.000  C
  C47      1.0000 0.13539  0.88620  0.57538  Biso   1.000  C
  C48      1.0000 0.63539  0.38620  0.57538  Biso   1.000  C
  C49      1.0000 0.15840  0.95290  0.11587  Biso   1.000  C
  C50      1.0000 0.65840  0.45290  0.11587  Biso   1.000  C
  C51      1.0000 0.84160  0.95290  0.38413  Biso   1.000  C
  C52      1.0000 0.34160  0.45290  0.38413  Biso   1.000  C
  C53      1.0000 0.84160  0.04710  0.88413  Biso   1.000  C
  C54      1.0000 0.34160  0.54710  0.88413  Biso   1.000  C
  C55      1.0000 0.15840  0.04710  0.61587  Biso   1.000  C
  C56      1.0000 0.65840  0.54710  0.61587  Biso   1.000  C
  C57      1.0000 0.28701  0.61410  0.14051  Biso   1.000  C
  C58      1.0000 0.78701  0.11410  0.14051  Biso   1.000  C
  C59      1.0000 0.71299  0.61410  0.35949  Biso   1.000  C
  C60      1.0000 0.21299  0.11410  0.35949  Biso   1.000  C
  C61      1.0000 0.71299  0.38590  0.85949  Biso   1.000  C
  C62      1.0000 0.21299  0.88590  0.85949  Biso   1.000  C
  C63      1.0000 0.28701  0.38590  0.64051  Biso   1.000  C
  C64      1.0000 0.78701  0.88590  0.64051  Biso   1.000  C
  C65      1.0000 0.28390  0.47350  0.19456  Biso   1.000  C
  C66      1.0000 0.78390  0.97350  0.19456  Biso   1.000  C
  C67      1.0000 0.71610  0.47350  0.30544  Biso   1.000  C
  C68      1.0000 0.21610  0.97350  0.30544  Biso   1.000  C
  C69      1.0000 0.71610  0.52650  0.80544  Biso   1.000  C
  C70      1.0000 0.21610  0.02650  0.80544  Biso   1.000  C
  C71      1.0000 0.28390  0.52650  0.69456  Biso   1.000  C
  C72      1.0000 0.78390  0.02650  0.69456  Biso   1.000  C
  C73      1.0000 0.34391  0.60830  0.08978  Biso   1.000  C
  C74      1.0000 0.84391  0.10830  0.08978  Biso   1.000  C
  C75      1.0000 0.65609  0.60830  0.41022  Biso   1.000  C
  C76      1.0000 0.15609  0.10830  0.41022  Biso   1.000  C
  C77      1.0000 0.65609  0.39170  0.91022  Biso   1.000  C
  C78      1.0000 0.15609  0.89170  0.91022  Biso   1.000  C
  C79      1.0000 0.34391  0.39170  0.58978  Biso   1.000  C
  C80      1.0000 0.84391  0.89170  0.58978  Biso   1.000  C
  H41      1.0000 0.32580  0.67530  0.05170  Biso   1.000  H
  H42      1.0000 0.82580  0.17530  0.05170  Biso   1.000  H
  H43      1.0000 0.67420  0.67530  0.44830  Biso   1.000  H
  H44      1.0000 0.17420  0.17530  0.44830  Biso   1.000  H
  H45      1.0000 0.67420  0.32470  0.94830  Biso   1.000  H
  H46      1.0000 0.17420  0.82470  0.94830  Biso   1.000  H
  H47      1.0000 0.32580  0.32470  0.55170  Biso   1.000  H
  H48      1.0000 0.82580  0.82470  0.55170  Biso   1.000  H
  H49      1.0000 0.35290  0.48350  0.07780  Biso   1.000  H
  H50      1.0000 0.85290  0.98350  0.07780  Biso   1.000  H
  H51      1.0000 0.64710  0.48350  0.42220  Biso   1.000  H
  H52      1.0000 0.14710  0.98350  0.42220  Biso   1.000  H
  H53      1.0000 0.64710  0.51650  0.92220  Biso   1.000  H
  H54      1.0000 0.14710  0.01650  0.92220  Biso   1.000  H
  H55      1.0000 0.35290  0.51650  0.57780  Biso   1.000  H
  H56      1.0000 0.85290  0.01650  0.57780  Biso   1.000  H
  H57      1.0000 0.38970  0.66240  0.10710  Biso   1.000  H
  H58      1.0000 0.88970  0.16240  0.10710  Biso   1.000  H
  H59      1.0000 0.61030  0.66240  0.39290  Biso   1.000  H
  H60      1.0000 0.11030  0.16240  0.39290  Biso   1.000  H
  H61      1.0000 0.61030  0.33760  0.89290  Biso   1.000  H
  H62      1.0000 0.11030  0.83760  0.89290  Biso   1.000  H
  H63      1.0000 0.38970  0.33760  0.60710  Biso   1.000  H
  H64      1.0000 0.88970  0.83760  0.60710  Biso   1.000  H
  C81      1.0000 0.00000  0.67950  0.25000  Biso   1.000  C
  C82      1.0000 0.50000  0.17950  0.25000  Biso   1.000  C
  C83      1.0000 0.00000  0.32050  0.75000  Biso   1.000  C
  C84      1.0000 0.50000  0.82050  0.75000  Biso   1.000  C
  H65      1.0000 0.98780  0.75660  0.21290  Biso   1.000  H
  H66      1.0000 0.48780  0.25660  0.21290  Biso   1.000  H
  H67      1.0000 0.01220  0.75660  0.28710  Biso   1.000  H
  H68      1.0000 0.51220  0.25660  0.28710  Biso   1.000  H
  H69      1.0000 0.01220  0.24340  0.78710  Biso   1.000  H
  H70      1.0000 0.51220  0.74340  0.78710  Biso   1.000  H
  H71      1.0000 0.98780  0.24340  0.71290  Biso   1.000  H
  H72      1.0000 0.48780  0.74340  0.71290  Biso   1.000  H
  C85      1.0000 0.04466  0.44460  0.17884  Biso   1.000  C
  C86      1.0000 0.54466  0.94460  0.17884  Biso   1.000  C
  C87      1.0000 0.95534  0.44460  0.32116  Biso   1.000  C
  C88      1.0000 0.45534  0.94460  0.32116  Biso   1.000  C
  C89      1.0000 0.95534  0.55540  0.82116  Biso   1.000  C
  C90      1.0000 0.45534  0.05540  0.82116  Biso   1.000  C
  C91      1.0000 0.04466  0.55540  0.67884  Biso   1.000  C
  C92      1.0000 0.54466  0.05540  0.67884  Biso   1.000  C
  H73      1.0000 0.03260  0.52020  0.14060  Biso   1.000  H
  H74      1.0000 0.53260  0.02020  0.14060  Biso   1.000  H
  H75      1.0000 0.96740  0.52020  0.35940  Biso   1.000  H
  H76      1.0000 0.46740  0.02020  0.35940  Biso   1.000  H
  H77      1.0000 0.96740  0.47980  0.85940  Biso   1.000  H
  H78      1.0000 0.46740  0.97980  0.85940  Biso   1.000  H
  H79      1.0000 0.03260  0.47980  0.64060  Biso   1.000  H
  H80      1.0000 0.53260  0.97980  0.64060  Biso   1.000  H
  H81      1.0000 0.08690  0.36770  0.16900  Biso   1.000  H
  H82      1.0000 0.58690  0.86770  0.16900  Biso   1.000  H
  H83      1.0000 0.91310  0.36770  0.33100  Biso   1.000  H
  H84      1.0000 0.41310  0.86770  0.33100  Biso   1.000  H
  H85      1.0000 0.91310  0.63230  0.83100  Biso   1.000  H
  H86      1.0000 0.41310  0.13230  0.83100  Biso   1.000  H
  H87      1.0000 0.08690  0.63230  0.66900  Biso   1.000  H
  H88      1.0000 0.58690  0.13230  0.66900  Biso   1.000  H
  C93      1.0000 0.08270  0.44630  0.29451  Biso   1.000  C
  C94      1.0000 0.58270  0.94630  0.29451  Biso   1.000  C
  C95      1.0000 0.91730  0.44630  0.20549  Biso   1.000  C
  C96      1.0000 0.41730  0.94630  0.20549  Biso   1.000  C
  C97      1.0000 0.91730  0.55370  0.70549  Biso   1.000  C
  C98      1.0000 0.41730  0.05370  0.70549  Biso   1.000  C
  C99      1.0000 0.08270  0.55370  0.79451  Biso   1.000  C
  C100     1.0000 0.58270  0.05370  0.79451  Biso   1.000  C
  H89      1.0000 0.12590  0.37030  0.28680  Biso   1.000  H
  H90      1.0000 0.62590  0.87030  0.28680  Biso   1.000  H
  H91      1.0000 0.87410  0.37030  0.21320  Biso   1.000  H
  H92      1.0000 0.37410  0.87030  0.21320  Biso   1.000  H
  H93      1.0000 0.87410  0.62970  0.71320  Biso   1.000  H
  H94      1.0000 0.37410  0.12970  0.71320  Biso   1.000  H
  H95      1.0000 0.12590  0.62970  0.78680  Biso   1.000  H
  H96      1.0000 0.62590  0.12970  0.78680  Biso   1.000  H
  H97      1.0000 0.09500  0.52260  0.33250  Biso   1.000  H
  H98      1.0000 0.59500  0.02260  0.33250  Biso   1.000  H
  H99      1.0000 0.90500  0.52260  0.16750  Biso   1.000  H
  H100     1.0000 0.40500  0.02260  0.16750  Biso   1.000  H
  H101     1.0000 0.90500  0.47740  0.66750  Biso   1.000  H
  H102     1.0000 0.40500  0.97740  0.66750  Biso   1.000  H
  H103     1.0000 0.09500  0.47740  0.83250  Biso   1.000  H
  H104     1.0000 0.59500  0.97740  0.83250  Biso   1.000  H
  C101     1.0000 0.00000  0.21870  0.25000  Biso   1.000  C
  C102     1.0000 0.50000  0.71870  0.25000  Biso   1.000  C
  C103     1.0000 0.00000  0.78130  0.75000  Biso   1.000  C
  C104     1.0000 0.50000  0.28130  0.75000  Biso   1.000  C
  H105     1.0000 0.95820  0.14160  0.25890  Biso   1.000  H
  H106     1.0000 0.45820  0.64160  0.25890  Biso   1.000  H
  H107     1.0000 0.04180  0.14160  0.24110  Biso   1.000  H
  H108     1.0000 0.54180  0.64160  0.24110  Biso   1.000  H
  H109     1.0000 0.04180  0.85840  0.74110  Biso   1.000  H
  H110     1.0000 0.54180  0.35840  0.74110  Biso   1.000  H
  H111     1.0000 0.95820  0.85840  0.75890  Biso   1.000  H
  H112     1.0000 0.45820  0.35840  0.75890  Biso   1.000  H
  N1       1.0000 0.22349  0.87720  0.10252  Biso   1.000  N
  N2       1.0000 0.72349  0.37720  0.10252  Biso   1.000  N
  N3       1.0000 0.77651  0.87720  0.39748  Biso   1.000  N
  N4       1.0000 0.27651  0.37720  0.39748  Biso   1.000  N
  N5       1.0000 0.77651  0.12280  0.89748  Biso   1.000  N
  N6       1.0000 0.27651  0.62280  0.89748  Biso   1.000  N
  N7       1.0000 0.22349  0.12280  0.60252  Biso   1.000  N
  N8       1.0000 0.72349  0.62280  0.60252  Biso   1.000  N
  N9       1.0000 0.23454  0.73260  0.14506  Biso   1.000  N
  N10      1.0000 0.73454  0.23260  0.14506  Biso   1.000  N
  N11      1.0000 0.76546  0.73260  0.35494  Biso   1.000  N
  N12      1.0000 0.26546  0.23260  0.35494  Biso   1.000  N
  N13      1.0000 0.76546  0.26740  0.85494  Biso   1.000  N
  N14      1.0000 0.26546  0.76740  0.85494  Biso   1.000  N
  N15      1.0000 0.23454  0.26740  0.64506  Biso   1.000  N
  N16      1.0000 0.73454  0.76740  0.64506  Biso   1.000  N
  N17      1.0000 0.06609  0.56470  0.23614  Biso   1.000  N
  N18      1.0000 0.56609  0.06470  0.23614  Biso   1.000  N
  N19      1.0000 0.93391  0.56470  0.26386  Biso   1.000  N
  N20      1.0000 0.43391  0.06470  0.26386  Biso   1.000  N
  N21      1.0000 0.93391  0.43530  0.76386  Biso   1.000  N
  N22      1.0000 0.43391  0.93530  0.76386  Biso   1.000  N
  N23      1.0000 0.06609  0.43530  0.73614  Biso   1.000  N
  N24      1.0000 0.56609  0.93530  0.73614  Biso   1.000  N
  N25      1.0000 0.98083  0.33010  0.19190  Biso   1.000  N
  N26      1.0000 0.48083  0.83010  0.19190  Biso   1.000  N
  N27      1.0000 0.01917  0.33010  0.30810  Biso   1.000  N
  N28      1.0000 0.51917  0.83010  0.30810  Biso   1.000  N
  N29      1.0000 0.01917  0.66990  0.80810  Biso   1.000  N
  N30      1.0000 0.51917  0.16990  0.80810  Biso   1.000  N
  N31      1.0000 0.98083  0.66990  0.69190  Biso   1.000  N
  N32      1.0000 0.48083  0.16990  0.69190  Biso   1.000  N
  O1       1.0000 0.11346  0.89540  0.15838  Biso   1.000  O
  O2       1.0000 0.61346  0.39540  0.15838  Biso   1.000  O
  O3       1.0000 0.88654  0.89540  0.34162  Biso   1.000  O
  O4       1.0000 0.38654  0.39540  0.34162  Biso   1.000  O
  O5       1.0000 0.88654  0.10460  0.84162  Biso   1.000  O
  O6       1.0000 0.38654  0.60460  0.84162  Biso   1.000  O
  O7       1.0000 0.11346  0.10460  0.65838  Biso   1.000  O
  O8       1.0000 0.61346  0.60460  0.65838  Biso   1.000  O
  O9       1.0000 0.22976  0.48700  0.23261  Biso   1.000  O
  O10      1.0000 0.72976  0.98700  0.23261  Biso   1.000  O
  O11      1.0000 0.77024  0.48700  0.26739  Biso   1.000  O
  O12      1.0000 0.27024  0.98700  0.26739  Biso   1.000  O
  O13      1.0000 0.77024  0.51300  0.76739  Biso   1.000  O
  O14      1.0000 0.27024  0.01300  0.76739  Biso   1.000  O
  O15      1.0000 0.22976  0.51300  0.73261  Biso   1.000  O
  O16      1.0000 0.72976  0.01300  0.73261  Biso   1.000  O
  O17      1.0000 0.33318  0.35380  0.19913  Biso   1.000  O
  O18      1.0000 0.83318  0.85380  0.19913  Biso   1.000  O
  O19      1.0000 0.66682  0.35380  0.30087  Biso   1.000  O
  O20      1.0000 0.16682  0.85380  0.30087  Biso   1.000  O
  O21      1.0000 0.66682  0.64620  0.80087  Biso   1.000  O
  O22      1.0000 0.16682  0.14620  0.80087  Biso   1.000  O
  O23      1.0000 0.33318  0.64620  0.69913  Biso   1.000  O
  O24      1.0000 0.83318  0.14620  0.69913  Biso   1.000  O
