data_image0
_cell_length_a       11.939
_cell_length_b       10.884
_cell_length_c       11.459
_cell_angle_alpha    90
_cell_angle_beta     113.76
_cell_angle_gamma    90

_symmetry_space_group_name_H-M    "P 1"
_symmetry_int_tables_number       1

loop_
  _symmetry_equiv_pos_as_xyz
  'x, y, z'

loop_
  _atom_site_label
  _atom_site_occupancy
  _atom_site_fract_x
  _atom_site_fract_y
  _atom_site_fract_z
  _atom_site_thermal_displace_type
  _atom_site_B_iso_or_equiv
  _atom_site_type_symbol
  Cu1      1.0000 0.99290  0.14310  0.24610  Biso   1.000  Cu
  Cu2      1.0000 0.00710  0.64310  0.75390  Biso   1.000  Cu
  O1       1.0000 0.16080  0.07130  0.31720  Biso   1.000  O
  O2       1.0000 0.83920  0.57130  0.68280  Biso   1.000  O
  N1       1.0000 0.05700  0.26760  0.15250  Biso   1.000  N
  N2       1.0000 0.94300  0.76760  0.84750  Biso   1.000  N
  O3       1.0000 0.04790  0.52540  0.95780  Biso   1.000  O
  O4       1.0000 0.95210  0.02540  0.04220  Biso   1.000  O
  N3       1.0000 0.06900  0.43390  0.03040  Biso   1.000  N
  N4       1.0000 0.93100  0.93390  0.96960  Biso   1.000  N
  C1       1.0000 0.25240  0.10040  0.30100  Biso   1.000  C
  C2       1.0000 0.74760  0.60040  0.69900  Biso   1.000  C
  C3       1.0000 0.36180  0.01080  0.35190  Biso   1.000  C
  C4       1.0000 0.63820  0.51080  0.64810  Biso   1.000  C
  O5       1.0000 0.45540  0.02120  0.34050  Biso   1.000  O
  O6       1.0000 0.54460  0.52120  0.65950  Biso   1.000  O
  O7       1.0000 0.34340  0.93170  0.43310  Biso   1.000  O
  O8       1.0000 0.65660  0.43170  0.56690  Biso   1.000  O
  C5       1.0000 0.43670  0.85190  0.49890  Biso   1.000  C
  C6       1.0000 0.56330  0.35190  0.50110  Biso   1.000  C
  C7       1.0000 0.41900  0.74310  0.39920  Biso   1.000  C
  C8       1.0000 0.58100  0.24310  0.60080  Biso   1.000  C
  C9       1.0000 0.26580  0.19080  0.22440  Biso   1.000  C
  C10      1.0000 0.73420  0.69080  0.77560  Biso   1.000  C
  C11      1.0000 0.16700  0.27420  0.15890  Biso   1.000  C
  C12      1.0000 0.83300  0.77420  0.84110  Biso   1.000  C
  C13      1.0000 0.19070  0.37510  0.07880  Biso   1.000  C
  C14      1.0000 0.80930  0.87510  0.92120  Biso   1.000  C
  C15      1.0000 0.22730  0.32310  0.96860  Biso   1.000  C
  C16      1.0000 0.77270  0.82310  0.03140  Biso   1.000  C
  C17      1.0000 0.29290  0.46280  0.15490  Biso   1.000  C
  C18      1.0000 0.70710  0.96280  0.84510  Biso   1.000  C
  C19      1.0000 0.97460  0.36580  0.05920  Biso   1.000  C
  C20      1.0000 0.02540  0.86580  0.94080  Biso   1.000  C
  C21      1.0000 0.87410  0.32030  0.95270  Biso   1.000  C
  C22      1.0000 0.12590  0.82030  0.04730  Biso   1.000  C
  C23      1.0000 0.93550  0.46690  0.13000  Biso   1.000  C
  C24      1.0000 0.06450  0.96690  0.87000  Biso   1.000  C
  H1       1.0000 0.52500  0.89600  0.52500  Biso   1.000  H
  H2       1.0000 0.47500  0.39600  0.47500  Biso   1.000  H
  H3       1.0000 0.42800  0.81900  0.58400  Biso   1.000  H
  H4       1.0000 0.57200  0.31900  0.41600  Biso   1.000  H
  H5       1.0000 0.48900  0.67400  0.44200  Biso   1.000  H
  H6       1.0000 0.51100  0.17400  0.55800  Biso   1.000  H
  H7       1.0000 0.42600  0.77900  0.31400  Biso   1.000  H
  H8       1.0000 0.57400  0.27900  0.68600  Biso   1.000  H
  H9       1.0000 0.33000  0.70200  0.37400  Biso   1.000  H
  H10      1.0000 0.67000  0.20200  0.62600  Biso   1.000  H
  H11      1.0000 0.15800  0.26000  0.91000  Biso   1.000  H
  H12      1.0000 0.84200  0.76000  0.09000  Biso   1.000  H
  H13      1.0000 0.31400  0.27600  0.01100  Biso   1.000  H
  H14      1.0000 0.68600  0.77600  0.98900  Biso   1.000  H
  H15      1.0000 0.23500  0.39800  0.91000  Biso   1.000  H
  H16      1.0000 0.76500  0.89800  0.09000  Biso   1.000  H
  H17      1.0000 0.27400  0.50200  0.23100  Biso   1.000  H
  H18      1.0000 0.72600  0.00200  0.76900  Biso   1.000  H
  H19      1.0000 0.29900  0.53500  0.09400  Biso   1.000  H
  H20      1.0000 0.70100  0.03500  0.90600  Biso   1.000  H
  H21      1.0000 0.37800  0.41300  0.19400  Biso   1.000  H
  H22      1.0000 0.62200  0.91300  0.80600  Biso   1.000  H
  H23      1.0000 0.90500  0.25000  0.90600  Biso   1.000  H
  H24      1.0000 0.09500  0.75000  0.09400  Biso   1.000  H
  H25      1.0000 0.83300  0.39400  0.88700  Biso   1.000  H
  H26      1.0000 0.16700  0.89400  0.11300  Biso   1.000  H
  H27      1.0000 0.80700  0.28200  0.98400  Biso   1.000  H
  H28      1.0000 0.19300  0.78200  0.01600  Biso   1.000  H
  H29      1.0000 0.86600  0.43100  0.15800  Biso   1.000  H
  H30      1.0000 0.13400  0.93100  0.84200  Biso   1.000  H
  H31      1.0000 0.90000  0.54400  0.06700  Biso   1.000  H
  H32      1.0000 0.10000  0.04400  0.93300  Biso   1.000  H
  H33      1.0000 0.01400  0.49600  0.21400  Biso   1.000  H
  H34      1.0000 0.98600  0.99600  0.78600  Biso   1.000  H
  H35      1.0000 0.32000  0.18700  0.19600  Biso   1.000  H
  H36      1.0000 0.68000  0.68700  0.80400  Biso   1.000  H
  O9       1.0000 0.84200  0.21720  0.17750  Biso   1.000  O
  O10      1.0000 0.15800  0.71720  0.82250  Biso   1.000  O
  N5       1.0000 0.94290  0.01530  0.34690  Biso   1.000  N
  N6       1.0000 0.05710  0.51530  0.65310  Biso   1.000  N
  O11      1.0000 0.96430  0.78340  0.56430  Biso   1.000  O
  O12      1.0000 0.03570  0.28340  0.43570  Biso   1.000  O
  N7       1.0000 0.93130  0.87100  0.48820  Biso   1.000  N
  N8       1.0000 0.06870  0.37100  0.51180  Biso   1.000  N
  C25      1.0000 0.74520  0.19520  0.20710  Biso   1.000  C
  C26      1.0000 0.25480  0.69520  0.79290  Biso   1.000  C
  C27      1.0000 0.63510  0.27610  0.13650  Biso   1.000  C
  C28      1.0000 0.36490  0.77610  0.86350  Biso   1.000  C
  O13      1.0000 0.54680  0.27640  0.16930  Biso   1.000  O
  O14      1.0000 0.45320  0.77640  0.83070  Biso   1.000  O
  O15      1.0000 0.65150  0.36200  0.06730  Biso   1.000  O
  O16      1.0000 0.34850  0.86200  0.93270  Biso   1.000  O
  C29      1.0000 0.55880  0.47310  0.02190  Biso   1.000  C
  C30      1.0000 0.44120  0.97310  0.97810  Biso   1.000  C
  C31      1.0000 0.58310  0.56330  0.11280  Biso   1.000  C
  C32      1.0000 0.41690  0.06330  0.88720  Biso   1.000  C
  C33      1.0000 0.73670  0.10140  0.27490  Biso   1.000  C
  C34      1.0000 0.26330  0.60140  0.72510  Biso   1.000  C
  C35      1.0000 0.82990  0.01960  0.34760  Biso   1.000  C
  C36      1.0000 0.17010  0.51960  0.65240  Biso   1.000  C
  C37      1.0000 0.80700  0.92460  0.43030  Biso   1.000  C
  C38      1.0000 0.19300  0.42460  0.56970  Biso   1.000  C
  C39      1.0000 0.72030  0.82170  0.34830  Biso   1.000  C
  C40      1.0000 0.27970  0.32170  0.65170  Biso   1.000  C
  C41      1.0000 0.77720  0.97570  0.53010  Biso   1.000  C
  C42      1.0000 0.22280  0.47570  0.46990  Biso   1.000  C
  C43      1.0000 0.01590  0.92160  0.43300  Biso   1.000  C
  C44      1.0000 0.98410  0.42160  0.56700  Biso   1.000  C
  C45      1.0000 0.11890  0.98980  0.55630  Biso   1.000  C
  C46      1.0000 0.88110  0.48980  0.44370  Biso   1.000  C
  C47      1.0000 0.05810  0.82720  0.36450  Biso   1.000  C
  C48      1.0000 0.94190  0.32720  0.63550  Biso   1.000  C
  H37      1.0000 0.46700  0.43900  0.99800  Biso   1.000  H
  H38      1.0000 0.53300  0.93900  0.00200  Biso   1.000  H
  H39      1.0000 0.56400  0.51300  0.93800  Biso   1.000  H
  H40      1.0000 0.43600  0.01300  0.06200  Biso   1.000  H
  H41      1.0000 0.51700  0.63700  0.07700  Biso   1.000  H
  H42      1.0000 0.48300  0.13700  0.92300  Biso   1.000  H
  H43      1.0000 0.67400  0.59900  0.13700  Biso   1.000  H
  H44      1.0000 0.32600  0.09900  0.86300  Biso   1.000  H
  H45      1.0000 0.57700  0.52400  0.19700  Biso   1.000  H
  H46      1.0000 0.42300  0.02400  0.80300  Biso   1.000  H
  H47      1.0000 0.62800  0.85700  0.30400  Biso   1.000  H
  H48      1.0000 0.37200  0.35700  0.69600  Biso   1.000  H
  H49      1.0000 0.72200  0.74500  0.40900  Biso   1.000  H
  H50      1.0000 0.27800  0.24500  0.59100  Biso   1.000  H
  H51      1.0000 0.75000  0.79200  0.27500  Biso   1.000  H
  H52      1.0000 0.25000  0.29200  0.72500  Biso   1.000  H
  H53      1.0000 0.68700  0.01500  0.48900  Biso   1.000  H
  H54      1.0000 0.31300  0.51500  0.51100  Biso   1.000  H
  H55      1.0000 0.84300  0.04600  0.58000  Biso   1.000  H
  H56      1.0000 0.15700  0.54600  0.42000  Biso   1.000  H
  H57      1.0000 0.78000  0.90400  0.59600  Biso   1.000  H
  H58      1.0000 0.22000  0.40400  0.40400  Biso   1.000  H
  H59      1.0000 0.18700  0.03100  0.52900  Biso   1.000  H
  H60      1.0000 0.81300  0.53100  0.47100  Biso   1.000  H
  H61      1.0000 0.16200  0.92400  0.63100  Biso   1.000  H
  H62      1.0000 0.83800  0.42400  0.36900  Biso   1.000  H
  H63      1.0000 0.07600  0.06000  0.59000  Biso   1.000  H
  H64      1.0000 0.92400  0.56000  0.41000  Biso   1.000  H
  H65      1.0000 0.11200  0.75800  0.43100  Biso   1.000  H
  H66      1.0000 0.88800  0.25800  0.56900  Biso   1.000  H
  H67      1.0000 0.11300  0.87100  0.32100  Biso   1.000  H
  H68      1.0000 0.88700  0.37100  0.67900  Biso   1.000  H
  H69      1.0000 0.97900  0.78400  0.29100  Biso   1.000  H
  H70      1.0000 0.02100  0.28400  0.70900  Biso   1.000  H
  H71      1.0000 0.64600  0.07000  0.23400  Biso   1.000  H
  H72      1.0000 0.35400  0.57000  0.76600  Biso   1.000  H
