data_image0
_cell_length_a       11.9788
_cell_length_b       14.253
_cell_length_c       22.89
_cell_angle_alpha    90.211
_cell_angle_beta     93.076
_cell_angle_gamma    90.6

_symmetry_space_group_name_H-M    "P 1"
_symmetry_int_tables_number       1

loop_
  _symmetry_equiv_pos_as_xyz
  'x, y, z'

loop_
  _atom_site_label
  _atom_site_occupancy
  _atom_site_fract_x
  _atom_site_fract_y
  _atom_site_fract_z
  _atom_site_thermal_displace_type
  _atom_site_B_iso_or_equiv
  _atom_site_type_symbol
  Zn1      1.0000 0.78960  0.68130  0.04370  Biso   1.000  Zn
  Zn2      1.0000 0.21040  0.31870  0.95630  Biso   1.000  Zn
  Zn3      1.0000 0.66920  0.66160  0.16310  Biso   1.000  Zn
  Zn4      1.0000 0.33080  0.33840  0.83690  Biso   1.000  Zn
  Zn5      1.0000 0.54830  0.64810  0.28270  Biso   1.000  Zn
  Zn6      1.0000 0.45170  0.35190  0.71730  Biso   1.000  Zn
  Zn7      1.0000 0.12150  0.00780  0.38090  Biso   1.000  Zn
  Zn8      1.0000 0.87850  0.99220  0.61910  Biso   1.000  Zn
  Zn9      1.0000 0.00000  0.00000  0.50000  Biso   1.000  Zn
  Cu1      1.0000 0.70240  0.97950  0.90630  Biso   1.000  Cu
  Cu2      1.0000 0.29760  0.02050  0.09370  Biso   1.000  Cu
  Cu3      1.0000 0.63010  0.35550  0.42650  Biso   1.000  Cu
  Cu4      1.0000 0.36990  0.64450  0.57350  Biso   1.000  Cu
  Cu5      1.0000 0.03830  0.30530  0.24220  Biso   1.000  Cu
  Cu6      1.0000 0.96170  0.69470  0.75780  Biso   1.000  Cu
  S1       1.0000 0.19780  0.54970  0.96400  Biso   1.000  S
  S2       1.0000 0.80220  0.45030  0.03600  Biso   1.000  S
  S3       1.0000 0.52910  0.88050  0.30210  Biso   1.000  S
  S4       1.0000 0.47090  0.11950  0.69790  Biso   1.000  S
  S5       1.0000 0.14100  0.77500  0.36210  Biso   1.000  S
  S6       1.0000 0.85900  0.22500  0.63790  Biso   1.000  S
  O1       1.0000 0.75370  0.71390  0.95340  Biso   1.000  O
  O2       1.0000 0.24630  0.28610  0.04660  Biso   1.000  O
  O3       1.0000 0.74680  0.82370  0.04700  Biso   1.000  O
  O4       1.0000 0.25320  0.17630  0.95300  Biso   1.000  O
  O5       1.0000 0.58850  0.50450  0.28150  Biso   1.000  O
  O6       1.0000 0.41150  0.49550  0.71850  Biso   1.000  O
  O7       1.0000 0.58390  0.61840  0.37330  Biso   1.000  O
  O8       1.0000 0.41610  0.38160  0.62670  Biso   1.000  O
  O9       1.0000 0.08520  0.04070  0.29060  Biso   1.000  O
  O10      1.0000 0.91480  0.95930  0.70940  Biso   1.000  O
  O11      1.0000 0.08110  0.15220  0.38340  Biso   1.000  O
  O12      1.0000 0.91890  0.84780  0.61660  Biso   1.000  O
  O13      1.0000 0.96500  0.98350  0.41870  Biso   1.000  O
  O14      1.0000 0.03500  0.01650  0.58130  Biso   1.000  O
  O15      1.0000 0.84890  0.98770  0.52250  Biso   1.000  O
  O16      1.0000 0.15110  0.01230  0.47750  Biso   1.000  O
  O17      1.0000 0.67830  0.92970  0.51460  Biso   1.000  O
  O18      1.0000 0.32170  0.07030  0.48540  Biso   1.000  O
  O19      1.0000 0.44620  0.91350  0.33730  Biso   1.000  O
  O20      1.0000 0.55380  0.08650  0.66270  Biso   1.000  O
  O21      1.0000 0.52270  0.78360  0.29980  Biso   1.000  O
  O22      1.0000 0.47730  0.21640  0.70020  Biso   1.000  O
  O23      1.0000 0.52530  0.92440  0.24840  Biso   1.000  O
  O24      1.0000 0.47470  0.07560  0.75160  Biso   1.000  O
  O25      1.0000 0.22240  0.74230  0.32700  Biso   1.000  O
  O26      1.0000 0.77760  0.25770  0.67300  Biso   1.000  O
  O27      1.0000 0.14360  0.73320  0.41720  Biso   1.000  O
  O28      1.0000 0.85640  0.26680  0.58280  Biso   1.000  O
  O29      1.0000 0.14710  0.87640  0.36340  Biso   1.000  O
  O30      1.0000 0.85290  0.12360  0.63660  Biso   1.000  O
  O31      1.0000 0.99070  0.73790  0.14920  Biso   1.000  O
  O32      1.0000 0.00930  0.26210  0.85080  Biso   1.000  O
  O33      1.0000 0.81910  0.68320  0.13900  Biso   1.000  O
  O34      1.0000 0.18090  0.31680  0.86100  Biso   1.000  O
  O35      1.0000 0.70590  0.67010  0.24460  Biso   1.000  O
  O36      1.0000 0.29410  0.32990  0.75540  Biso   1.000  O
  O37      1.0000 0.63290  0.65410  0.08090  Biso   1.000  O
  O38      1.0000 0.36710  0.34590  0.91910  Biso   1.000  O
  O39      1.0000 0.51950  0.64120  0.18670  Biso   1.000  O
  O40      1.0000 0.48050  0.35880  0.81330  Biso   1.000  O
  O41      1.0000 0.34810  0.58570  0.17690  Biso   1.000  O
  O42      1.0000 0.65190  0.41430  0.82310  Biso   1.000  O
  O43      1.0000 0.17840  0.45270  0.97940  Biso   1.000  O
  O44      1.0000 0.82160  0.54730  0.02060  Biso   1.000  O
  O45      1.0000 0.11660  0.60820  0.98860  Biso   1.000  O
  O46      1.0000 0.88340  0.39180  0.01140  Biso   1.000  O
  O47      1.0000 0.20830  0.55960  0.90270  Biso   1.000  O
  O48      1.0000 0.79170  0.44040  0.09730  Biso   1.000  O
  O49      1.0000 0.95830  0.71360  0.03580  Biso   1.000  O
  O50      1.0000 0.04170  0.28640  0.96420  Biso   1.000  O
  H1       1.0000 0.00300  0.68180  0.01620  Biso   1.000  H
  H2       1.0000 0.99700  0.31820  0.98380  Biso   1.000  H
  H3       1.0000 0.98000  0.72800  0.07070  Biso   1.000  H
  H4       1.0000 0.02000  0.27200  0.92930  Biso   1.000  H
  O51      1.0000 0.67600  0.83160  0.17070  Biso   1.000  O
  O52      1.0000 0.32400  0.16840  0.82930  Biso   1.000  O
  O53      1.0000 0.65700  0.50200  0.16180  Biso   1.000  O
  O54      1.0000 0.34300  0.49800  0.83820  Biso   1.000  O
  O55      1.0000 0.38030  0.61940  0.29020  Biso   1.000  O
  O56      1.0000 0.61970  0.38060  0.70980  Biso   1.000  O
  H5       1.0000 0.35940  0.61070  0.25440  Biso   1.000  H
  H6       1.0000 0.64060  0.38930  0.74560  Biso   1.000  H
  H7       1.0000 0.33430  0.64650  0.31180  Biso   1.000  H
  H8       1.0000 0.66570  0.35350  0.68820  Biso   1.000  H
  O57      1.0000 0.29020  0.03670  0.37320  Biso   1.000  O
  O58      1.0000 0.70980  0.96330  0.62680  Biso   1.000  O
  H9       1.0000 0.30980  0.98020  0.36830  Biso   1.000  H
  H10      1.0000 0.69020  0.01980  0.63170  Biso   1.000  H
  H11      1.0000 0.30820  0.06170  0.40620  Biso   1.000  H
  H12      1.0000 0.69180  0.93830  0.59380  Biso   1.000  H
  O59      1.0000 0.99200  0.83470  0.49710  Biso   1.000  O
  O60      1.0000 0.00800  0.16530  0.50290  Biso   1.000  O
  N1       1.0000 0.70300  0.84060  0.89430  Biso   1.000  N
  N2       1.0000 0.29700  0.15940  0.10570  Biso   1.000  N
  N3       1.0000 0.68030  0.94310  0.98760  Biso   1.000  N
  N4       1.0000 0.31970  0.05690  0.01240  Biso   1.000  N
  N5       1.0000 0.72810  0.11200  0.93260  Biso   1.000  N
  N6       1.0000 0.27190  0.88800  0.06740  Biso   1.000  N
  N7       1.0000 0.71970  0.00400  0.82160  Biso   1.000  N
  N8       1.0000 0.28030  0.99600  0.17840  Biso   1.000  N
  N9       1.0000 0.65250  0.38630  0.34410  Biso   1.000  N
  N10      1.0000 0.34750  0.61370  0.65590  Biso   1.000  N
  N11      1.0000 0.63250  0.49480  0.43520  Biso   1.000  N
  N12      1.0000 0.36750  0.50520  0.56480  Biso   1.000  N
  N13      1.0000 0.61110  0.33730  0.51200  Biso   1.000  N
  N14      1.0000 0.38890  0.66270  0.48800  Biso   1.000  N
  N15      1.0000 0.60240  0.22210  0.40300  Biso   1.000  N
  N16      1.0000 0.39760  0.77790  0.59700  Biso   1.000  N
  N17      1.0000 0.03780  0.16600  0.23080  Biso   1.000  N
  N18      1.0000 0.96220  0.83400  0.76920  Biso   1.000  N
  N19      1.0000 0.01430  0.27220  0.32300  Biso   1.000  N
  N20      1.0000 0.98570  0.72780  0.67700  Biso   1.000  N
  N21      1.0000 0.06750  0.43800  0.26800  Biso   1.000  N
  N22      1.0000 0.93250  0.56200  0.73200  Biso   1.000  N
  N23      1.0000 0.05500  0.32820  0.15790  Biso   1.000  N
  N24      1.0000 0.94500  0.67180  0.84210  Biso   1.000  N
  C1       1.0000 0.72920  0.79790  0.94430  Biso   1.000  C
  C2       1.0000 0.27080  0.20210  0.05570  Biso   1.000  C
  C3       1.0000 0.72160  0.85870  0.99840  Biso   1.000  C
  C4       1.0000 0.27840  0.14130  0.00160  Biso   1.000  C
  C5       1.0000 0.64250  0.00080  0.03270  Biso   1.000  C
  C6       1.0000 0.35750  0.99920  0.96730  Biso   1.000  C
  C7       1.0000 0.58960  0.96350  0.07940  Biso   1.000  C
  C8       1.0000 0.41040  0.03650  0.92060  Biso   1.000  C
  H13      1.0000 0.57720  0.89900  0.08090  Biso   1.000  H
  H14      1.0000 0.42280  0.10100  0.91910  Biso   1.000  H
  C9       1.0000 0.55400  0.02010  0.12480  Biso   1.000  C
  C10      1.0000 0.44600  0.97990  0.87520  Biso   1.000  C
  H15      1.0000 0.52050  0.99340  0.15660  Biso   1.000  H
  H16      1.0000 0.47950  0.00660  0.84340  Biso   1.000  H
  C11      1.0000 0.56910  0.11560  0.12180  Biso   1.000  C
  C12      1.0000 0.43090  0.88440  0.87820  Biso   1.000  C
  H17      1.0000 0.54600  0.15380  0.15180  Biso   1.000  H
  H18      1.0000 0.45400  0.84620  0.84820  Biso   1.000  H
  C13      1.0000 0.61710  0.15420  0.07580  Biso   1.000  C
  C14      1.0000 0.38290  0.84580  0.92420  Biso   1.000  C
  H19      1.0000 0.62690  0.21890  0.07420  Biso   1.000  H
  H20      1.0000 0.37310  0.78110  0.92580  Biso   1.000  H
  C15      1.0000 0.65300  0.09780  0.02980  Biso   1.000  C
  C16      1.0000 0.34700  0.90220  0.97020  Biso   1.000  C
  C17      1.0000 0.70310  0.14640  0.98230  Biso   1.000  C
  C18      1.0000 0.29690  0.85360  0.01770  Biso   1.000  C
  H21      1.0000 0.71900  0.20980  0.98830  Biso   1.000  H
  H22      1.0000 0.28100  0.79020  0.01170  Biso   1.000  H
  C19      1.0000 0.78070  0.17990  0.89310  Biso   1.000  C
  C20      1.0000 0.21930  0.82010  0.10690  Biso   1.000  C
  H23      1.0000 0.85880  0.16430  0.88980  Biso   1.000  H
  H24      1.0000 0.14120  0.83570  0.11020  Biso   1.000  H
  H25      1.0000 0.77730  0.24260  0.90950  Biso   1.000  H
  H26      1.0000 0.22270  0.75740  0.09050  Biso   1.000  H
  C21      1.0000 0.72050  0.17750  0.83250  Biso   1.000  C
  C22      1.0000 0.27950  0.82250  0.16750  Biso   1.000  C
  H27      1.0000 0.64040  0.17600  0.83690  Biso   1.000  H
  H28      1.0000 0.35960  0.82400  0.16310  Biso   1.000  H
  H29      1.0000 0.73830  0.23440  0.81170  Biso   1.000  H
  H30      1.0000 0.26170  0.76560  0.18830  Biso   1.000  H
  C23      1.0000 0.75190  0.09450  0.79690  Biso   1.000  C
  C24      1.0000 0.24810  0.90550  0.20310  Biso   1.000  C
  H31      1.0000 0.71680  0.09990  0.75790  Biso   1.000  H
  H32      1.0000 0.28320  0.90010  0.24210  Biso   1.000  H
  H33      1.0000 0.83220  0.09560  0.79320  Biso   1.000  H
  H34      1.0000 0.16780  0.90440  0.20680  Biso   1.000  H
  C25      1.0000 0.70010  0.93950  0.78260  Biso   1.000  C
  C26      1.0000 0.29990  0.06050  0.21740  Biso   1.000  C
  H35      1.0000 0.70360  0.95970  0.74410  Biso   1.000  H
  H36      1.0000 0.29640  0.04030  0.25590  Biso   1.000  H
  C27      1.0000 0.67380  0.84200  0.78880  Biso   1.000  C
  C28      1.0000 0.32620  0.15800  0.21120  Biso   1.000  C
  C29      1.0000 0.64230  0.79440  0.73670  Biso   1.000  C
  C30      1.0000 0.35770  0.20560  0.26330  Biso   1.000  C
  H37      1.0000 0.64370  0.82650  0.70140  Biso   1.000  H
  H38      1.0000 0.35630  0.17350  0.29860  Biso   1.000  H
  C31      1.0000 0.60910  0.70100  0.73620  Biso   1.000  C
  C32      1.0000 0.39090  0.29900  0.26380  Biso   1.000  C
  H39      1.0000 0.58790  0.67060  0.70130  Biso   1.000  H
  H40      1.0000 0.41210  0.32940  0.29870  Biso   1.000  H
  C33      1.0000 0.60820  0.65430  0.78870  Biso   1.000  C
  C34      1.0000 0.39180  0.34570  0.21130  Biso   1.000  C
  H41      1.0000 0.58320  0.59230  0.78890  Biso   1.000  H
  H42      1.0000 0.41680  0.40770  0.21110  Biso   1.000  H
  C35      1.0000 0.64280  0.69580  0.84090  Biso   1.000  C
  C36      1.0000 0.35720  0.30420  0.15910  Biso   1.000  C
  H43      1.0000 0.64410  0.66130  0.87530  Biso   1.000  H
  H44      1.0000 0.35590  0.33870  0.12470  Biso   1.000  H
  C37      1.0000 0.67670  0.79170  0.84220  Biso   1.000  C
  C38      1.0000 0.32330  0.20830  0.15780  Biso   1.000  C
  C39      1.0000 0.61420  0.47190  0.33100  Biso   1.000  C
  C40      1.0000 0.38580  0.52810  0.66900  Biso   1.000  C
  C41      1.0000 0.60670  0.53490  0.38410  Biso   1.000  C
  C42      1.0000 0.39330  0.46510  0.61590  Biso   1.000  C
  C43      1.0000 0.65810  0.54640  0.48720  Biso   1.000  C
  C44      1.0000 0.34190  0.45360  0.51280  Biso   1.000  C
  C45      1.0000 0.69470  0.64070  0.48600  Biso   1.000  C
  C46      1.0000 0.30530  0.35930  0.51400  Biso   1.000  C
  H45      1.0000 0.69610  0.67250  0.45070  Biso   1.000  H
  H46      1.0000 0.30390  0.32750  0.54930  Biso   1.000  H
  C47      1.0000 0.72850  0.68550  0.53780  Biso   1.000  C
  C48      1.0000 0.27150  0.31450  0.46220  Biso   1.000  C
  H47      1.0000 0.75430  0.74720  0.53660  Biso   1.000  H
  H48      1.0000 0.24570  0.25280  0.46340  Biso   1.000  H
  C49      1.0000 0.72500  0.64180  0.59110  Biso   1.000  C
  C50      1.0000 0.27500  0.35820  0.40890  Biso   1.000  C
  H49      1.0000 0.74680  0.67360  0.62550  Biso   1.000  H
  H50      1.0000 0.25320  0.32640  0.37450  Biso   1.000  H
  C51      1.0000 0.68890  0.55050  0.59250  Biso   1.000  C
  C52      1.0000 0.31110  0.44950  0.40750  Biso   1.000  C
  H51      1.0000 0.68370  0.52110  0.62850  Biso   1.000  H
  H52      1.0000 0.31630  0.47890  0.37150  Biso   1.000  H
  C53      1.0000 0.65930  0.49990  0.54110  Biso   1.000  C
  C54      1.0000 0.34070  0.50010  0.45890  Biso   1.000  C
  C55      1.0000 0.63010  0.40250  0.54920  Biso   1.000  C
  C56      1.0000 0.36990  0.59750  0.45080  Biso   1.000  C
  H53      1.0000 0.62430  0.38460  0.58800  Biso   1.000  H
  H54      1.0000 0.37570  0.61540  0.41200  Biso   1.000  H
  C57      1.0000 0.57640  0.24680  0.53820  Biso   1.000  C
  C58      1.0000 0.42360  0.75320  0.46180  Biso   1.000  C
  H55      1.0000 0.49590  0.24680  0.54140  Biso   1.000  H
  H56      1.0000 0.50410  0.75320  0.45860  Biso   1.000  H
  H57      1.0000 0.61050  0.24250  0.57750  Biso   1.000  H
  H58      1.0000 0.38950  0.75750  0.42250  Biso   1.000  H
  C59      1.0000 0.60750  0.16160  0.50410  Biso   1.000  C
  C60      1.0000 0.39250  0.83840  0.49590  Biso   1.000  C
  H59      1.0000 0.58850  0.10570  0.52570  Biso   1.000  H
  H60      1.0000 0.41150  0.89430  0.47430  Biso   1.000  H
  H61      1.0000 0.68770  0.16200  0.50010  Biso   1.000  H
  H62      1.0000 0.31230  0.83800  0.49990  Biso   1.000  H
  C61      1.0000 0.54900  0.15710  0.44390  Biso   1.000  C
  C62      1.0000 0.45100  0.84290  0.55610  Biso   1.000  C
  H63      1.0000 0.55170  0.09350  0.42890  Biso   1.000  H
  H64      1.0000 0.44830  0.90650  0.57110  Biso   1.000  H
  H65      1.0000 0.47110  0.17360  0.44670  Biso   1.000  H
  H66      1.0000 0.52890  0.82640  0.55330  Biso   1.000  H
  C63      1.0000 0.62860  0.18480  0.35400  Biso   1.000  C
  C64      1.0000 0.37140  0.81520  0.64600  Biso   1.000  C
  H67      1.0000 0.61330  0.12100  0.34950  Biso   1.000  H
  H68      1.0000 0.38670  0.87900  0.65050  Biso   1.000  H
  C65      1.0000 0.67840  0.23050  0.30580  Biso   1.000  C
  C66      1.0000 0.32160  0.76950  0.69420  Biso   1.000  C
  C67      1.0000 0.69030  0.32760  0.30010  Biso   1.000  C
  C68      1.0000 0.30970  0.67240  0.69990  Biso   1.000  C
  C69      1.0000 0.74330  0.36240  0.25210  Biso   1.000  C
  C70      1.0000 0.25670  0.63760  0.74790  Biso   1.000  C
  H69      1.0000 0.75490  0.42680  0.24870  Biso   1.000  H
  H70      1.0000 0.24510  0.57320  0.75130  Biso   1.000  H
  C71      1.0000 0.77930  0.30260  0.20930  Biso   1.000  C
  C72      1.0000 0.22070  0.69740  0.79070  Biso   1.000  C
  H71      1.0000 0.81400  0.32740  0.17730  Biso   1.000  H
  H72      1.0000 0.18600  0.67260  0.82270  Biso   1.000  H
  C73      1.0000 0.76450  0.20760  0.21330  Biso   1.000  C
  C74      1.0000 0.23550  0.79240  0.78670  Biso   1.000  C
  H73      1.0000 0.78740  0.16800  0.18400  Biso   1.000  H
  H74      1.0000 0.21260  0.83200  0.81600  Biso   1.000  H
  C75      1.0000 0.71540  0.17210  0.26110  Biso   1.000  C
  C76      1.0000 0.28460  0.82790  0.73890  Biso   1.000  C
  H75      1.0000 0.70620  0.10750  0.26430  Biso   1.000  H
  H76      1.0000 0.29380  0.89250  0.73570  Biso   1.000  H
  C77      1.0000 0.06250  0.12540  0.28050  Biso   1.000  C
  C78      1.0000 0.93750  0.87460  0.71950  Biso   1.000  C
  C79      1.0000 0.05330  0.18860  0.33460  Biso   1.000  C
  C80      1.0000 0.94670  0.81140  0.66540  Biso   1.000  C
  C81      1.0000 0.97800  0.32850  0.36870  Biso   1.000  C
  C82      1.0000 0.02200  0.67150  0.63130  Biso   1.000  C
  C83      1.0000 0.92380  0.29100  0.41430  Biso   1.000  C
  C84      1.0000 0.07620  0.70900  0.58570  Biso   1.000  C
  H77      1.0000 0.91020  0.22670  0.41570  Biso   1.000  H
  H78      1.0000 0.08980  0.77330  0.58430  Biso   1.000  H
  C85      1.0000 0.88820  0.35040  0.45940  Biso   1.000  C
  C86      1.0000 0.11180  0.64960  0.54060  Biso   1.000  C
  H79      1.0000 0.85430  0.32460  0.49130  Biso   1.000  H
  H80      1.0000 0.14570  0.67540  0.50870  Biso   1.000  H
  C87      1.0000 0.90390  0.44710  0.45620  Biso   1.000  C
  C88      1.0000 0.09610  0.55290  0.54380  Biso   1.000  C
  H81      1.0000 0.88150  0.48650  0.48580  Biso   1.000  H
  H82      1.0000 0.11850  0.51350  0.51420  Biso   1.000  H
  C89      1.0000 0.95190  0.48170  0.40960  Biso   1.000  C
  C90      1.0000 0.04810  0.51830  0.59040  Biso   1.000  C
  H83      1.0000 0.96100  0.54650  0.40740  Biso   1.000  H
  H84      1.0000 0.03900  0.45350  0.59260  Biso   1.000  H
  C91      1.0000 0.98990  0.42680  0.36360  Biso   1.000  C
  C92      1.0000 0.01010  0.57320  0.63640  Biso   1.000  C
  C93      1.0000 0.04010  0.47280  0.31730  Biso   1.000  C
  C94      1.0000 0.95990  0.52720  0.68270  Biso   1.000  C
  H85      1.0000 0.05560  0.53640  0.32290  Biso   1.000  H
  H86      1.0000 0.94440  0.46360  0.67710  Biso   1.000  H
  C95      1.0000 0.11880  0.50440  0.22800  Biso   1.000  C
  C96      1.0000 0.88120  0.49560  0.77200  Biso   1.000  C
  H87      1.0000 0.19620  0.48750  0.22370  Biso   1.000  H
  H88      1.0000 0.80380  0.51250  0.77630  Biso   1.000  H
  H89      1.0000 0.11770  0.56710  0.24450  Biso   1.000  H
  H90      1.0000 0.88230  0.43290  0.75550  Biso   1.000  H
  C97      1.0000 0.05750  0.50370  0.16900  Biso   1.000  C
  C98      1.0000 0.94250  0.49630  0.83100  Biso   1.000  C
  H91      1.0000 0.07560  0.56070  0.14840  Biso   1.000  H
  H92      1.0000 0.92440  0.43930  0.85160  Biso   1.000  H
  H93      1.0000 0.97760  0.50310  0.17420  Biso   1.000  H
  H94      1.0000 0.02240  0.49690  0.82580  Biso   1.000  H
  C99      1.0000 0.08680  0.41990  0.13260  Biso   1.000  C
  C100     1.0000 0.91320  0.58010  0.86740  Biso   1.000  C
  H95      1.0000 0.04980  0.42560  0.09400  Biso   1.000  H
  H96      1.0000 0.95020  0.57440  0.90600  Biso   1.000  H
  H97      1.0000 0.16680  0.42070  0.12780  Biso   1.000  H
  H98      1.0000 0.83320  0.57930  0.87220  Biso   1.000  H
  C101     1.0000 0.03480  0.26320  0.11910  Biso   1.000  C
  C102     1.0000 0.96520  0.73680  0.88090  Biso   1.000  C
  H99      1.0000 0.03830  0.28290  0.08060  Biso   1.000  H
  H100     1.0000 0.96170  0.71710  0.91940  Biso   1.000  H
  C103     1.0000 0.00800  0.16590  0.12580  Biso   1.000  C
  C104     1.0000 0.99200  0.83410  0.87420  Biso   1.000  C
  C105     1.0000 0.97650  0.11780  0.07370  Biso   1.000  C
  C106     1.0000 0.02350  0.88220  0.92630  Biso   1.000  C
  H101     1.0000 0.97920  0.14960  0.03840  Biso   1.000  H
  H102     1.0000 0.02080  0.85040  0.96160  Biso   1.000  H
  C107     1.0000 0.94190  0.02570  0.07300  Biso   1.000  C
  C108     1.0000 0.05810  0.97430  0.92700  Biso   1.000  C
  H103     1.0000 0.91820  0.99610  0.03820  Biso   1.000  H
  H104     1.0000 0.08180  0.00390  0.96180  Biso   1.000  H
  C109     1.0000 0.94340  0.97830  0.12550  Biso   1.000  C
  C110     1.0000 0.05660  0.02170  0.87450  Biso   1.000  C
  H105     1.0000 0.92120  0.91560  0.12590  Biso   1.000  H
  H106     1.0000 0.07880  0.08440  0.87410  Biso   1.000  H
  C111     1.0000 0.97760  0.02250  0.17770  Biso   1.000  C
  C112     1.0000 0.02240  0.97750  0.82230  Biso   1.000  C
  H107     1.0000 0.97810  0.98880  0.21240  Biso   1.000  H
  H108     1.0000 0.02190  0.01120  0.78760  Biso   1.000  H
  C113     1.0000 0.01100  0.11600  0.17890  Biso   1.000  C
  C114     1.0000 0.98900  0.88400  0.82110  Biso   1.000  C
  C115     1.0000 0.43390  0.61200  0.15490  Biso   1.000  C
  C116     1.0000 0.56610  0.38800  0.84510  Biso   1.000  C
  C117     1.0000 0.43750  0.61000  0.08950  Biso   1.000  C
  C118     1.0000 0.56250  0.39000  0.91050  Biso   1.000  C
  C119     1.0000 0.33690  0.58500  0.05870  Biso   1.000  C
  C120     1.0000 0.66310  0.41500  0.94130  Biso   1.000  C
  H109     1.0000 0.27460  0.57090  0.07960  Biso   1.000  H
  H110     1.0000 0.72540  0.42910  0.92040  Biso   1.000  H
  C121     1.0000 0.32790  0.58080  0.99960  Biso   1.000  C
  C122     1.0000 0.67210  0.41920  0.00040  Biso   1.000  C
  C123     1.0000 0.42050  0.59960  0.96650  Biso   1.000  C
  C124     1.0000 0.57950  0.40040  0.03350  Biso   1.000  C
  H111     1.0000 0.41480  0.59620  0.92590  Biso   1.000  H
  H112     1.0000 0.58520  0.40380  0.07410  Biso   1.000  H
  C125     1.0000 0.52100  0.62330  0.99600  Biso   1.000  C
  C126     1.0000 0.47900  0.37670  0.00400  Biso   1.000  C
  H113     1.0000 0.58340  0.63440  0.97450  Biso   1.000  H
  H114     1.0000 0.41660  0.36560  0.02550  Biso   1.000  H
  C127     1.0000 0.53220  0.63120  0.05700  Biso   1.000  C
  C128     1.0000 0.46780  0.36880  0.94300  Biso   1.000  C
  C129     1.0000 0.90370  0.71290  0.17100  Biso   1.000  C
  C130     1.0000 0.09630  0.28710  0.82900  Biso   1.000  C
  C131     1.0000 0.89970  0.71530  0.23610  Biso   1.000  C
  C132     1.0000 0.10030  0.28470  0.76390  Biso   1.000  C
  C133     1.0000 0.00020  0.73970  0.26680  Biso   1.000  C
  C134     1.0000 0.99980  0.26030  0.73320  Biso   1.000  C
  H115     1.0000 0.06240  0.75300  0.24550  Biso   1.000  H
  H116     1.0000 0.93760  0.24700  0.75450  Biso   1.000  H
  C135     1.0000 0.01170  0.74500  0.32660  Biso   1.000  C
  C136     1.0000 0.98830  0.25500  0.67340  Biso   1.000  C
  C137     1.0000 0.91790  0.72550  0.35950  Biso   1.000  C
  C138     1.0000 0.08210  0.27450  0.64050  Biso   1.000  C
  H117     1.0000 0.92370  0.72870  0.40010  Biso   1.000  H
  H118     1.0000 0.07630  0.27130  0.59990  Biso   1.000  H
  C139     1.0000 0.81720  0.70160  0.33050  Biso   1.000  C
  C140     1.0000 0.18280  0.29840  0.66950  Biso   1.000  C
  H119     1.0000 0.75530  0.69020  0.35240  Biso   1.000  H
  H120     1.0000 0.24470  0.30980  0.64760  Biso   1.000  H
  C141     1.0000 0.80530  0.69410  0.26910  Biso   1.000  C
  C142     1.0000 0.19470  0.30590  0.73090  Biso   1.000  C
  C143     1.0000 0.76540  0.95290  0.49190  Biso   1.000  C
  C144     1.0000 0.23460  0.04710  0.50810  Biso   1.000  C
  C145     1.0000 0.76910  0.94310  0.42700  Biso   1.000  C
  C146     1.0000 0.23090  0.05690  0.57300  Biso   1.000  C
  C147     1.0000 0.66890  0.91810  0.39700  Biso   1.000  C
  C148     1.0000 0.33110  0.08190  0.60300  Biso   1.000  C
  H121     1.0000 0.60620  0.90650  0.41820  Biso   1.000  H
  H122     1.0000 0.39380  0.09350  0.58180  Biso   1.000  H
  C149     1.0000 0.65960  0.91000  0.33750  Biso   1.000  C
  C150     1.0000 0.34040  0.09000  0.66250  Biso   1.000  C
  C151     1.0000 0.75350  0.92530  0.30470  Biso   1.000  C
  C152     1.0000 0.24650  0.07470  0.69530  Biso   1.000  C
  H123     1.0000 0.74800  0.91980  0.26420  Biso   1.000  H
  H124     1.0000 0.25200  0.08020  0.73580  Biso   1.000  H
  C153     1.0000 0.85360  0.94850  0.33340  Biso   1.000  C
  C154     1.0000 0.14640  0.05150  0.66660  Biso   1.000  C
  H125     1.0000 0.91630  0.95650  0.31160  Biso   1.000  H
  H126     1.0000 0.08370  0.04350  0.68840  Biso   1.000  H
  C155     1.0000 0.86510  0.96060  0.39450  Biso   1.000  C
  C156     1.0000 0.13490  0.03940  0.60550  Biso   1.000  C
