data_image0
_cell_length_a       11.825
_cell_length_b       9.534
_cell_length_c       27.885
_cell_angle_alpha    90
_cell_angle_beta     97.745
_cell_angle_gamma    90

_symmetry_space_group_name_H-M    "P 1"
_symmetry_int_tables_number       1

loop_
  _symmetry_equiv_pos_as_xyz
  'x, y, z'

loop_
  _atom_site_label
  _atom_site_occupancy
  _atom_site_fract_x
  _atom_site_fract_y
  _atom_site_fract_z
  _atom_site_thermal_displace_type
  _atom_site_B_iso_or_equiv
  _atom_site_type_symbol
  C1       1.0000 0.38890  0.41990  0.58471  Biso   1.000  C
  C2       1.0000 0.11110  0.91990  0.91529  Biso   1.000  C
  C3       1.0000 0.61110  0.58010  0.41529  Biso   1.000  C
  C4       1.0000 0.88890  0.08010  0.08471  Biso   1.000  C
  C5       1.0000 0.31330  0.43730  0.62432  Biso   1.000  C
  C6       1.0000 0.18670  0.93730  0.87568  Biso   1.000  C
  C7       1.0000 0.68670  0.56270  0.37568  Biso   1.000  C
  C8       1.0000 0.81330  0.06270  0.12432  Biso   1.000  C
  C9       1.0000 0.29010  0.32550  0.65268  Biso   1.000  C
  C10      1.0000 0.20990  0.82550  0.84732  Biso   1.000  C
  C11      1.0000 0.70990  0.67450  0.34732  Biso   1.000  C
  C12      1.0000 0.79010  0.17450  0.15268  Biso   1.000  C
  H1       1.0000 0.31860  0.23740  0.64640  Biso   1.000  H
  H2       1.0000 0.18140  0.73740  0.85360  Biso   1.000  H
  H3       1.0000 0.68140  0.76260  0.35360  Biso   1.000  H
  H4       1.0000 0.81860  0.26260  0.14640  Biso   1.000  H
  C13      1.0000 0.22540  0.34020  0.69044  Biso   1.000  C
  C14      1.0000 0.27460  0.84020  0.80956  Biso   1.000  C
  C15      1.0000 0.77460  0.65980  0.30956  Biso   1.000  C
  C16      1.0000 0.72540  0.15980  0.19044  Biso   1.000  C
  H5       1.0000 0.21130  0.26200  0.70870  Biso   1.000  H
  H6       1.0000 0.28870  0.76200  0.79130  Biso   1.000  H
  H7       1.0000 0.78870  0.73800  0.29130  Biso   1.000  H
  H8       1.0000 0.71130  0.23800  0.20870  Biso   1.000  H
  C17      1.0000 0.18140  0.46960  0.70142  Biso   1.000  C
  C18      1.0000 0.31860  0.96960  0.79858  Biso   1.000  C
  C19      1.0000 0.81860  0.53040  0.29858  Biso   1.000  C
  C20      1.0000 0.68140  0.03040  0.20142  Biso   1.000  C
  C21      1.0000 0.20360  0.58210  0.67186  Biso   1.000  C
  C22      1.0000 0.29640  0.08210  0.82814  Biso   1.000  C
  C23      1.0000 0.79640  0.41790  0.32814  Biso   1.000  C
  C24      1.0000 0.70360  0.91790  0.17186  Biso   1.000  C
  H9       1.0000 0.17470  0.67020  0.67780  Biso   1.000  H
  H10      1.0000 0.32530  0.17020  0.82220  Biso   1.000  H
  H11      1.0000 0.82530  0.32980  0.32220  Biso   1.000  H
  H12      1.0000 0.67470  0.82980  0.17780  Biso   1.000  H
  C25      1.0000 0.26700  0.56660  0.63410  Biso   1.000  C
  C26      1.0000 0.23300  0.06660  0.86590  Biso   1.000  C
  C27      1.0000 0.73300  0.43340  0.36590  Biso   1.000  C
  C28      1.0000 0.76700  0.93340  0.13410  Biso   1.000  C
  H13      1.0000 0.27900  0.64360  0.61490  Biso   1.000  H
  H14      1.0000 0.22100  0.14360  0.88510  Biso   1.000  H
  H15      1.0000 0.72100  0.35640  0.38510  Biso   1.000  H
  H16      1.0000 0.77900  0.85640  0.11490  Biso   1.000  H
  C29      1.0000 0.11600  0.49030  0.74278  Biso   1.000  C
  C30      1.0000 0.38400  0.99030  0.75722  Biso   1.000  C
  C31      1.0000 0.88400  0.50970  0.25722  Biso   1.000  C
  C32      1.0000 0.61600  0.00970  0.24278  Biso   1.000  C
  C33      1.0000 0.10830  0.38610  0.77770  Biso   1.000  C
  C34      1.0000 0.39170  0.88610  0.72230  Biso   1.000  C
  C35      1.0000 0.89170  0.61390  0.22230  Biso   1.000  C
  C36      1.0000 0.60830  0.11390  0.27770  Biso   1.000  C
  H17      1.0000 0.14520  0.30100  0.77470  Biso   1.000  H
  H18      1.0000 0.35480  0.80100  0.72530  Biso   1.000  H
  H19      1.0000 0.85480  0.69900  0.22530  Biso   1.000  H
  H20      1.0000 0.64520  0.19900  0.27470  Biso   1.000  H
  C37      1.0000 0.04830  0.40490  0.81613  Biso   1.000  C
  C38      1.0000 0.45170  0.90490  0.68387  Biso   1.000  C
  C39      1.0000 0.95170  0.59510  0.18387  Biso   1.000  C
  C40      1.0000 0.54830  0.09510  0.31613  Biso   1.000  C
  H21      1.0000 0.04570  0.33230  0.83820  Biso   1.000  H
  H22      1.0000 0.45430  0.83230  0.66180  Biso   1.000  H
  H23      1.0000 0.95430  0.66770  0.16180  Biso   1.000  H
  H24      1.0000 0.54570  0.16770  0.33820  Biso   1.000  H
  C41      1.0000 0.99050  0.53140  0.82306  Biso   1.000  C
  C42      1.0000 0.50950  0.03140  0.67694  Biso   1.000  C
  C43      1.0000 0.00950  0.46860  0.17694  Biso   1.000  C
  C44      1.0000 0.49050  0.96860  0.32306  Biso   1.000  C
  C45      1.0000 0.99640  0.63770  0.78758  Biso   1.000  C
  C46      1.0000 0.50360  0.13770  0.71242  Biso   1.000  C
  C47      1.0000 0.00360  0.36230  0.21242  Biso   1.000  C
  C48      1.0000 0.49640  0.86230  0.28758  Biso   1.000  C
  C49      1.0000 0.05860  0.61390  0.74913  Biso   1.000  C
  C50      1.0000 0.44140  0.11390  0.75087  Biso   1.000  C
  C51      1.0000 0.94140  0.38610  0.25087  Biso   1.000  C
  C52      1.0000 0.55860  0.88610  0.24913  Biso   1.000  C
  H25      1.0000 0.06140  0.68510  0.72650  Biso   1.000  H
  H26      1.0000 0.43860  0.18510  0.77350  Biso   1.000  H
  H27      1.0000 0.93860  0.31490  0.27350  Biso   1.000  H
  H28      1.0000 0.56140  0.81490  0.22650  Biso   1.000  H
  C53      1.0000 0.93650  0.76930  0.78756  Biso   1.000  C
  C54      1.0000 0.56350  0.26930  0.71244  Biso   1.000  C
  C55      1.0000 0.06350  0.23070  0.21244  Biso   1.000  C
  C56      1.0000 0.43650  0.73070  0.28756  Biso   1.000  C
  H29      1.0000 0.94010  0.82890  0.76140  Biso   1.000  H
  H30      1.0000 0.55990  0.32890  0.73860  Biso   1.000  H
  H31      1.0000 0.05990  0.17110  0.23860  Biso   1.000  H
  H32      1.0000 0.44010  0.67110  0.26140  Biso   1.000  H
  C57      1.0000 0.81690  0.94810  0.81486  Biso   1.000  C
  C58      1.0000 0.68310  0.44810  0.68514  Biso   1.000  C
  C59      1.0000 0.18310  0.05190  0.18514  Biso   1.000  C
  C60      1.0000 0.31690  0.55190  0.31486  Biso   1.000  C
  C61      1.0000 0.76910  0.97740  0.76177  Biso   1.000  C
  C62      1.0000 0.73090  0.47740  0.73823  Biso   1.000  C
  C63      1.0000 0.23090  0.02260  0.23823  Biso   1.000  C
  C64      1.0000 0.26910  0.52260  0.26177  Biso   1.000  C
  H33      1.0000 0.83090  0.99800  0.74380  Biso   1.000  H
  H34      1.0000 0.66910  0.49800  0.75620  Biso   1.000  H
  H35      1.0000 0.16910  0.00200  0.25620  Biso   1.000  H
  H36      1.0000 0.33090  0.50200  0.24380  Biso   1.000  H
  H37      1.0000 0.71820  0.05620  0.76020  Biso   1.000  H
  H38      1.0000 0.78180  0.55620  0.73980  Biso   1.000  H
  H39      1.0000 0.28180  0.94380  0.23980  Biso   1.000  H
  H40      1.0000 0.21820  0.44380  0.26020  Biso   1.000  H
  H41      1.0000 0.72850  0.89650  0.74820  Biso   1.000  H
  H42      1.0000 0.77150  0.39650  0.75180  Biso   1.000  H
  H43      1.0000 0.27150  0.10350  0.25180  Biso   1.000  H
  H44      1.0000 0.22850  0.60350  0.24820  Biso   1.000  H
  C65      1.0000 0.90040  0.06470  0.83240  Biso   1.000  C
  C66      1.0000 0.59960  0.56470  0.66760  Biso   1.000  C
  C67      1.0000 0.09960  0.93530  0.16760  Biso   1.000  C
  C68      1.0000 0.40040  0.43530  0.33240  Biso   1.000  C
  H45      1.0000 0.92550  0.05300  0.86640  Biso   1.000  H
  H46      1.0000 0.57450  0.55300  0.63360  Biso   1.000  H
  H47      1.0000 0.07450  0.94700  0.13360  Biso   1.000  H
  H48      1.0000 0.42550  0.44700  0.36640  Biso   1.000  H
  H49      1.0000 0.86330  0.15390  0.82690  Biso   1.000  H
  H50      1.0000 0.63670  0.65390  0.67310  Biso   1.000  H
  H51      1.0000 0.13670  0.84610  0.17310  Biso   1.000  H
  H52      1.0000 0.36330  0.34610  0.32690  Biso   1.000  H
  H53      1.0000 0.96500  0.06060  0.81500  Biso   1.000  H
  H54      1.0000 0.53500  0.56060  0.68500  Biso   1.000  H
  H55      1.0000 0.03500  0.93940  0.18500  Biso   1.000  H
  H56      1.0000 0.46500  0.43940  0.31500  Biso   1.000  H
  C69      1.0000 0.71950  0.93310  0.84739  Biso   1.000  C
  C70      1.0000 0.78050  0.43310  0.65261  Biso   1.000  C
  C71      1.0000 0.28050  0.06690  0.15261  Biso   1.000  C
  C72      1.0000 0.21950  0.56690  0.34739  Biso   1.000  C
  C73      1.0000 0.66180  0.07230  0.85528  Biso   1.000  C
  C74      1.0000 0.83820  0.57230  0.64472  Biso   1.000  C
  C75      1.0000 0.33820  0.92770  0.14472  Biso   1.000  C
  C76      1.0000 0.16180  0.42770  0.35528  Biso   1.000  C
  H57      1.0000 0.59700  0.05620  0.87190  Biso   1.000  H
  H58      1.0000 0.90300  0.55620  0.62810  Biso   1.000  H
  H59      1.0000 0.40300  0.94380  0.12810  Biso   1.000  H
  H60      1.0000 0.09700  0.44380  0.37190  Biso   1.000  H
  H61      1.0000 0.63710  0.11550  0.82450  Biso   1.000  H
  H62      1.0000 0.86290  0.61550  0.67550  Biso   1.000  H
  H63      1.0000 0.36290  0.88450  0.17550  Biso   1.000  H
  H64      1.0000 0.13710  0.38450  0.32450  Biso   1.000  H
  H65      1.0000 0.71480  0.13300  0.87430  Biso   1.000  H
  H66      1.0000 0.78520  0.63300  0.62570  Biso   1.000  H
  H67      1.0000 0.28520  0.86700  0.12570  Biso   1.000  H
  H68      1.0000 0.21480  0.36700  0.37430  Biso   1.000  H
  C77      1.0000 0.63070  0.82550  0.82521  Biso   1.000  C
  C78      1.0000 0.86930  0.32550  0.67479  Biso   1.000  C
  C79      1.0000 0.36930  0.17450  0.17479  Biso   1.000  C
  C80      1.0000 0.13070  0.67450  0.32521  Biso   1.000  C
  H69      1.0000 0.66880  0.74150  0.81730  Biso   1.000  H
  H70      1.0000 0.83120  0.24150  0.68270  Biso   1.000  H
  H71      1.0000 0.33120  0.25850  0.18270  Biso   1.000  H
  H72      1.0000 0.16880  0.75850  0.31730  Biso   1.000  H
  H73      1.0000 0.58830  0.86390  0.79640  Biso   1.000  H
  H74      1.0000 0.91170  0.36390  0.70360  Biso   1.000  H
  H75      1.0000 0.41170  0.13610  0.20360  Biso   1.000  H
  H76      1.0000 0.08830  0.63610  0.29640  Biso   1.000  H
  H77      1.0000 0.57950  0.80400  0.84810  Biso   1.000  H
  H78      1.0000 0.92050  0.30400  0.65190  Biso   1.000  H
  H79      1.0000 0.42050  0.19600  0.15190  Biso   1.000  H
  H80      1.0000 0.07950  0.69600  0.34810  Biso   1.000  H
  C81      1.0000 0.86820  0.70040  0.98700  Biso   1.000  C
  C82      1.0000 0.63180  0.20040  0.51300  Biso   1.000  C
  C83      1.0000 0.13180  0.29960  0.01300  Biso   1.000  C
  C84      1.0000 0.36820  0.79960  0.48700  Biso   1.000  C
  H81      1.0000 0.87160  0.79750  0.98420  Biso   1.000  H
  H82      1.0000 0.62840  0.29750  0.51580  Biso   1.000  H
  H83      1.0000 0.12840  0.20250  0.01580  Biso   1.000  H
  H84      1.0000 0.37160  0.70250  0.48420  Biso   1.000  H
  C85      1.0000 0.86850  0.64380  0.03224  Biso   1.000  C
  C86      1.0000 0.63150  0.14380  0.46776  Biso   1.000  C
  C87      1.0000 0.13150  0.35620  0.96776  Biso   1.000  C
  C88      1.0000 0.36850  0.85620  0.53224  Biso   1.000  C
  H85      1.0000 0.87290  0.70140  0.05930  Biso   1.000  H
  H86      1.0000 0.62710  0.20140  0.44070  Biso   1.000  H
  H87      1.0000 0.12710  0.29860  0.94070  Biso   1.000  H
  H88      1.0000 0.37290  0.79860  0.55930  Biso   1.000  H
  C89      1.0000 0.86220  0.49930  0.03699  Biso   1.000  C
  C90      1.0000 0.63780  0.99930  0.46301  Biso   1.000  C
  C91      1.0000 0.13780  0.50070  0.96301  Biso   1.000  C
  C92      1.0000 0.36220  0.00070  0.53699  Biso   1.000  C
  H89      1.0000 0.86250  0.45810  0.06720  Biso   1.000  H
  H90      1.0000 0.63750  0.95810  0.43280  Biso   1.000  H
  H91      1.0000 0.13750  0.54190  0.93280  Biso   1.000  H
  H92      1.0000 0.36250  0.04190  0.56720  Biso   1.000  H
  C93      1.0000 0.85540  0.41780  0.99562  Biso   1.000  C
  C94      1.0000 0.64460  0.91780  0.50438  Biso   1.000  C
  C95      1.0000 0.14460  0.58220  0.00438  Biso   1.000  C
  C96      1.0000 0.35540  0.08220  0.49562  Biso   1.000  C
  H93      1.0000 0.85070  0.32070  0.99760  Biso   1.000  H
  H94      1.0000 0.64930  0.82070  0.50240  Biso   1.000  H
  H95      1.0000 0.14930  0.67930  0.00240  Biso   1.000  H
  H96      1.0000 0.35070  0.17930  0.49760  Biso   1.000  H
  C97      1.0000 0.85570  0.48260  0.95159  Biso   1.000  C
  C98      1.0000 0.64430  0.98260  0.54841  Biso   1.000  C
  C99      1.0000 0.14430  0.51740  0.04841  Biso   1.000  C
  C100     1.0000 0.35570  0.01740  0.45159  Biso   1.000  C
  H97      1.0000 0.85050  0.42730  0.92390  Biso   1.000  H
  H98      1.0000 0.64950  0.92730  0.57610  Biso   1.000  H
  H99      1.0000 0.14950  0.57270  0.07610  Biso   1.000  H
  H100     1.0000 0.35050  0.07270  0.42390  Biso   1.000  H
  N1       1.0000 0.87880  0.81090  0.82050  Biso   1.000  N
  N2       1.0000 0.62120  0.31090  0.67950  Biso   1.000  N
  N3       1.0000 0.12120  0.18910  0.17950  Biso   1.000  N
  N4       1.0000 0.37880  0.68910  0.32050  Biso   1.000  N
  N5       1.0000 0.77280  0.87410  0.89449  Biso   1.000  N
  N6       1.0000 0.72720  0.37410  0.60551  Biso   1.000  N
  N7       1.0000 0.22720  0.12590  0.10551  Biso   1.000  N
  N8       1.0000 0.27280  0.62590  0.39449  Biso   1.000  N
  H101     1.0000 0.71810  0.84250  0.91130  Biso   1.000  H
  H102     1.0000 0.78190  0.34250  0.58870  Biso   1.000  H
  H103     1.0000 0.28190  0.15750  0.08870  Biso   1.000  H
  H104     1.0000 0.21810  0.65750  0.41130  Biso   1.000  H
  H105     1.0000 0.81210  0.94170  0.91210  Biso   1.000  H
  H106     1.0000 0.68790  0.44170  0.58790  Biso   1.000  H
  H107     1.0000 0.18790  0.05830  0.08790  Biso   1.000  H
  H108     1.0000 0.31210  0.55830  0.41210  Biso   1.000  H
  N9       1.0000 0.86330  0.62330  0.94678  Biso   1.000  N
  N10      1.0000 0.63670  0.12330  0.55322  Biso   1.000  N
  N11      1.0000 0.13670  0.37670  0.05322  Biso   1.000  N
  N12      1.0000 0.36330  0.87670  0.44678  Biso   1.000  N
  O1       1.0000 0.93692  0.54570  0.86070  Biso   1.000  O
  O2       1.0000 0.56308  0.04570  0.63930  Biso   1.000  O
  O3       1.0000 0.06308  0.45430  0.13930  Biso   1.000  O
  O4       1.0000 0.43692  0.95430  0.36070  Biso   1.000  O
  O5       1.0000 0.38759  0.52080  0.55507  Biso   1.000  O
  O6       1.0000 0.11241  0.02080  0.94493  Biso   1.000  O
  O7       1.0000 0.61241  0.47920  0.44493  Biso   1.000  O
  O8       1.0000 0.88759  0.97920  0.05507  Biso   1.000  O
  O9       1.0000 0.44449  0.31050  0.58358  Biso   1.000  O
  O10      1.0000 0.05551  0.81050  0.91642  Biso   1.000  O
  O11      1.0000 0.55551  0.68950  0.41642  Biso   1.000  O
  O12      1.0000 0.94449  0.18950  0.08358  Biso   1.000  O
  Cu1      1.0000 0.87752  0.71727  0.88313  Biso   1.000  Cu
  Cu2      1.0000 0.62248  0.21727  0.61687  Biso   1.000  Cu
  Cu3      1.0000 0.12248  0.28273  0.11687  Biso   1.000  Cu
  Cu4      1.0000 0.37752  0.78273  0.38313  Biso   1.000  Cu
  C101     1.0000 0.96780  0.70270  0.43922  Biso   1.000  C
  C102     1.0000 0.53220  0.20270  0.06078  Biso   1.000  C
  C103     1.0000 0.03220  0.29730  0.56078  Biso   1.000  C
  C104     1.0000 0.46780  0.79730  0.93922  Biso   1.000  C
  H109     1.0000 0.94780  0.71780  0.40620  Biso   1.000  H
  H110     1.0000 0.55220  0.21780  0.09380  Biso   1.000  H
  H111     1.0000 0.05220  0.28220  0.59380  Biso   1.000  H
  H112     1.0000 0.44780  0.78220  0.90620  Biso   1.000  H
  C105     1.0000 0.88290  0.71010  0.46862  Biso   1.000  C
  C106     1.0000 0.61710  0.21010  0.03138  Biso   1.000  C
  C107     1.0000 0.11710  0.28990  0.53138  Biso   1.000  C
  C108     1.0000 0.38290  0.78990  0.96862  Biso   1.000  C
  H113     1.0000 0.80800  0.72930  0.45550  Biso   1.000  H
  H114     1.0000 0.69200  0.22930  0.04450  Biso   1.000  H
  H115     1.0000 0.19200  0.27070  0.54450  Biso   1.000  H
  H116     1.0000 0.30800  0.77070  0.95550  Biso   1.000  H
  C109     1.0000 0.91040  0.68890  0.51720  Biso   1.000  C
  C110     1.0000 0.58960  0.18890  0.98280  Biso   1.000  C
  C111     1.0000 0.08960  0.31110  0.48280  Biso   1.000  C
  C112     1.0000 0.41040  0.81110  0.01720  Biso   1.000  C
  H117     1.0000 0.85470  0.69430  0.53770  Biso   1.000  H
  H118     1.0000 0.64530  0.19430  0.96230  Biso   1.000  H
  H119     1.0000 0.14530  0.30570  0.46230  Biso   1.000  H
  H120     1.0000 0.35470  0.80570  0.03770  Biso   1.000  H
  C113     1.0000 0.02310  0.65900  0.53542  Biso   1.000  C
  C114     1.0000 0.47690  0.15900  0.96458  Biso   1.000  C
  C115     1.0000 0.97690  0.34100  0.46458  Biso   1.000  C
  C116     1.0000 0.52310  0.84100  0.03542  Biso   1.000  C
  H121     1.0000 0.04470  0.64350  0.56830  Biso   1.000  H
  H122     1.0000 0.45530  0.14350  0.93170  Biso   1.000  H
  H123     1.0000 0.95530  0.35650  0.43170  Biso   1.000  H
  H124     1.0000 0.54470  0.85650  0.06830  Biso   1.000  H
  C117     1.0000 0.10250  0.65310  0.50295  Biso   1.000  C
  C118     1.0000 0.39750  0.15310  0.99705  Biso   1.000  C
  C119     1.0000 0.89750  0.34690  0.49705  Biso   1.000  C
  C120     1.0000 0.60250  0.84690  0.00295  Biso   1.000  C
  H125     1.0000 0.17790  0.63260  0.51500  Biso   1.000  H
  H126     1.0000 0.32210  0.13260  0.98500  Biso   1.000  H
  H127     1.0000 0.82210  0.36740  0.48500  Biso   1.000  H
  H128     1.0000 0.67790  0.86740  0.01500  Biso   1.000  H
  N13      1.0000 0.07690  0.67510  0.45542  Biso   1.000  N
  N14      1.0000 0.42310  0.17510  0.04458  Biso   1.000  N
  N15      1.0000 0.92310  0.32490  0.54458  Biso   1.000  N
  N16      1.0000 0.57690  0.82490  0.95542  Biso   1.000  N
  C121     1.0000 0.91200  0.96020  0.64258  Biso   1.000  C
  C122     1.0000 0.58800  0.46020  0.85742  Biso   1.000  C
  C123     1.0000 0.08800  0.03980  0.35742  Biso   1.000  C
  C124     1.0000 0.41200  0.53980  0.14258  Biso   1.000  C
  H129     1.0000 0.83400  0.95550  0.64400  Biso   1.000  H
  H130     1.0000 0.66600  0.45550  0.85600  Biso   1.000  H
  H131     1.0000 0.16600  0.04450  0.35600  Biso   1.000  H
  H132     1.0000 0.33400  0.54450  0.14400  Biso   1.000  H
  C125     1.0000 0.94720  0.96500  0.59855  Biso   1.000  C
  C126     1.0000 0.55280  0.46500  0.90145  Biso   1.000  C
  C127     1.0000 0.05280  0.03500  0.40145  Biso   1.000  C
  C128     1.0000 0.44720  0.53500  0.09855  Biso   1.000  C
  H133     1.0000 0.89490  0.96570  0.57050  Biso   1.000  H
  H134     1.0000 0.60510  0.46570  0.92950  Biso   1.000  H
  H135     1.0000 0.10510  0.03430  0.42950  Biso   1.000  H
  H136     1.0000 0.39490  0.53430  0.07050  Biso   1.000  H
  C129     1.0000 0.06330  0.96890  0.59625  Biso   1.000  C
  C130     1.0000 0.43670  0.46890  0.90375  Biso   1.000  C
  C131     1.0000 0.93670  0.03110  0.40375  Biso   1.000  C
  C132     1.0000 0.56330  0.53110  0.09625  Biso   1.000  C
  H137     1.0000 0.09060  0.96930  0.56650  Biso   1.000  H
  H138     1.0000 0.40940  0.46930  0.93350  Biso   1.000  H
  H139     1.0000 0.90940  0.03070  0.43350  Biso   1.000  H
  H140     1.0000 0.59060  0.53070  0.06650  Biso   1.000  H
  C133     1.0000 0.13710  0.97200  0.63841  Biso   1.000  C
  C134     1.0000 0.36290  0.47200  0.86159  Biso   1.000  C
  C135     1.0000 0.86290  0.02800  0.36159  Biso   1.000  C
  C136     1.0000 0.63710  0.52800  0.13841  Biso   1.000  C
  H141     1.0000 0.21550  0.97620  0.63810  Biso   1.000  H
  H142     1.0000 0.28450  0.47620  0.86190  Biso   1.000  H
  H143     1.0000 0.78450  0.02380  0.36190  Biso   1.000  H
  H144     1.0000 0.71550  0.52380  0.13810  Biso   1.000  H
  C137     1.0000 0.09260  0.96880  0.68072  Biso   1.000  C
  C138     1.0000 0.40740  0.46880  0.81928  Biso   1.000  C
  C139     1.0000 0.90740  0.03120  0.31928  Biso   1.000  C
  C140     1.0000 0.59260  0.53120  0.18072  Biso   1.000  C
  H145     1.0000 0.14300  0.97180  0.70930  Biso   1.000  H
  H146     1.0000 0.35700  0.47180  0.79070  Biso   1.000  H
  H147     1.0000 0.85700  0.02820  0.29070  Biso   1.000  H
  H148     1.0000 0.64300  0.52820  0.20930  Biso   1.000  H
  N17      1.0000 0.98170  0.96170  0.68399  Biso   1.000  N
  N18      1.0000 0.51830  0.46170  0.81601  Biso   1.000  N
  N19      1.0000 0.01830  0.03830  0.31601  Biso   1.000  N
  N20      1.0000 0.48170  0.53830  0.18399  Biso   1.000  N
  O13      1.0000 0.88914  0.08170  0.96141  Biso   1.000  O
  O14      1.0000 0.61086  0.58170  0.53859  Biso   1.000  O
  O15      1.0000 0.11086  0.91830  0.03859  Biso   1.000  O
  O16      1.0000 0.38914  0.41830  0.46141  Biso   1.000  O
  H149     1.0000 0.96180  0.05900  0.95460  Biso   1.000  H
  H150     1.0000 0.53820  0.55900  0.54540  Biso   1.000  H
  H151     1.0000 0.03820  0.94100  0.04540  Biso   1.000  H
  H152     1.0000 0.46180  0.44100  0.45460  Biso   1.000  H
  H153     1.0000 0.88800  0.04800  0.99320  Biso   1.000  H
  H154     1.0000 0.61200  0.54800  0.50680  Biso   1.000  H
  H155     1.0000 0.11200  0.95200  0.00680  Biso   1.000  H
  H156     1.0000 0.38800  0.45200  0.49320  Biso   1.000  H
