data_image0
_cell_length_a       9.1735
_cell_length_b       14.049
_cell_length_c       26.5677
_cell_angle_alpha    90
_cell_angle_beta     94.044
_cell_angle_gamma    90

_symmetry_space_group_name_H-M    "P 1"
_symmetry_int_tables_number       1

loop_
  _symmetry_equiv_pos_as_xyz
  'x, y, z'

loop_
  _atom_site_label
  _atom_site_occupancy
  _atom_site_fract_x
  _atom_site_fract_y
  _atom_site_fract_z
  _atom_site_thermal_displace_type
  _atom_site_B_iso_or_equiv
  _atom_site_type_symbol
  Cu1      1.0000 0.37027  0.19474  0.35113  Biso   1.000  Cu
  Cu2      1.0000 0.12973  0.69474  0.14887  Biso   1.000  Cu
  Cu3      1.0000 0.62973  0.80526  0.64887  Biso   1.000  Cu
  Cu4      1.0000 0.87027  0.30526  0.85113  Biso   1.000  Cu
  Cu5      1.0000 0.87212  0.30025  0.35147  Biso   1.000  Cu
  Cu6      1.0000 0.62788  0.80025  0.14854  Biso   1.000  Cu
  Cu7      1.0000 0.12788  0.69975  0.64853  Biso   1.000  Cu
  Cu8      1.0000 0.37212  0.19975  0.85147  Biso   1.000  Cu
  O1       1.0000 0.40830  0.33264  0.34675  Biso   1.000  O
  O2       1.0000 0.09170  0.83264  0.15325  Biso   1.000  O
  O3       1.0000 0.59170  0.66736  0.65325  Biso   1.000  O
  O4       1.0000 0.90830  0.16736  0.84675  Biso   1.000  O
  O5       1.0000 0.63680  0.28242  0.35005  Biso   1.000  O
  O6       1.0000 0.86320  0.78242  0.14995  Biso   1.000  O
  O7       1.0000 0.36320  0.71758  0.64995  Biso   1.000  O
  O8       1.0000 0.13680  0.21758  0.85005  Biso   1.000  O
  O9       1.0000 0.85240  0.43970  0.35127  Biso   1.000  O
  O10      1.0000 0.64760  0.93970  0.14873  Biso   1.000  O
  O11      1.0000 0.14760  0.56030  0.64873  Biso   1.000  O
  O12      1.0000 0.35240  0.06030  0.85127  Biso   1.000  O
  O13      1.0000 0.72640  0.54209  0.39502  Biso   1.000  O
  O14      1.0000 0.77360  0.04209  0.10498  Biso   1.000  O
  O15      1.0000 0.27360  0.45791  0.60498  Biso   1.000  O
  O16      1.0000 0.22640  0.95791  0.89502  Biso   1.000  O
  O17      1.0000 0.13970  0.21280  0.35430  Biso   1.000  O
  O18      1.0000 0.36030  0.71280  0.14570  Biso   1.000  O
  O19      1.0000 0.86030  0.78720  0.64570  Biso   1.000  O
  O20      1.0000 0.63970  0.28720  0.85430  Biso   1.000  O
  O21      1.0000 0.91320  0.16197  0.35598  Biso   1.000  O
  O22      1.0000 0.58680  0.66197  0.14402  Biso   1.000  O
  O23      1.0000 0.08680  0.83803  0.64402  Biso   1.000  O
  O24      1.0000 0.41320  0.33803  0.85598  Biso   1.000  O
  O25      1.0000 0.34860  0.05721  0.35299  Biso   1.000  O
  O26      1.0000 0.15140  0.55721  0.14701  Biso   1.000  O
  O27      1.0000 0.65140  0.94279  0.64701  Biso   1.000  O
  O28      1.0000 0.84860  0.44279  0.85299  Biso   1.000  O
  O29      1.0000 0.26620  0.92390  0.38166  Biso   1.000  O
  O30      1.0000 0.23380  0.42390  0.11834  Biso   1.000  O
  O31      1.0000 0.73380  0.07610  0.61834  Biso   1.000  O
  O32      1.0000 0.76620  0.57610  0.88166  Biso   1.000  O
  N1       1.0000 0.37630  0.18457  0.27549  Biso   1.000  N
  N2       1.0000 0.12370  0.68457  0.22451  Biso   1.000  N
  N3       1.0000 0.62370  0.81543  0.72451  Biso   1.000  N
  N4       1.0000 0.87630  0.31543  0.77549  Biso   1.000  N
  N5       1.0000 0.39830  0.19393  0.92761  Biso   1.000  N
  N6       1.0000 0.10170  0.69393  0.57239  Biso   1.000  N
  N7       1.0000 0.60170  0.80607  0.07239  Biso   1.000  N
  N8       1.0000 0.89830  0.30607  0.42761  Biso   1.000  N
  N9       1.0000 0.40520  0.19740  0.42724  Biso   1.000  N
  N10      1.0000 0.09480  0.69740  0.07276  Biso   1.000  N
  N11      1.0000 0.59480  0.80260  0.57276  Biso   1.000  N
  N12      1.0000 0.90520  0.30260  0.92724  Biso   1.000  N
  N13      1.0000 0.38020  0.20360  0.77636  Biso   1.000  N
  N14      1.0000 0.11980  0.70360  0.72364  Biso   1.000  N
  N15      1.0000 0.61980  0.79640  0.22364  Biso   1.000  N
  N16      1.0000 0.88020  0.29640  0.27636  Biso   1.000  N
  C1       1.0000 0.54420  0.34780  0.34458  Biso   1.000  C
  C2       1.0000 0.95580  0.84780  0.15542  Biso   1.000  C
  C3       1.0000 0.45580  0.65220  0.65542  Biso   1.000  C
  C4       1.0000 0.04420  0.15220  0.84458  Biso   1.000  C
  C5       1.0000 0.59130  0.44960  0.33197  Biso   1.000  C
  C6       1.0000 0.90870  0.94960  0.16803  Biso   1.000  C
  C7       1.0000 0.40870  0.55040  0.66803  Biso   1.000  C
  C8       1.0000 0.09130  0.05040  0.83197  Biso   1.000  C
  C9       1.0000 0.46520  0.52270  0.32865  Biso   1.000  C
  C10      1.0000 0.03480  0.02270  0.17135  Biso   1.000  C
  C11      1.0000 0.53480  0.47730  0.67135  Biso   1.000  C
  C12      1.0000 0.96520  0.97730  0.82865  Biso   1.000  C
  H1       1.0000 0.37780  0.50150  0.34540  Biso   1.000  H
  H2       1.0000 0.12220  0.00150  0.15460  Biso   1.000  H
  H3       1.0000 0.62220  0.49850  0.65460  Biso   1.000  H
  H4       1.0000 0.87780  0.99850  0.84540  Biso   1.000  H
  H5       1.0000 0.49520  0.58740  0.34000  Biso   1.000  H
  H6       1.0000 0.00480  0.08740  0.16000  Biso   1.000  H
  H7       1.0000 0.50480  0.41260  0.66000  Biso   1.000  H
  H8       1.0000 0.99520  0.91260  0.84000  Biso   1.000  H
  C13      1.0000 0.45030  0.51140  0.27084  Biso   1.000  C
  C14      1.0000 0.04970  0.01140  0.22916  Biso   1.000  C
  C15      1.0000 0.54970  0.48860  0.72916  Biso   1.000  C
  C16      1.0000 0.95030  0.98860  0.77084  Biso   1.000  C
  H9       1.0000 0.36620  0.47170  0.25840  Biso   1.000  H
  H10      1.0000 0.13380  0.97170  0.24160  Biso   1.000  H
  H11      1.0000 0.63380  0.52830  0.74160  Biso   1.000  H
  H12      1.0000 0.86620  0.02830  0.75840  Biso   1.000  H
  H13      1.0000 0.45110  0.57260  0.25240  Biso   1.000  H
  H14      1.0000 0.04890  0.07260  0.24760  Biso   1.000  H
  H15      1.0000 0.54890  0.42740  0.74760  Biso   1.000  H
  H16      1.0000 0.95110  0.92740  0.75240  Biso   1.000  H
  C17      1.0000 0.59760  0.45840  0.27301  Biso   1.000  C
  C18      1.0000 0.90240  0.95840  0.22699  Biso   1.000  C
  C19      1.0000 0.40240  0.54160  0.72699  Biso   1.000  C
  C20      1.0000 0.09760  0.04160  0.77301  Biso   1.000  C
  H17      1.0000 0.67980  0.49770  0.26260  Biso   1.000  H
  H18      1.0000 0.82020  0.99770  0.23740  Biso   1.000  H
  H19      1.0000 0.32020  0.50230  0.73740  Biso   1.000  H
  H20      1.0000 0.17980  0.00230  0.76260  Biso   1.000  H
  H21      1.0000 0.59350  0.39650  0.25520  Biso   1.000  H
  H22      1.0000 0.90650  0.89650  0.24480  Biso   1.000  H
  H23      1.0000 0.40650  0.60350  0.74480  Biso   1.000  H
  H24      1.0000 0.09350  0.10350  0.75520  Biso   1.000  H
  C21      1.0000 0.73260  0.47930  0.36279  Biso   1.000  C
  C22      1.0000 0.76740  0.97930  0.13721  Biso   1.000  C
  C23      1.0000 0.26740  0.52070  0.63721  Biso   1.000  C
  C24      1.0000 0.23260  0.02070  0.86279  Biso   1.000  C
  C25      1.0000 0.24620  0.00750  0.36813  Biso   1.000  C
  C26      1.0000 0.25380  0.50750  0.13187  Biso   1.000  C
  C27      1.0000 0.75380  0.99250  0.63187  Biso   1.000  C
  C28      1.0000 0.74620  0.49250  0.86813  Biso   1.000  C
  C29      1.0000 0.09630  0.04840  0.37899  Biso   1.000  C
  C30      1.0000 0.40370  0.54840  0.12101  Biso   1.000  C
  C31      1.0000 0.90370  0.95160  0.62101  Biso   1.000  C
  C32      1.0000 0.59630  0.45160  0.87899  Biso   1.000  C
  C33      1.0000 0.07840  0.04590  0.43778  Biso   1.000  C
  C34      1.0000 0.42160  0.54590  0.06222  Biso   1.000  C
  C35      1.0000 0.92160  0.95410  0.56222  Biso   1.000  C
  C36      1.0000 0.57840  0.45410  0.93778  Biso   1.000  C
  H25      1.0000 0.15880  0.01240  0.45730  Biso   1.000  H
  H26      1.0000 0.34120  0.51240  0.04270  Biso   1.000  H
  H27      1.0000 0.84120  0.98760  0.54270  Biso   1.000  H
  H28      1.0000 0.65880  0.48760  0.95730  Biso   1.000  H
  H29      1.0000 0.06090  0.10930  0.45250  Biso   1.000  H
  H30      1.0000 0.43910  0.60930  0.04750  Biso   1.000  H
  H31      1.0000 0.93910  0.89070  0.54750  Biso   1.000  H
  H32      1.0000 0.56090  0.39070  0.95250  Biso   1.000  H
  C37      1.0000 0.94000  0.98600  0.42866  Biso   1.000  C
  C38      1.0000 0.56000  0.48600  0.07134  Biso   1.000  C
  C39      1.0000 0.06000  0.01400  0.57134  Biso   1.000  C
  C40      1.0000 0.44000  0.51400  0.92866  Biso   1.000  C
  H33      1.0000 0.84900  0.02150  0.43390  Biso   1.000  H
  H34      1.0000 0.65100  0.52150  0.06610  Biso   1.000  H
  H35      1.0000 0.15100  0.97850  0.56610  Biso   1.000  H
  H36      1.0000 0.34900  0.47850  0.93390  Biso   1.000  H
  H37      1.0000 0.94310  0.92530  0.44760  Biso   1.000  H
  H38      1.0000 0.55690  0.42530  0.05240  Biso   1.000  H
  H39      1.0000 0.05690  0.07470  0.55240  Biso   1.000  H
  H40      1.0000 0.44310  0.57470  0.94760  Biso   1.000  H
  C41      1.0000 0.97030  0.97440  0.37253  Biso   1.000  C
  C42      1.0000 0.52970  0.47440  0.12747  Biso   1.000  C
  C43      1.0000 0.02970  0.02560  0.62747  Biso   1.000  C
  C44      1.0000 0.47030  0.52560  0.87253  Biso   1.000  C
  H41      1.0000 0.88820  0.99510  0.34890  Biso   1.000  H
  H42      1.0000 0.61180  0.49510  0.15110  Biso   1.000  H
  H43      1.0000 0.11180  0.00490  0.65110  Biso   1.000  H
  H44      1.0000 0.38820  0.50490  0.84890  Biso   1.000  H
  H45      1.0000 0.00360  0.90970  0.36390  Biso   1.000  H
  H46      1.0000 0.49640  0.40970  0.13610  Biso   1.000  H
  H47      1.0000 0.99640  0.09030  0.63610  Biso   1.000  H
  H48      1.0000 0.50360  0.59030  0.86390  Biso   1.000  H
  C45      1.0000 0.05010  0.14770  0.36029  Biso   1.000  C
  C46      1.0000 0.44990  0.64770  0.13971  Biso   1.000  C
  C47      1.0000 0.94990  0.85230  0.63971  Biso   1.000  C
  C48      1.0000 0.55010  0.35230  0.86029  Biso   1.000  C
  C49      1.0000 0.29840  0.24600  0.24589  Biso   1.000  C
  C50      1.0000 0.20160  0.74600  0.25411  Biso   1.000  C
  C51      1.0000 0.70160  0.75400  0.75411  Biso   1.000  C
  C52      1.0000 0.79840  0.25400  0.74589  Biso   1.000  C
  H49      1.0000 0.25130  0.29760  0.26120  Biso   1.000  H
  H50      1.0000 0.24870  0.79760  0.23880  Biso   1.000  H
  H51      1.0000 0.74870  0.70240  0.73880  Biso   1.000  H
  H52      1.0000 0.75130  0.20240  0.76120  Biso   1.000  H
  C53      1.0000 0.28390  0.23730  0.19380  Biso   1.000  C
  C54      1.0000 0.21610  0.73730  0.30620  Biso   1.000  C
  C55      1.0000 0.71610  0.76270  0.80620  Biso   1.000  C
  C56      1.0000 0.78390  0.26270  0.69380  Biso   1.000  C
  H53      1.0000 0.22760  0.28230  0.17410  Biso   1.000  H
  H54      1.0000 0.27240  0.78230  0.32590  Biso   1.000  H
  H55      1.0000 0.77240  0.71770  0.82590  Biso   1.000  H
  H56      1.0000 0.72760  0.21770  0.67410  Biso   1.000  H
  C57      1.0000 0.35200  0.16270  0.17067  Biso   1.000  C
  C58      1.0000 0.14800  0.66270  0.32933  Biso   1.000  C
  C59      1.0000 0.64800  0.83730  0.82933  Biso   1.000  C
  C60      1.0000 0.85200  0.33730  0.67067  Biso   1.000  C
  C61      1.0000 0.43770  0.10140  0.20167  Biso   1.000  C
  C62      1.0000 0.06230  0.60140  0.29833  Biso   1.000  C
  C63      1.0000 0.56230  0.89860  0.79833  Biso   1.000  C
  C64      1.0000 0.93770  0.39860  0.70167  Biso   1.000  C
  H57      1.0000 0.49050  0.05120  0.18730  Biso   1.000  H
  H58      1.0000 0.00950  0.55120  0.31270  Biso   1.000  H
  H59      1.0000 0.50950  0.94880  0.81270  Biso   1.000  H
  H60      1.0000 0.99050  0.44880  0.68730  Biso   1.000  H
  C65      1.0000 0.44530  0.11400  0.25316  Biso   1.000  C
  C66      1.0000 0.05470  0.61400  0.24684  Biso   1.000  C
  C67      1.0000 0.55470  0.88600  0.74684  Biso   1.000  C
  C68      1.0000 0.94530  0.38600  0.75316  Biso   1.000  C
  H61      1.0000 0.50210  0.07060  0.27380  Biso   1.000  H
  H62      1.0000 0.99790  0.57060  0.22620  Biso   1.000  H
  H63      1.0000 0.49790  0.92940  0.72620  Biso   1.000  H
  H64      1.0000 0.00210  0.42940  0.77380  Biso   1.000  H
  C69      1.0000 0.33740  0.14990  0.11410  Biso   1.000  C
  C70      1.0000 0.16260  0.64990  0.38590  Biso   1.000  C
  C71      1.0000 0.66260  0.85010  0.88590  Biso   1.000  C
  C72      1.0000 0.83740  0.35010  0.61410  Biso   1.000  C
  H65      1.0000 0.24420  0.17820  0.10030  Biso   1.000  H
  H66      1.0000 0.25580  0.67820  0.39970  Biso   1.000  H
  H67      1.0000 0.75580  0.82180  0.89970  Biso   1.000  H
  H68      1.0000 0.74420  0.32180  0.60030  Biso   1.000  H
  H69      1.0000 0.33540  0.08110  0.10600  Biso   1.000  H
  H70      1.0000 0.16460  0.58110  0.39400  Biso   1.000  H
  H71      1.0000 0.66460  0.91890  0.89400  Biso   1.000  H
  H72      1.0000 0.83540  0.41890  0.60600  Biso   1.000  H
  C73      1.0000 0.46420  0.19680  0.08957  Biso   1.000  C
  C74      1.0000 0.03580  0.69680  0.41043  Biso   1.000  C
  C75      1.0000 0.53580  0.80320  0.91043  Biso   1.000  C
  C76      1.0000 0.96420  0.30320  0.58957  Biso   1.000  C
  H73      1.0000 0.55590  0.16270  0.09990  Biso   1.000  H
  H74      1.0000 0.94410  0.66270  0.40010  Biso   1.000  H
  H75      1.0000 0.44410  0.83730  0.90010  Biso   1.000  H
  H76      1.0000 0.05590  0.33730  0.59990  Biso   1.000  H
  H77      1.0000 0.47450  0.26340  0.10150  Biso   1.000  H
  H78      1.0000 0.02550  0.76340  0.39850  Biso   1.000  H
  H79      1.0000 0.52550  0.73660  0.89850  Biso   1.000  H
  H80      1.0000 0.97450  0.23660  0.60150  Biso   1.000  H
  C77      1.0000 0.44110  0.19580  0.03269  Biso   1.000  C
  C78      1.0000 0.05890  0.69580  0.46731  Biso   1.000  C
  C79      1.0000 0.55890  0.80420  0.96731  Biso   1.000  C
  C80      1.0000 0.94110  0.30420  0.53269  Biso   1.000  C
  C81      1.0000 0.35030  0.26090  0.00718  Biso   1.000  C
  C82      1.0000 0.14970  0.76090  0.49282  Biso   1.000  C
  C83      1.0000 0.64970  0.73910  0.99282  Biso   1.000  C
  C84      1.0000 0.85030  0.23910  0.50718  Biso   1.000  C
  H81      1.0000 0.30090  0.30770  0.02540  Biso   1.000  H
  H82      1.0000 0.19910  0.80770  0.47460  Biso   1.000  H
  H83      1.0000 0.69910  0.69230  0.97460  Biso   1.000  H
  H84      1.0000 0.80090  0.19230  0.52540  Biso   1.000  H
  C85      1.0000 0.34410  0.26670  0.45273  Biso   1.000  C
  C86      1.0000 0.15590  0.76670  0.04727  Biso   1.000  C
  C87      1.0000 0.65590  0.73330  0.54727  Biso   1.000  C
  C88      1.0000 0.84410  0.23330  0.95273  Biso   1.000  C
  H85      1.0000 0.28860  0.31370  0.43420  Biso   1.000  H
  H86      1.0000 0.21140  0.81370  0.06580  Biso   1.000  H
  H87      1.0000 0.71140  0.68630  0.56580  Biso   1.000  H
  H88      1.0000 0.78860  0.18630  0.93420  Biso   1.000  H
  C89      1.0000 0.35710  0.27380  0.50474  Biso   1.000  C
  C90      1.0000 0.14290  0.77380  0.99526  Biso   1.000  C
  C91      1.0000 0.64290  0.72620  0.49526  Biso   1.000  C
  C92      1.0000 0.85710  0.22620  0.00474  Biso   1.000  C
  H89      1.0000 0.30990  0.32390  0.52120  Biso   1.000  H
  H90      1.0000 0.19010  0.82390  0.97880  Biso   1.000  H
  H91      1.0000 0.69010  0.67610  0.47880  Biso   1.000  H
  H92      1.0000 0.80990  0.17610  0.02120  Biso   1.000  H
  C93      1.0000 0.43870  0.20810  0.53219  Biso   1.000  C
  C94      1.0000 0.06130  0.70810  0.96781  Biso   1.000  C
  C95      1.0000 0.56130  0.79190  0.46781  Biso   1.000  C
  C96      1.0000 0.93870  0.29190  0.03219  Biso   1.000  C
  C97      1.0000 0.49900  0.13290  0.50579  Biso   1.000  C
  C98      1.0000 0.00100  0.63290  0.99421  Biso   1.000  C
  C99      1.0000 0.50100  0.86710  0.49421  Biso   1.000  C
  C100     1.0000 0.99900  0.36710  0.00579  Biso   1.000  C
  H93      1.0000 0.55250  0.08410  0.52360  Biso   1.000  H
  H94      1.0000 0.94750  0.58410  0.97640  Biso   1.000  H
  H95      1.0000 0.44750  0.91590  0.47640  Biso   1.000  H
  H96      1.0000 0.05250  0.41590  0.02360  Biso   1.000  H
  C101     1.0000 0.48010  0.12990  0.45340  Biso   1.000  C
  C102     1.0000 0.01990  0.62990  0.04660  Biso   1.000  C
  C103     1.0000 0.51990  0.87010  0.54660  Biso   1.000  C
  C104     1.0000 0.98010  0.37010  0.95340  Biso   1.000  C
  H97      1.0000 0.52140  0.07880  0.43580  Biso   1.000  H
  H98      1.0000 0.97860  0.57880  0.06420  Biso   1.000  H
  H99      1.0000 0.47860  0.92120  0.56420  Biso   1.000  H
  H100     1.0000 0.02140  0.42120  0.93580  Biso   1.000  H
  C105     1.0000 0.45910  0.22180  0.58905  Biso   1.000  C
  C106     1.0000 0.04090  0.72180  0.91095  Biso   1.000  C
  C107     1.0000 0.54090  0.77820  0.41095  Biso   1.000  C
  C108     1.0000 0.95910  0.27820  0.08905  Biso   1.000  C
  H101     1.0000 0.55100  0.19070  0.60200  Biso   1.000  H
  H102     1.0000 0.94900  0.69070  0.89800  Biso   1.000  H
  H103     1.0000 0.44900  0.80930  0.39800  Biso   1.000  H
  H104     1.0000 0.05100  0.30930  0.10200  Biso   1.000  H
  H105     1.0000 0.46730  0.29060  0.59680  Biso   1.000  H
  H106     1.0000 0.03270  0.79060  0.90320  Biso   1.000  H
  H107     1.0000 0.53270  0.70940  0.40320  Biso   1.000  H
  H108     1.0000 0.96730  0.20940  0.09680  Biso   1.000  H
  C109     1.0000 0.33820  0.18200  0.61421  Biso   1.000  C
  C110     1.0000 0.16180  0.68200  0.88579  Biso   1.000  C
  C111     1.0000 0.66180  0.81800  0.38579  Biso   1.000  C
  C112     1.0000 0.83820  0.31800  0.11421  Biso   1.000  C
  H109     1.0000 0.24680  0.21410  0.60150  Biso   1.000  H
  H110     1.0000 0.25320  0.71410  0.89850  Biso   1.000  H
  H111     1.0000 0.75320  0.78590  0.39850  Biso   1.000  H
  H112     1.0000 0.74680  0.28590  0.10150  Biso   1.000  H
  H113     1.0000 0.32870  0.11360  0.60550  Biso   1.000  H
  H114     1.0000 0.17130  0.61360  0.89450  Biso   1.000  H
  H115     1.0000 0.67130  0.88640  0.39450  Biso   1.000  H
  H116     1.0000 0.82870  0.38640  0.10550  Biso   1.000  H
  C113     1.0000 0.35590  0.19220  0.67124  Biso   1.000  C
  C114     1.0000 0.14410  0.69220  0.82876  Biso   1.000  C
  C115     1.0000 0.64410  0.80780  0.32876  Biso   1.000  C
  C116     1.0000 0.85590  0.30780  0.17124  Biso   1.000  C
  C117     1.0000 0.28350  0.26270  0.69690  Biso   1.000  C
  C118     1.0000 0.21650  0.76270  0.80310  Biso   1.000  C
  C119     1.0000 0.71650  0.73730  0.30310  Biso   1.000  C
  C120     1.0000 0.78350  0.23730  0.19690  Biso   1.000  C
  H117     1.0000 0.22440  0.30830  0.67870  Biso   1.000  H
  H118     1.0000 0.27560  0.80830  0.82130  Biso   1.000  H
  H119     1.0000 0.77560  0.69170  0.32130  Biso   1.000  H
  H120     1.0000 0.72440  0.19170  0.17870  Biso   1.000  H
  C121     1.0000 0.33110  0.25810  0.95523  Biso   1.000  C
  C122     1.0000 0.16890  0.75810  0.54477  Biso   1.000  C
  C123     1.0000 0.66890  0.74190  0.04477  Biso   1.000  C
  C124     1.0000 0.83110  0.24190  0.45523  Biso   1.000  C
  H121     1.0000 0.26800  0.30340  0.93840  Biso   1.000  H
  H122     1.0000 0.23200  0.80340  0.56160  Biso   1.000  H
  H123     1.0000 0.73200  0.69660  0.06160  Biso   1.000  H
  H124     1.0000 0.76800  0.19660  0.43840  Biso   1.000  H
  C125     1.0000 0.48340  0.12890  0.95233  Biso   1.000  C
  C126     1.0000 0.01660  0.62890  0.54767  Biso   1.000  C
  C127     1.0000 0.51660  0.87110  0.04767  Biso   1.000  C
  C128     1.0000 0.98340  0.37110  0.45233  Biso   1.000  C
  H125     1.0000 0.52890  0.08160  0.93330  Biso   1.000  H
  H126     1.0000 0.97110  0.58160  0.56670  Biso   1.000  H
  H127     1.0000 0.47110  0.91840  0.06670  Biso   1.000  H
  H128     1.0000 0.02890  0.41840  0.43330  Biso   1.000  H
  C129     1.0000 0.50760  0.12770  0.00434  Biso   1.000  C
  C130     1.0000 0.99240  0.62770  0.49566  Biso   1.000  C
  C131     1.0000 0.49240  0.87230  0.99566  Biso   1.000  C
  C132     1.0000 0.00760  0.37230  0.50434  Biso   1.000  C
  H129     1.0000 0.56920  0.08070  0.02040  Biso   1.000  H
  H130     1.0000 0.93080  0.58070  0.47960  Biso   1.000  H
  H131     1.0000 0.43080  0.91930  0.97960  Biso   1.000  H
  H132     1.0000 0.06920  0.41930  0.52040  Biso   1.000  H
  C133     1.0000 0.29870  0.26560  0.74902  Biso   1.000  C
  C134     1.0000 0.20130  0.76560  0.75098  Biso   1.000  C
  C135     1.0000 0.70130  0.73440  0.25098  Biso   1.000  C
  C136     1.0000 0.79870  0.23440  0.24902  Biso   1.000  C
  H133     1.0000 0.24890  0.31400  0.76600  Biso   1.000  H
  H134     1.0000 0.25110  0.81400  0.73400  Biso   1.000  H
  H135     1.0000 0.75110  0.68600  0.23400  Biso   1.000  H
  H136     1.0000 0.74890  0.18600  0.26600  Biso   1.000  H
  C137     1.0000 0.45490  0.13770  0.75176  Biso   1.000  C
  C138     1.0000 0.04510  0.63770  0.74824  Biso   1.000  C
  C139     1.0000 0.54510  0.86230  0.24824  Biso   1.000  C
  C140     1.0000 0.95490  0.36230  0.25176  Biso   1.000  C
  H137     1.0000 0.51630  0.09470  0.77100  Biso   1.000  H
  H138     1.0000 0.98370  0.59470  0.72900  Biso   1.000  H
  H139     1.0000 0.48370  0.90530  0.22900  Biso   1.000  H
  H140     1.0000 0.01630  0.40530  0.27100  Biso   1.000  H
  C141     1.0000 0.44570  0.13010  0.69949  Biso   1.000  C
  C142     1.0000 0.05430  0.63010  0.80051  Biso   1.000  C
  C143     1.0000 0.55430  0.86990  0.30051  Biso   1.000  C
  C144     1.0000 0.94570  0.36990  0.19949  Biso   1.000  C
  H141     1.0000 0.50030  0.08300  0.68340  Biso   1.000  H
  H142     1.0000 0.99970  0.58300  0.81660  Biso   1.000  H
  H143     1.0000 0.49970  0.91700  0.31660  Biso   1.000  H
  H144     1.0000 0.00030  0.41700  0.18340  Biso   1.000  H
  O33      1.0000 0.43420  0.51710  0.48100  Biso   1.000  O
  O34      1.0000 0.06580  0.01710  0.01900  Biso   1.000  O
  O35      1.0000 0.56580  0.48290  0.51900  Biso   1.000  O
  O36      1.0000 0.93420  0.98290  0.98100  Biso   1.000  O
  C145     1.0000 0.31150  0.48510  0.49540  Biso   1.000  C
  C146     1.0000 0.18850  0.98510  0.00460  Biso   1.000  C
  C147     1.0000 0.68850  0.51490  0.50460  Biso   1.000  C
  C148     1.0000 0.81150  0.01490  0.99540  Biso   1.000  C
