data_image0
_cell_length_a       18.71
_cell_length_b       7.807
_cell_length_c       10.452
_cell_angle_alpha    90
_cell_angle_beta     90
_cell_angle_gamma    90

_symmetry_space_group_name_H-M    "P 1"
_symmetry_int_tables_number       1

loop_
  _symmetry_equiv_pos_as_xyz
  'x, y, z'

loop_
  _atom_site_label
  _atom_site_occupancy
  _atom_site_fract_x
  _atom_site_fract_y
  _atom_site_fract_z
  _atom_site_thermal_displace_type
  _atom_site_B_iso_or_equiv
  _atom_site_type_symbol
  Cu1      1.0000 0.23575  0.06605  0.28239  Biso   1.000  Cu
  Cu2      1.0000 0.76425  0.93395  0.28239  Biso   1.000  Cu
  Cu3      1.0000 0.26425  0.56605  0.71761  Biso   1.000  Cu
  Cu4      1.0000 0.73575  0.43395  0.71761  Biso   1.000  Cu
  N1       1.0000 0.15005  0.22640  0.27280  Biso   1.000  N
  N2       1.0000 0.84995  0.77360  0.27280  Biso   1.000  N
  N3       1.0000 0.34995  0.72640  0.72720  Biso   1.000  N
  N4       1.0000 0.65005  0.27360  0.72720  Biso   1.000  N
  N5       1.0000 0.19589  0.90450  0.45180  Biso   1.000  N
  N6       1.0000 0.80411  0.09550  0.45180  Biso   1.000  N
  N7       1.0000 0.30411  0.40450  0.54820  Biso   1.000  N
  N8       1.0000 0.69589  0.59550  0.54820  Biso   1.000  N
  N9       1.0000 0.32736  0.93460  0.23160  Biso   1.000  N
  N10      1.0000 0.67264  0.06540  0.23160  Biso   1.000  N
  N11      1.0000 0.17264  0.43460  0.76840  Biso   1.000  N
  N12      1.0000 0.82736  0.56540  0.76840  Biso   1.000  N
  N13      1.0000 0.28838  0.22680  0.39460  Biso   1.000  N
  N14      1.0000 0.71162  0.77320  0.39460  Biso   1.000  N
  N15      1.0000 0.21162  0.72680  0.60540  Biso   1.000  N
  N16      1.0000 0.78838  0.27320  0.60540  Biso   1.000  N
  O1       1.0000 0.19247  0.91650  0.15350  Biso   1.000  O
  O2       1.0000 0.80753  0.08350  0.15350  Biso   1.000  O
  O3       1.0000 0.30753  0.41650  0.84650  Biso   1.000  O
  O4       1.0000 0.69247  0.58350  0.84650  Biso   1.000  O
  C1       1.0000 0.15690  0.39060  0.24010  Biso   1.000  C
  C2       1.0000 0.84310  0.60940  0.24010  Biso   1.000  C
  C3       1.0000 0.34310  0.89060  0.75990  Biso   1.000  C
  C4       1.0000 0.65690  0.10940  0.75990  Biso   1.000  C
  C5       1.0000 0.08500  0.16920  0.30320  Biso   1.000  C
  C6       1.0000 0.91500  0.83080  0.30320  Biso   1.000  C
  C7       1.0000 0.41500  0.66920  0.69680  Biso   1.000  C
  C8       1.0000 0.58500  0.33080  0.69680  Biso   1.000  C
  C9       1.0000 0.33730  0.76040  0.28960  Biso   1.000  C
  C10      1.0000 0.66270  0.23960  0.28960  Biso   1.000  C
  C11      1.0000 0.16270  0.26040  0.71040  Biso   1.000  C
  C12      1.0000 0.83730  0.73960  0.71040  Biso   1.000  C
  C13      1.0000 0.31580  0.88960  0.09280  Biso   1.000  C
  C14      1.0000 0.68420  0.11040  0.09280  Biso   1.000  C
  C15      1.0000 0.18420  0.38960  0.90720  Biso   1.000  C
  C16      1.0000 0.81580  0.61040  0.90720  Biso   1.000  C
  C17      1.0000 0.39280  0.04310  0.24390  Biso   1.000  C
  C18      1.0000 0.60720  0.95690  0.24390  Biso   1.000  C
  C19      1.0000 0.10720  0.54310  0.75610  Biso   1.000  C
  C20      1.0000 0.89280  0.45690  0.75610  Biso   1.000  C
  N17      1.0000 0.25673  0.34860  0.46650  Biso   1.000  N
  N18      1.0000 0.74327  0.65140  0.46650  Biso   1.000  N
  N19      1.0000 0.24327  0.84860  0.53350  Biso   1.000  N
  N20      1.0000 0.75673  0.15140  0.53350  Biso   1.000  N
  C21      1.0000 0.35590  0.21540  0.43630  Biso   1.000  C
  C22      1.0000 0.64410  0.78460  0.43630  Biso   1.000  C
  C23      1.0000 0.14410  0.71540  0.56370  Biso   1.000  C
  C24      1.0000 0.85590  0.28460  0.56370  Biso   1.000  C
  C25      1.0000 0.23580  0.85630  0.06970  Biso   1.000  C
  C26      1.0000 0.76420  0.14370  0.06970  Biso   1.000  C
  C27      1.0000 0.26420  0.35630  0.93030  Biso   1.000  C
  C28      1.0000 0.73580  0.64370  0.93030  Biso   1.000  C
  C29      1.0000 0.09970  0.50280  0.23550  Biso   1.000  C
  C30      1.0000 0.90030  0.49720  0.23550  Biso   1.000  C
  C31      1.0000 0.40030  0.00280  0.76450  Biso   1.000  C
  C32      1.0000 0.59970  0.99720  0.76450  Biso   1.000  C
  H1       1.0000 0.20220  0.43160  0.21950  Biso   1.000  H
  H2       1.0000 0.79780  0.56840  0.21950  Biso   1.000  H
  H3       1.0000 0.29780  0.93160  0.78050  Biso   1.000  H
  H4       1.0000 0.70220  0.06840  0.78050  Biso   1.000  H
  C33      1.0000 0.02500  0.27170  0.30240  Biso   1.000  C
  C34      1.0000 0.97500  0.72830  0.30240  Biso   1.000  C
  C35      1.0000 0.47500  0.77170  0.69760  Biso   1.000  C
  C36      1.0000 0.52500  0.22830  0.69760  Biso   1.000  C
  H5       1.0000 0.07990  0.05470  0.32590  Biso   1.000  H
  H6       1.0000 0.92010  0.94530  0.32590  Biso   1.000  H
  H7       1.0000 0.42010  0.55470  0.67410  Biso   1.000  H
  H8       1.0000 0.57990  0.44530  0.67410  Biso   1.000  H
  C37      1.0000 0.38230  0.65750  0.19480  Biso   1.000  C
  C38      1.0000 0.61770  0.34250  0.19480  Biso   1.000  C
  C39      1.0000 0.11770  0.15750  0.80520  Biso   1.000  C
  C40      1.0000 0.88230  0.84250  0.80520  Biso   1.000  C
  H9       1.0000 0.29140  0.70550  0.30310  Biso   1.000  H
  H10      1.0000 0.70860  0.29450  0.30310  Biso   1.000  H
  H11      1.0000 0.20860  0.20550  0.69690  Biso   1.000  H
  H12      1.0000 0.79140  0.79450  0.69690  Biso   1.000  H
  H13      1.0000 0.36170  0.76920  0.37120  Biso   1.000  H
  H14      1.0000 0.63830  0.23080  0.37120  Biso   1.000  H
  H15      1.0000 0.13830  0.26920  0.62880  Biso   1.000  H
  H16      1.0000 0.86170  0.73080  0.62880  Biso   1.000  H
  H17      1.0000 0.33100  0.98620  0.03960  Biso   1.000  H
  H18      1.0000 0.66900  0.01380  0.03960  Biso   1.000  H
  H19      1.0000 0.16900  0.48620  0.96040  Biso   1.000  H
  H20      1.0000 0.83100  0.51380  0.96040  Biso   1.000  H
  C41      1.0000 0.36420  0.73520  0.06470  Biso   1.000  C
  C42      1.0000 0.63580  0.26480  0.06470  Biso   1.000  C
  C43      1.0000 0.13580  0.23520  0.93530  Biso   1.000  C
  C44      1.0000 0.86420  0.76480  0.93530  Biso   1.000  C
  H21      1.0000 0.38670  0.14550  0.19240  Biso   1.000  H
  H22      1.0000 0.61330  0.85450  0.19240  Biso   1.000  H
  H23      1.0000 0.11330  0.64550  0.80760  Biso   1.000  H
  H24      1.0000 0.88670  0.35450  0.80760  Biso   1.000  H
  H25      1.0000 0.43330  0.98050  0.20980  Biso   1.000  H
  H26      1.0000 0.56670  0.01950  0.20980  Biso   1.000  H
  H27      1.0000 0.06670  0.48050  0.79020  Biso   1.000  H
  H28      1.0000 0.93330  0.51950  0.79020  Biso   1.000  H
  C45      1.0000 0.40930  0.09570  0.38080  Biso   1.000  C
  C46      1.0000 0.59070  0.90430  0.38080  Biso   1.000  C
  C47      1.0000 0.09070  0.59570  0.61920  Biso   1.000  C
  C48      1.0000 0.90930  0.40430  0.61920  Biso   1.000  C
  N21      1.0000 0.36752  0.32310  0.53180  Biso   1.000  N
  N22      1.0000 0.63248  0.67690  0.53180  Biso   1.000  N
  N23      1.0000 0.13248  0.82310  0.46820  Biso   1.000  N
  N24      1.0000 0.86752  0.17690  0.46820  Biso   1.000  N
  O5       1.0000 0.21688  0.78170  0.97140  Biso   1.000  O
  O6       1.0000 0.78312  0.21830  0.97140  Biso   1.000  O
  O7       1.0000 0.28312  0.28170  0.02860  Biso   1.000  O
  O8       1.0000 0.71688  0.71830  0.02860  Biso   1.000  O
  C49      1.0000 0.03155  0.44310  0.26750  Biso   1.000  C
  C50      1.0000 0.96845  0.55690  0.26750  Biso   1.000  C
  C51      1.0000 0.46845  0.94310  0.73250  Biso   1.000  C
  C52      1.0000 0.53155  0.05690  0.73250  Biso   1.000  C
  H29      1.0000 0.10650  0.61630  0.21140  Biso   1.000  H
  H30      1.0000 0.89350  0.38370  0.21140  Biso   1.000  H
  H31      1.0000 0.39350  0.11630  0.78860  Biso   1.000  H
  H32      1.0000 0.60650  0.88370  0.78860  Biso   1.000  H
  H33      1.0000 0.98070  0.22690  0.32500  Biso   1.000  H
  H34      1.0000 0.01930  0.77310  0.32500  Biso   1.000  H
  H35      1.0000 0.51930  0.72690  0.67500  Biso   1.000  H
  H36      1.0000 0.48070  0.27310  0.67500  Biso   1.000  H
  O9       1.0000 0.45820  0.67640  0.22320  Biso   1.000  O
  O10      1.0000 0.54180  0.32360  0.22320  Biso   1.000  O
  O11      1.0000 0.04180  0.17640  0.77680  Biso   1.000  O
  O12      1.0000 0.95820  0.82360  0.77680  Biso   1.000  O
  H37      1.0000 0.36860  0.53640  0.19710  Biso   1.000  H
  H38      1.0000 0.63140  0.46360  0.19710  Biso   1.000  H
  H39      1.0000 0.13140  0.03640  0.80290  Biso   1.000  H
  H40      1.0000 0.86860  0.96360  0.80290  Biso   1.000  H
  H41      1.0000 0.33950  0.65240  0.01150  Biso   1.000  H
  H42      1.0000 0.66050  0.34760  0.01150  Biso   1.000  H
  H43      1.0000 0.16050  0.15240  0.98850  Biso   1.000  H
  H44      1.0000 0.83950  0.84760  0.98850  Biso   1.000  H
  H45      1.0000 0.40730  0.77150  0.02100  Biso   1.000  H
  H46      1.0000 0.59270  0.22850  0.02100  Biso   1.000  H
  H47      1.0000 0.09270  0.27150  0.97900  Biso   1.000  H
  H48      1.0000 0.90730  0.72850  0.97900  Biso   1.000  H
  H49      1.0000 0.41150  0.99370  0.43360  Biso   1.000  H
  H50      1.0000 0.58850  0.00630  0.43360  Biso   1.000  H
  H51      1.0000 0.08850  0.49370  0.56640  Biso   1.000  H
  H52      1.0000 0.91150  0.50630  0.56640  Biso   1.000  H
  H53      1.0000 0.45600  0.14960  0.38310  Biso   1.000  H
  H54      1.0000 0.54400  0.85040  0.38310  Biso   1.000  H
  H55      1.0000 0.04400  0.64960  0.61690  Biso   1.000  H
  H56      1.0000 0.95600  0.35040  0.61690  Biso   1.000  H
  H57      1.0000 0.48130  0.66910  0.15680  Biso   1.000  H
  H58      1.0000 0.51870  0.33090  0.15680  Biso   1.000  H
  H59      1.0000 0.01870  0.16910  0.84320  Biso   1.000  H
  H60      1.0000 0.98130  0.83090  0.84320  Biso   1.000  H
  O13      1.0000 0.04730  0.85480  0.01460  Biso   1.000  O
  O14      1.0000 0.95270  0.14520  0.01460  Biso   1.000  O
  O15      1.0000 0.45270  0.35480  0.98540  Biso   1.000  O
  O16      1.0000 0.54730  0.64520  0.98540  Biso   1.000  O
  H61      1.0000 0.03100  0.75500  0.02400  Biso   1.000  H
  H62      1.0000 0.96900  0.24500  0.02400  Biso   1.000  H
  H63      1.0000 0.46900  0.25500  0.97600  Biso   1.000  H
  H64      1.0000 0.53100  0.74500  0.97600  Biso   1.000  H
  H65      1.0000 0.06700  0.88000  0.08500  Biso   1.000  H
  H66      1.0000 0.93300  0.12000  0.08500  Biso   1.000  H
  H67      1.0000 0.43300  0.38000  0.91500  Biso   1.000  H
  H68      1.0000 0.56700  0.62000  0.91500  Biso   1.000  H
  O17      1.0000 0.00000  0.00000  0.57190  Biso   1.000  O
  O18      1.0000 0.50000  0.50000  0.42810  Biso   1.000  O
  H69      1.0000 0.00000  0.00000  0.64800  Biso   1.000  H
  H70      1.0000 0.50000  0.50000  0.35200  Biso   1.000  H
  H71      1.0000 0.00000  0.00000  0.49600  Biso   1.000  H
  H72      1.0000 0.50000  0.50000  0.50400  Biso   1.000  H
