data_image0
_cell_length_a       18.7672
_cell_length_b       7.6504
_cell_length_c       10.1885
_cell_angle_alpha    90
_cell_angle_beta     90
_cell_angle_gamma    90

_symmetry_space_group_name_H-M    "P 1"
_symmetry_int_tables_number       1

loop_
  _symmetry_equiv_pos_as_xyz
  'x, y, z'

loop_
  _atom_site_label
  _atom_site_occupancy
  _atom_site_fract_x
  _atom_site_fract_y
  _atom_site_fract_z
  _atom_site_thermal_displace_type
  _atom_site_B_iso_or_equiv
  _atom_site_type_symbol
  Cu1      1.0000 0.23824  0.06849  0.27300  Biso   1.000  Cu
  Cu2      1.0000 0.76176  0.93151  0.27300  Biso   1.000  Cu
  Cu3      1.0000 0.73824  0.43151  0.72700  Biso   1.000  Cu
  Cu4      1.0000 0.26176  0.56849  0.72700  Biso   1.000  Cu
  N1       1.0000 0.15190  0.22800  0.26150  Biso   1.000  N
  N2       1.0000 0.84810  0.77200  0.26150  Biso   1.000  N
  N3       1.0000 0.65190  0.27200  0.73850  Biso   1.000  N
  N4       1.0000 0.34810  0.72800  0.73850  Biso   1.000  N
  N5       1.0000 0.19250  0.92150  0.46260  Biso   1.000  N
  N6       1.0000 0.80750  0.07850  0.46260  Biso   1.000  N
  N7       1.0000 0.69250  0.57850  0.53740  Biso   1.000  N
  N8       1.0000 0.30750  0.42150  0.53740  Biso   1.000  N
  N9       1.0000 0.32730  0.92150  0.23580  Biso   1.000  N
  N10      1.0000 0.67270  0.07850  0.23580  Biso   1.000  N
  N11      1.0000 0.82730  0.57850  0.76420  Biso   1.000  N
  N12      1.0000 0.17270  0.42150  0.76420  Biso   1.000  N
  N13      1.0000 0.29110  0.23420  0.38470  Biso   1.000  N
  N14      1.0000 0.70890  0.76580  0.38470  Biso   1.000  N
  N15      1.0000 0.79110  0.26580  0.61530  Biso   1.000  N
  N16      1.0000 0.20890  0.73420  0.61530  Biso   1.000  N
  O1       1.0000 0.19496  0.90140  0.15290  Biso   1.000  O
  O2       1.0000 0.80504  0.09860  0.15290  Biso   1.000  O
  O3       1.0000 0.69496  0.59860  0.84710  Biso   1.000  O
  O4       1.0000 0.30504  0.40140  0.84710  Biso   1.000  O
  C1       1.0000 0.15720  0.39700  0.22960  Biso   1.000  C
  C2       1.0000 0.84280  0.60300  0.22960  Biso   1.000  C
  C3       1.0000 0.65720  0.10300  0.77040  Biso   1.000  C
  C4       1.0000 0.34280  0.89700  0.77040  Biso   1.000  C
  C5       1.0000 0.08750  0.16620  0.28930  Biso   1.000  C
  C6       1.0000 0.91250  0.83380  0.28930  Biso   1.000  C
  C7       1.0000 0.58750  0.33380  0.71070  Biso   1.000  C
  C8       1.0000 0.41250  0.66620  0.71070  Biso   1.000  C
  C9       1.0000 0.33110  0.75300  0.30750  Biso   1.000  C
  C10      1.0000 0.66890  0.24700  0.30750  Biso   1.000  C
  C11      1.0000 0.83110  0.74700  0.69250  Biso   1.000  C
  C12      1.0000 0.16890  0.25300  0.69250  Biso   1.000  C
  C13      1.0000 0.39510  0.02430  0.24350  Biso   1.000  C
  C14      1.0000 0.60490  0.97570  0.24350  Biso   1.000  C
  C15      1.0000 0.89510  0.47570  0.75650  Biso   1.000  C
  C16      1.0000 0.10490  0.52430  0.75650  Biso   1.000  C
  C17      1.0000 0.31760  0.85790  0.09790  Biso   1.000  C
  C18      1.0000 0.68240  0.14210  0.09790  Biso   1.000  C
  C19      1.0000 0.81760  0.64210  0.90210  Biso   1.000  C
  C20      1.0000 0.18240  0.35790  0.90210  Biso   1.000  C
  N17      1.0000 0.26120  0.36420  0.45410  Biso   1.000  N
  N18      1.0000 0.73880  0.63580  0.45410  Biso   1.000  N
  N19      1.0000 0.76120  0.13580  0.54590  Biso   1.000  N
  N20      1.0000 0.23880  0.86420  0.54590  Biso   1.000  N
  C21      1.0000 0.35770  0.21940  0.43070  Biso   1.000  C
  C22      1.0000 0.64230  0.78060  0.43070  Biso   1.000  C
  C23      1.0000 0.85770  0.28060  0.56930  Biso   1.000  C
  C24      1.0000 0.14230  0.71940  0.56930  Biso   1.000  C
  C25      1.0000 0.23750  0.82850  0.07300  Biso   1.000  C
  C26      1.0000 0.76250  0.17150  0.07300  Biso   1.000  C
  C27      1.0000 0.73750  0.67150  0.92700  Biso   1.000  C
  C28      1.0000 0.26250  0.32850  0.92700  Biso   1.000  C
  C29      1.0000 0.09930  0.50700  0.22480  Biso   1.000  C
  C30      1.0000 0.90070  0.49300  0.22480  Biso   1.000  C
  C31      1.0000 0.59930  0.99300  0.77520  Biso   1.000  C
  C32      1.0000 0.40070  0.00700  0.77520  Biso   1.000  C
  H1       1.0000 0.20190  0.44220  0.20970  Biso   1.000  H
  H2       1.0000 0.79810  0.55780  0.20970  Biso   1.000  H
  H3       1.0000 0.70190  0.05780  0.79030  Biso   1.000  H
  H4       1.0000 0.29810  0.94220  0.79030  Biso   1.000  H
  C33      1.0000 0.02670  0.26690  0.28820  Biso   1.000  C
  C34      1.0000 0.97330  0.73310  0.28820  Biso   1.000  C
  C35      1.0000 0.52670  0.23310  0.71180  Biso   1.000  C
  C36      1.0000 0.47330  0.76690  0.71180  Biso   1.000  C
  H5       1.0000 0.08320  0.04850  0.31070  Biso   1.000  H
  H6       1.0000 0.91680  0.95150  0.31070  Biso   1.000  H
  H7       1.0000 0.58320  0.45150  0.68930  Biso   1.000  H
  H8       1.0000 0.41680  0.54850  0.68930  Biso   1.000  H
  C37      1.0000 0.37360  0.62670  0.22310  Biso   1.000  C
  C38      1.0000 0.62640  0.37330  0.22310  Biso   1.000  C
  C39      1.0000 0.87360  0.87330  0.77690  Biso   1.000  C
  C40      1.0000 0.12640  0.12670  0.77690  Biso   1.000  C
  H9       1.0000 0.35430  0.76920  0.39170  Biso   1.000  H
  H10      1.0000 0.64570  0.23080  0.39170  Biso   1.000  H
  H11      1.0000 0.85430  0.73080  0.60830  Biso   1.000  H
  H12      1.0000 0.14570  0.26920  0.60830  Biso   1.000  H
  H13      1.0000 0.28360  0.70750  0.32280  Biso   1.000  H
  H14      1.0000 0.71640  0.29250  0.32280  Biso   1.000  H
  H15      1.0000 0.78360  0.79250  0.67720  Biso   1.000  H
  H16      1.0000 0.21640  0.20750  0.67720  Biso   1.000  H
  C41      1.0000 0.41090  0.09240  0.38110  Biso   1.000  C
  C42      1.0000 0.58910  0.90760  0.38110  Biso   1.000  C
  C43      1.0000 0.91090  0.40760  0.61890  Biso   1.000  C
  C44      1.0000 0.08910  0.59240  0.61890  Biso   1.000  C
  H17      1.0000 0.43430  0.95090  0.21510  Biso   1.000  H
  H18      1.0000 0.56570  0.04910  0.21510  Biso   1.000  H
  H19      1.0000 0.93430  0.54910  0.78490  Biso   1.000  H
  H20      1.0000 0.06570  0.45090  0.78490  Biso   1.000  H
  H21      1.0000 0.39210  0.12260  0.18370  Biso   1.000  H
  H22      1.0000 0.60790  0.87740  0.18370  Biso   1.000  H
  H23      1.0000 0.89210  0.37740  0.81630  Biso   1.000  H
  H24      1.0000 0.10790  0.62260  0.81630  Biso   1.000  H
  H25      1.0000 0.33490  0.94780  0.03730  Biso   1.000  H
  H26      1.0000 0.66510  0.05220  0.03730  Biso   1.000  H
  H27      1.0000 0.83490  0.55220  0.96270  Biso   1.000  H
  H28      1.0000 0.16510  0.44780  0.96270  Biso   1.000  H
  C45      1.0000 0.36420  0.69600  0.08460  Biso   1.000  C
  C46      1.0000 0.63580  0.30400  0.08460  Biso   1.000  C
  C47      1.0000 0.86420  0.80400  0.91540  Biso   1.000  C
  C48      1.0000 0.13580  0.19600  0.91540  Biso   1.000  C
  N21      1.0000 0.36960  0.33340  0.52510  Biso   1.000  N
  N22      1.0000 0.63040  0.66660  0.52510  Biso   1.000  N
  N23      1.0000 0.86960  0.16660  0.47490  Biso   1.000  N
  N24      1.0000 0.13040  0.83340  0.47490  Biso   1.000  N
  O5       1.0000 0.21980  0.74360  0.97500  Biso   1.000  O
  O6       1.0000 0.78020  0.25640  0.97500  Biso   1.000  O
  O7       1.0000 0.71980  0.75640  0.02500  Biso   1.000  O
  O8       1.0000 0.28020  0.24360  0.02500  Biso   1.000  O
  C49      1.0000 0.03200  0.44320  0.25510  Biso   1.000  C
  C50      1.0000 0.96800  0.55680  0.25510  Biso   1.000  C
  C51      1.0000 0.53200  0.05680  0.74490  Biso   1.000  C
  C52      1.0000 0.46800  0.94320  0.74490  Biso   1.000  C
  H29      1.0000 0.10520  0.62360  0.20140  Biso   1.000  H
  H30      1.0000 0.89480  0.37640  0.20140  Biso   1.000  H
  H31      1.0000 0.60520  0.87640  0.79860  Biso   1.000  H
  H32      1.0000 0.39480  0.12360  0.79860  Biso   1.000  H
  H33      1.0000 0.98280  0.21800  0.30920  Biso   1.000  H
  H34      1.0000 0.01720  0.78200  0.30920  Biso   1.000  H
  H35      1.0000 0.48280  0.28200  0.69080  Biso   1.000  H
  H36      1.0000 0.51720  0.71800  0.69080  Biso   1.000  H
  O9       1.0000 0.44630  0.62680  0.26260  Biso   1.000  O
  O10      1.0000 0.55370  0.37320  0.26260  Biso   1.000  O
  O11      1.0000 0.94630  0.87320  0.73740  Biso   1.000  O
  O12      1.0000 0.05370  0.12680  0.73740  Biso   1.000  O
  H37      1.0000 0.35380  0.50860  0.23010  Biso   1.000  H
  H38      1.0000 0.64620  0.49140  0.23010  Biso   1.000  H
  H39      1.0000 0.85380  0.99140  0.76990  Biso   1.000  H
  H40      1.0000 0.14620  0.00860  0.76990  Biso   1.000  H
  H41      1.0000 0.41290  0.99400  0.44110  Biso   1.000  H
  H42      1.0000 0.58710  0.00600  0.44110  Biso   1.000  H
  H43      1.0000 0.91290  0.50600  0.55890  Biso   1.000  H
  H44      1.0000 0.08710  0.49400  0.55890  Biso   1.000  H
  H45      1.0000 0.45740  0.14760  0.38090  Biso   1.000  H
  H46      1.0000 0.54260  0.85240  0.38090  Biso   1.000  H
  H47      1.0000 0.95740  0.35240  0.61910  Biso   1.000  H
  H48      1.0000 0.04260  0.64760  0.61910  Biso   1.000  H
  H49      1.0000 0.34120  0.60940  0.02940  Biso   1.000  H
  H50      1.0000 0.65880  0.39060  0.02940  Biso   1.000  H
  H51      1.0000 0.84120  0.89060  0.97060  Biso   1.000  H
  H52      1.0000 0.15880  0.10940  0.97060  Biso   1.000  H
  H53      1.0000 0.40990  0.72590  0.04630  Biso   1.000  H
  H54      1.0000 0.59010  0.27410  0.04630  Biso   1.000  H
  H55      1.0000 0.90990  0.77410  0.95370  Biso   1.000  H
  H56      1.0000 0.09010  0.22590  0.95370  Biso   1.000  H
  H57      1.0000 0.47190  0.61960  0.19760  Biso   1.000  H
  H58      1.0000 0.52810  0.38040  0.19760  Biso   1.000  H
  H59      1.0000 0.97190  0.88040  0.80240  Biso   1.000  H
  H60      1.0000 0.02810  0.11960  0.80240  Biso   1.000  H
