data_image0
_cell_length_a       25.379
_cell_length_b       25.146
_cell_length_c       18.845
_cell_angle_alpha    90
_cell_angle_beta     131.52
_cell_angle_gamma    90

_symmetry_space_group_name_H-M    "P 1"
_symmetry_int_tables_number       1

loop_
  _symmetry_equiv_pos_as_xyz
  'x, y, z'

loop_
  _atom_site_label
  _atom_site_occupancy
  _atom_site_fract_x
  _atom_site_fract_y
  _atom_site_fract_z
  _atom_site_thermal_displace_type
  _atom_site_B_iso_or_equiv
  _atom_site_type_symbol
  Cu1      1.0000 0.38300  0.01590  0.03400  Biso   1.000  Cu
  Cu2      1.0000 0.88300  0.51590  0.03400  Biso   1.000  Cu
  Cu3      1.0000 0.38300  0.98410  0.53400  Biso   1.000  Cu
  Cu4      1.0000 0.88300  0.48410  0.53400  Biso   1.000  Cu
  Cu5      1.0000 0.88790  0.96770  0.56770  Biso   1.000  Cu
  Cu6      1.0000 0.38790  0.46770  0.56770  Biso   1.000  Cu
  Cu7      1.0000 0.88790  0.03230  0.06770  Biso   1.000  Cu
  Cu8      1.0000 0.38790  0.53230  0.06770  Biso   1.000  Cu
  Cu9      1.0000 0.19050  0.74490  0.58640  Biso   1.000  Cu
  Cu10     1.0000 0.69050  0.24490  0.58640  Biso   1.000  Cu
  Cu11     1.0000 0.19050  0.25510  0.08640  Biso   1.000  Cu
  Cu12     1.0000 0.69050  0.75510  0.08640  Biso   1.000  Cu
  Mn1      1.0000 0.64260  0.08230  0.36210  Biso   1.000  Mn
  Mn2      1.0000 0.14260  0.58230  0.36210  Biso   1.000  Mn
  Mn3      1.0000 0.64260  0.91770  0.86210  Biso   1.000  Mn
  Mn4      1.0000 0.14260  0.41770  0.86210  Biso   1.000  Mn
  Mn5      1.0000 0.15410  0.89830  0.74950  Biso   1.000  Mn
  Mn6      1.0000 0.65410  0.39830  0.74950  Biso   1.000  Mn
  Mn7      1.0000 0.15410  0.10170  0.24950  Biso   1.000  Mn
  Mn8      1.0000 0.65410  0.60170  0.24950  Biso   1.000  Mn
  N1       1.0000 0.34480  0.94770  0.02100  Biso   1.000  N
  N2       1.0000 0.84480  0.44770  0.02100  Biso   1.000  N
  N3       1.0000 0.34480  0.05230  0.52100  Biso   1.000  N
  N4       1.0000 0.84480  0.55230  0.52100  Biso   1.000  N
  N5       1.0000 0.45700  0.98600  0.16100  Biso   1.000  N
  N6       1.0000 0.95700  0.48600  0.16100  Biso   1.000  N
  N7       1.0000 0.45700  0.01400  0.66100  Biso   1.000  N
  N8       1.0000 0.95700  0.51400  0.66100  Biso   1.000  N
  O1       1.0000 0.29240  0.02590  0.89400  Biso   1.000  O
  O2       1.0000 0.79240  0.52590  0.89400  Biso   1.000  O
  O3       1.0000 0.29240  0.97410  0.39400  Biso   1.000  O
  O4       1.0000 0.79240  0.47410  0.39400  Biso   1.000  O
  O5       1.0000 0.44690  0.07880  0.08500  Biso   1.000  O
  O6       1.0000 0.94690  0.57880  0.08500  Biso   1.000  O
  O7       1.0000 0.44690  0.92120  0.58500  Biso   1.000  O
  O8       1.0000 0.94690  0.42120  0.58500  Biso   1.000  O
  O9       1.0000 0.55330  0.10660  0.21000  Biso   1.000  O
  O10      1.0000 0.05330  0.60660  0.21000  Biso   1.000  O
  O11      1.0000 0.55330  0.89340  0.71000  Biso   1.000  O
  O12      1.0000 0.05330  0.39340  0.71000  Biso   1.000  O
  O13      1.0000 0.57230  0.01230  0.29400  Biso   1.000  O
  O14      1.0000 0.07230  0.51230  0.29400  Biso   1.000  O
  O15      1.0000 0.57230  0.98770  0.79400  Biso   1.000  O
  O16      1.0000 0.07230  0.48770  0.79400  Biso   1.000  O
  O17      1.0000 0.19560  0.97990  0.78000  Biso   1.000  O
  O18      1.0000 0.69560  0.47990  0.78000  Biso   1.000  O
  O19      1.0000 0.19560  0.02010  0.28000  Biso   1.000  O
  O20      1.0000 0.69560  0.52010  0.28000  Biso   1.000  O
  O21      1.0000 0.24150  0.89620  0.90100  Biso   1.000  O
  O22      1.0000 0.74150  0.39620  0.90100  Biso   1.000  O
  O23      1.0000 0.24150  0.10380  0.40100  Biso   1.000  O
  O24      1.0000 0.74150  0.60380  0.40100  Biso   1.000  O
  C1       1.0000 0.25600  0.98600  0.86700  Biso   1.000  C
  C2       1.0000 0.75600  0.48600  0.86700  Biso   1.000  C
  C3       1.0000 0.25600  0.01400  0.36700  Biso   1.000  C
  C4       1.0000 0.75600  0.51400  0.36700  Biso   1.000  C
  C5       1.0000 0.28600  0.93600  0.93900  Biso   1.000  C
  C6       1.0000 0.78600  0.43600  0.93900  Biso   1.000  C
  C7       1.0000 0.28600  0.06400  0.43900  Biso   1.000  C
  C8       1.0000 0.78600  0.56400  0.43900  Biso   1.000  C
  C9       1.0000 0.50600  0.01800  0.20300  Biso   1.000  C
  C10      1.0000 0.00600  0.51800  0.20300  Biso   1.000  C
  C11      1.0000 0.50600  0.98200  0.70300  Biso   1.000  C
  C12      1.0000 0.00600  0.48200  0.70300  Biso   1.000  C
  C13      1.0000 0.50800  0.07000  0.17000  Biso   1.000  C
  C14      1.0000 0.00800  0.57000  0.17000  Biso   1.000  C
  C15      1.0000 0.50800  0.93000  0.67000  Biso   1.000  C
  C16      1.0000 0.00800  0.43000  0.67000  Biso   1.000  C
  C17      1.0000 0.38000  0.91770  0.09800  Biso   1.000  C
  C18      1.0000 0.88000  0.41770  0.09800  Biso   1.000  C
  C19      1.0000 0.38000  0.08230  0.59800  Biso   1.000  C
  C20      1.0000 0.88000  0.58230  0.59800  Biso   1.000  C
  C21      1.0000 0.35700  0.87200  0.10400  Biso   1.000  C
  C22      1.0000 0.85700  0.37200  0.10400  Biso   1.000  C
  C23      1.0000 0.35700  0.12800  0.60400  Biso   1.000  C
  C24      1.0000 0.85700  0.62800  0.60400  Biso   1.000  C
  C25      1.0000 0.39900  0.84300  0.18600  Biso   1.000  C
  C26      1.0000 0.89900  0.34300  0.18600  Biso   1.000  C
  C27      1.0000 0.39900  0.15700  0.68600  Biso   1.000  C
  C28      1.0000 0.89900  0.65700  0.68600  Biso   1.000  C
  C29      1.0000 0.47200  0.86200  0.27600  Biso   1.000  C
  C30      1.0000 0.97200  0.36200  0.27600  Biso   1.000  C
  C31      1.0000 0.47200  0.13800  0.77600  Biso   1.000  C
  C32      1.0000 0.97200  0.63800  0.77600  Biso   1.000  C
  C33      1.0000 0.49600  0.91100  0.27300  Biso   1.000  C
  C34      1.0000 0.99600  0.41100  0.27300  Biso   1.000  C
  C35      1.0000 0.49600  0.08900  0.77300  Biso   1.000  C
  C36      1.0000 0.99600  0.58900  0.77300  Biso   1.000  C
  C37      1.0000 0.45000  0.93800  0.18100  Biso   1.000  C
  C38      1.0000 0.95000  0.43800  0.18100  Biso   1.000  C
  C39      1.0000 0.45000  0.06200  0.68100  Biso   1.000  C
  C40      1.0000 0.95000  0.56200  0.68100  Biso   1.000  C
  N9       1.0000 0.82830  0.00930  0.45200  Biso   1.000  N
  N10      1.0000 0.32830  0.50930  0.45200  Biso   1.000  N
  N11      1.0000 0.82830  0.99070  0.95200  Biso   1.000  N
  N12      1.0000 0.32830  0.49070  0.95200  Biso   1.000  N
  N13      1.0000 0.94760  0.95400  0.54000  Biso   1.000  N
  N14      1.0000 0.44760  0.45400  0.54000  Biso   1.000  N
  N15      1.0000 0.94760  0.04600  0.04000  Biso   1.000  N
  N16      1.0000 0.44760  0.54600  0.04000  Biso   1.000  N
  O25      1.0000 0.81880  0.98900  0.57800  Biso   1.000  O
  O26      1.0000 0.31880  0.48900  0.57800  Biso   1.000  O
  O27      1.0000 0.81880  0.01100  0.07800  Biso   1.000  O
  O28      1.0000 0.31880  0.51100  0.07800  Biso   1.000  O
  O29      1.0000 0.96460  0.92810  0.68550  Biso   1.000  O
  O30      1.0000 0.46460  0.42810  0.68550  Biso   1.000  O
  O31      1.0000 0.96460  0.07190  0.18550  Biso   1.000  O
  O32      1.0000 0.46460  0.57190  0.18550  Biso   1.000  O
  O33      1.0000 0.72100  0.03810  0.49900  Biso   1.000  O
  O34      1.0000 0.22100  0.53810  0.49900  Biso   1.000  O
  O35      1.0000 0.72100  0.96190  0.99900  Biso   1.000  O
  O36      1.0000 0.22100  0.46190  0.99900  Biso   1.000  O
  O37      1.0000 0.72480  0.05450  0.36020  Biso   1.000  O
  O38      1.0000 0.22480  0.55450  0.36020  Biso   1.000  O
  O39      1.0000 0.72480  0.94550  0.86020  Biso   1.000  O
  O40      1.0000 0.22480  0.44550  0.86020  Biso   1.000  O
  O41      1.0000 0.07710  0.90250  0.76640  Biso   1.000  O
  O42      1.0000 0.57710  0.40250  0.76640  Biso   1.000  O
  O43      1.0000 0.07710  0.09750  0.26640  Biso   1.000  O
  O44      1.0000 0.57710  0.59750  0.26640  Biso   1.000  O
  O45      1.0000 0.05760  0.92870  0.61000  Biso   1.000  O
  O46      1.0000 0.55760  0.42870  0.61000  Biso   1.000  O
  O47      1.0000 0.05760  0.07130  0.11000  Biso   1.000  O
  O48      1.0000 0.55760  0.57130  0.11000  Biso   1.000  O
  C41      1.0000 0.77100  0.01900  0.50800  Biso   1.000  C
  C42      1.0000 0.27100  0.51900  0.50800  Biso   1.000  C
  C43      1.0000 0.77100  0.98100  0.00800  Biso   1.000  C
  C44      1.0000 0.27100  0.48100  0.00800  Biso   1.000  C
  C45      1.0000 0.77400  0.02900  0.43200  Biso   1.000  C
  C46      1.0000 0.27400  0.52900  0.43200  Biso   1.000  C
  C47      1.0000 0.77400  0.97100  0.93200  Biso   1.000  C
  C48      1.0000 0.27400  0.47100  0.93200  Biso   1.000  C
  C49      1.0000 0.00530  0.93100  0.60700  Biso   1.000  C
  C50      1.0000 0.50530  0.43100  0.60700  Biso   1.000  C
  C51      1.0000 0.00530  0.06900  0.10700  Biso   1.000  C
  C52      1.0000 0.50530  0.56900  0.10700  Biso   1.000  C
  C53      1.0000 0.01800  0.92000  0.69100  Biso   1.000  C
  C54      1.0000 0.51800  0.42000  0.69100  Biso   1.000  C
  C55      1.0000 0.01800  0.08000  0.19100  Biso   1.000  C
  C56      1.0000 0.51800  0.58000  0.19100  Biso   1.000  C
  C57      1.0000 0.84900  0.01100  0.39700  Biso   1.000  C
  C58      1.0000 0.34900  0.51100  0.39700  Biso   1.000  C
  C59      1.0000 0.84900  0.98900  0.89700  Biso   1.000  C
  C60      1.0000 0.34900  0.48900  0.89700  Biso   1.000  C
  C61      1.0000 0.82300  0.03400  0.31800  Biso   1.000  C
  C62      1.0000 0.32300  0.53400  0.31800  Biso   1.000  C
  C63      1.0000 0.82300  0.96600  0.81800  Biso   1.000  C
  C64      1.0000 0.32300  0.46600  0.81800  Biso   1.000  C
  C65      1.0000 0.85000  0.03000  0.28000  Biso   1.000  C
  C66      1.0000 0.35000  0.53000  0.28000  Biso   1.000  C
  C67      1.0000 0.85000  0.97000  0.78000  Biso   1.000  C
  C68      1.0000 0.35000  0.47000  0.78000  Biso   1.000  C
  C69      1.0000 0.91000  0.99900  0.31800  Biso   1.000  C
  C70      1.0000 0.41000  0.49900  0.31800  Biso   1.000  C
  C71      1.0000 0.91000  0.00100  0.81800  Biso   1.000  C
  C72      1.0000 0.41000  0.50100  0.81800  Biso   1.000  C
  C73      1.0000 0.94300  0.97000  0.40400  Biso   1.000  C
  C74      1.0000 0.44300  0.47000  0.40400  Biso   1.000  C
  C75      1.0000 0.94300  0.03000  0.90400  Biso   1.000  C
  C76      1.0000 0.44300  0.53000  0.90400  Biso   1.000  C
  C77      1.0000 0.91500  0.98200  0.44600  Biso   1.000  C
  C78      1.0000 0.41500  0.48200  0.44600  Biso   1.000  C
  C79      1.0000 0.91500  0.01800  0.94600  Biso   1.000  C
  C80      1.0000 0.41500  0.51800  0.94600  Biso   1.000  C
  N17      1.0000 0.15130  0.75140  0.64700  Biso   1.000  N
  N18      1.0000 0.65130  0.25140  0.64700  Biso   1.000  N
  N19      1.0000 0.15130  0.24860  0.14700  Biso   1.000  N
  N20      1.0000 0.65130  0.74860  0.14700  Biso   1.000  N
  N21      1.0000 0.13250  0.68110  0.52900  Biso   1.000  N
  N22      1.0000 0.63250  0.18110  0.52900  Biso   1.000  N
  N23      1.0000 0.13250  0.31890  0.02900  Biso   1.000  N
  N24      1.0000 0.63250  0.81890  0.02900  Biso   1.000  N
  O49      1.0000 0.22980  0.81400  0.64500  Biso   1.000  O
  O50      1.0000 0.72980  0.31400  0.64500  Biso   1.000  O
  O51      1.0000 0.22980  0.18600  0.14500  Biso   1.000  O
  O52      1.0000 0.72980  0.68600  0.14500  Biso   1.000  O
  O53      1.0000 0.21540  0.72200  0.51300  Biso   1.000  O
  O54      1.0000 0.71540  0.22200  0.51300  Biso   1.000  O
  O55      1.0000 0.21540  0.27800  0.01300  Biso   1.000  O
  O56      1.0000 0.71540  0.77800  0.01300  Biso   1.000  O
  O57      1.0000 0.21650  0.87880  0.71260  Biso   1.000  O
  O58      1.0000 0.71650  0.37880  0.71260  Biso   1.000  O
  O59      1.0000 0.21650  0.12120  0.21260  Biso   1.000  O
  O60      1.0000 0.71650  0.62120  0.21260  Biso   1.000  O
  O61      1.0000 0.13340  0.81440  0.71200  Biso   1.000  O
  O62      1.0000 0.63340  0.31440  0.71200  Biso   1.000  O
  O63      1.0000 0.13340  0.18560  0.21200  Biso   1.000  O
  O64      1.0000 0.63340  0.68560  0.21200  Biso   1.000  O
  O65      1.0000 0.60260  0.11490  0.42400  Biso   1.000  O
  O66      1.0000 0.10260  0.61490  0.42400  Biso   1.000  O
  O67      1.0000 0.60260  0.88510  0.92400  Biso   1.000  O
  O68      1.0000 0.10260  0.38510  0.92400  Biso   1.000  O
  O69      1.0000 0.69250  0.16030  0.41300  Biso   1.000  O
  O70      1.0000 0.19250  0.66030  0.41300  Biso   1.000  O
  O71      1.0000 0.69250  0.83970  0.91300  Biso   1.000  O
  O72      1.0000 0.19250  0.33970  0.91300  Biso   1.000  O
  C81      1.0000 0.20800  0.83540  0.68200  Biso   1.000  C
  C82      1.0000 0.70800  0.33540  0.68200  Biso   1.000  C
  C83      1.0000 0.20800  0.16460  0.18200  Biso   1.000  C
  C84      1.0000 0.70800  0.66460  0.18200  Biso   1.000  C
  C85      1.0000 0.16200  0.79600  0.68500  Biso   1.000  C
  C86      1.0000 0.66200  0.29600  0.68500  Biso   1.000  C
  C87      1.0000 0.16200  0.20400  0.18500  Biso   1.000  C
  C88      1.0000 0.66200  0.70400  0.18500  Biso   1.000  C
  C89      1.0000 0.63600  0.15500  0.47500  Biso   1.000  C
  C90      1.0000 0.13600  0.65500  0.47500  Biso   1.000  C
  C91      1.0000 0.63600  0.84500  0.97500  Biso   1.000  C
  C92      1.0000 0.13600  0.34500  0.97500  Biso   1.000  C
  C93      1.0000 0.68600  0.17800  0.46100  Biso   1.000  C
  C94      1.0000 0.18600  0.67800  0.46100  Biso   1.000  C
  C95      1.0000 0.68600  0.82200  0.96100  Biso   1.000  C
  C96      1.0000 0.18600  0.32200  0.96100  Biso   1.000  C
  C97      1.0000 0.10900  0.70800  0.62900  Biso   1.000  C
  C98      1.0000 0.60900  0.20800  0.62900  Biso   1.000  C
  C99      1.0000 0.10900  0.29200  0.12900  Biso   1.000  C
  C100     1.0000 0.60900  0.79200  0.12900  Biso   1.000  C
  C101     1.0000 0.07500  0.70200  0.66500  Biso   1.000  C
  C102     1.0000 0.57500  0.20200  0.66500  Biso   1.000  C
  C103     1.0000 0.07500  0.29800  0.16500  Biso   1.000  C
  C104     1.0000 0.57500  0.79800  0.16500  Biso   1.000  C
  C105     1.0000 0.02800  0.65530  0.63300  Biso   1.000  C
  C106     1.0000 0.52800  0.15530  0.63300  Biso   1.000  C
  C107     1.0000 0.02800  0.34470  0.13300  Biso   1.000  C
  C108     1.0000 0.52800  0.84470  0.13300  Biso   1.000  C
  C109     1.0000 0.01900  0.62000  0.58200  Biso   1.000  C
  C110     1.0000 0.51900  0.12000  0.58200  Biso   1.000  C
  C111     1.0000 0.01900  0.38000  0.08200  Biso   1.000  C
  C112     1.0000 0.51900  0.88000  0.08200  Biso   1.000  C
  C113     1.0000 0.04800  0.62500  0.53500  Biso   1.000  C
  C114     1.0000 0.54800  0.12500  0.53500  Biso   1.000  C
  C115     1.0000 0.04800  0.37500  0.03500  Biso   1.000  C
  C116     1.0000 0.54800  0.87500  0.03500  Biso   1.000  C
  C117     1.0000 0.09500  0.66900  0.55900  Biso   1.000  C
  C118     1.0000 0.59500  0.16900  0.55900  Biso   1.000  C
  C119     1.0000 0.09500  0.33100  0.05900  Biso   1.000  C
  C120     1.0000 0.59500  0.83100  0.05900  Biso   1.000  C
  N25      1.0000 0.66290  0.97420  0.16400  Biso   1.000  N
  N26      1.0000 0.16290  0.47420  0.16400  Biso   1.000  N
  N27      1.0000 0.66290  0.02580  0.66400  Biso   1.000  N
  N28      1.0000 0.16290  0.52580  0.66400  Biso   1.000  N
  N29      1.0000 0.82700  0.81600  0.31700  Biso   1.000  N
  N30      1.0000 0.32700  0.31600  0.31700  Biso   1.000  N
  N31      1.0000 0.82700  0.18400  0.81700  Biso   1.000  N
  N32      1.0000 0.32700  0.68400  0.81700  Biso   1.000  N
  N33      1.0000 0.82100  0.84070  0.42100  Biso   1.000  N
  N34      1.0000 0.32100  0.34070  0.42100  Biso   1.000  N
  N35      1.0000 0.82100  0.15930  0.92100  Biso   1.000  N
  N36      1.0000 0.32100  0.65930  0.92100  Biso   1.000  N
  O73      1.0000 0.80800  0.86960  0.46900  Biso   1.000  O
  O74      1.0000 0.30800  0.36960  0.46900  Biso   1.000  O
  O75      1.0000 0.80800  0.13040  0.96900  Biso   1.000  O
  O76      1.0000 0.30800  0.63040  0.96900  Biso   1.000  O
  O77      1.0000 0.81210  0.80930  0.24200  Biso   1.000  O
  O78      1.0000 0.31210  0.30930  0.24200  Biso   1.000  O
  O79      1.0000 0.81210  0.19070  0.74200  Biso   1.000  O
  O80      1.0000 0.31210  0.69070  0.74200  Biso   1.000  O
  C121     1.0000 0.61700  0.01900  0.10300  Biso   1.000  C
  C122     1.0000 0.11700  0.51900  0.10300  Biso   1.000  C
  C123     1.0000 0.61700  0.98100  0.60300  Biso   1.000  C
  C124     1.0000 0.11700  0.48100  0.60300  Biso   1.000  C
  C125     1.0000 0.70300  0.95600  0.14200  Biso   1.000  C
  C126     1.0000 0.20300  0.45600  0.14200  Biso   1.000  C
  C127     1.0000 0.70300  0.04400  0.64200  Biso   1.000  C
  C128     1.0000 0.20300  0.54400  0.64200  Biso   1.000  C
  C129     1.0000 0.74300  0.91600  0.19500  Biso   1.000  C
  C130     1.0000 0.24300  0.41600  0.19500  Biso   1.000  C
  C131     1.0000 0.74300  0.08400  0.69500  Biso   1.000  C
  C132     1.0000 0.24300  0.58400  0.69500  Biso   1.000  C
  C133     1.0000 0.74700  0.89500  0.26400  Biso   1.000  C
  C134     1.0000 0.24700  0.39500  0.26400  Biso   1.000  C
  C135     1.0000 0.74700  0.10500  0.76400  Biso   1.000  C
  C136     1.0000 0.24700  0.60500  0.76400  Biso   1.000  C
  C137     1.0000 0.70100  0.91600  0.27700  Biso   1.000  C
  C138     1.0000 0.20100  0.41600  0.27700  Biso   1.000  C
  C139     1.0000 0.70100  0.08400  0.77700  Biso   1.000  C
  C140     1.0000 0.20100  0.58400  0.77700  Biso   1.000  C
  C141     1.0000 0.66400  0.95900  0.23500  Biso   1.000  C
  C142     1.0000 0.16400  0.45900  0.23500  Biso   1.000  C
  C143     1.0000 0.66400  0.04100  0.73500  Biso   1.000  C
  C144     1.0000 0.16400  0.54100  0.73500  Biso   1.000  C
  C145     1.0000 0.79600  0.84900  0.33300  Biso   1.000  C
  C146     1.0000 0.29600  0.34900  0.33300  Biso   1.000  C
  C147     1.0000 0.79600  0.15100  0.83300  Biso   1.000  C
  C148     1.0000 0.29600  0.65100  0.83300  Biso   1.000  C
  C149     1.0000 0.89800  0.78700  0.41500  Biso   1.000  C
  C150     1.0000 0.39800  0.28700  0.41500  Biso   1.000  C
  C151     1.0000 0.89800  0.21300  0.91500  Biso   1.000  C
  C152     1.0000 0.39800  0.71300  0.91500  Biso   1.000  C
  C153     1.0000 0.85900  0.78900  0.46100  Biso   1.000  C
  C154     1.0000 0.35900  0.28900  0.46100  Biso   1.000  C
  C155     1.0000 0.85900  0.21100  0.96100  Biso   1.000  C
  C156     1.0000 0.35900  0.71100  0.96100  Biso   1.000  C
  C157     1.0000 0.80900  0.74100  0.43500  Biso   1.000  C
  C158     1.0000 0.30900  0.24100  0.43500  Biso   1.000  C
  C159     1.0000 0.80900  0.25900  0.93500  Biso   1.000  C
  C160     1.0000 0.30900  0.75900  0.93500  Biso   1.000  C
  C161     1.0000 0.92300  0.79200  0.57000  Biso   1.000  C
  C162     1.0000 0.42300  0.29200  0.57000  Biso   1.000  C
  C163     1.0000 0.92300  0.20800  0.07000  Biso   1.000  C
  C164     1.0000 0.42300  0.70800  0.07000  Biso   1.000  C
  C165     1.0000 0.88900  0.72700  0.37700  Biso   1.000  C
  C166     1.0000 0.38900  0.22700  0.37700  Biso   1.000  C
  C167     1.0000 0.88900  0.27300  0.87700  Biso   1.000  C
  C168     1.0000 0.38900  0.77300  0.87700  Biso   1.000  C
  C169     1.0000 0.96200  0.81800  0.45600  Biso   1.000  C
  C170     1.0000 0.46200  0.31800  0.45600  Biso   1.000  C
  C171     1.0000 0.96200  0.18200  0.95600  Biso   1.000  C
  C172     1.0000 0.46200  0.68200  0.95600  Biso   1.000  C
  N37      1.0000 0.17400  0.98300  0.03600  Biso   1.000  N
  N38      1.0000 0.67400  0.48300  0.03600  Biso   1.000  N
  N39      1.0000 0.17400  0.01700  0.53600  Biso   1.000  N
  N40      1.0000 0.67400  0.51700  0.53600  Biso   1.000  N
  N41      1.0000 0.00000  0.09700  0.73200  Biso   1.000  N
  N42      1.0000 0.50000  0.59700  0.73200  Biso   1.000  N
  N43      1.0000 0.00000  0.90300  0.23200  Biso   1.000  N
  N44      1.0000 0.50000  0.40300  0.23200  Biso   1.000  N
  N45      1.0000 0.04800  0.15800  0.84300  Biso   1.000  N
  N46      1.0000 0.54800  0.65800  0.84300  Biso   1.000  N
  N47      1.0000 0.04800  0.84200  0.34300  Biso   1.000  N
  N48      1.0000 0.54800  0.34200  0.34300  Biso   1.000  N
  O81      1.0000 0.98400  0.05200  0.69200  Biso   1.000  O
  O82      1.0000 0.48400  0.55200  0.69200  Biso   1.000  O
  O83      1.0000 0.98400  0.94800  0.19200  Biso   1.000  O
  O84      1.0000 0.48400  0.44800  0.19200  Biso   1.000  O
  O85      1.0000 0.08100  0.17900  0.93300  Biso   1.000  O
  O86      1.0000 0.58100  0.67900  0.93300  Biso   1.000  O
  O87      1.0000 0.08100  0.82100  0.43300  Biso   1.000  O
  O88      1.0000 0.58100  0.32100  0.43300  Biso   1.000  O
  C173     1.0000 0.22400  0.94100  0.10100  Biso   1.000  C
  C174     1.0000 0.72400  0.44100  0.10100  Biso   1.000  C
  C175     1.0000 0.22400  0.05900  0.60100  Biso   1.000  C
  C176     1.0000 0.72400  0.55900  0.60100  Biso   1.000  C
  C177     1.0000 0.14600  0.98300  0.94100  Biso   1.000  C
  C178     1.0000 0.64600  0.48300  0.94100  Biso   1.000  C
  C179     1.0000 0.14600  0.01700  0.44100  Biso   1.000  C
  C180     1.0000 0.64600  0.51700  0.44100  Biso   1.000  C
  C181     1.0000 0.10300  0.01400  0.86700  Biso   1.000  C
  C182     1.0000 0.60300  0.51400  0.86700  Biso   1.000  C
  C183     1.0000 0.10300  0.98600  0.36700  Biso   1.000  C
  C184     1.0000 0.60300  0.48600  0.36700  Biso   1.000  C
  C185     1.0000 0.09200  0.05700  0.90400  Biso   1.000  C
  C186     1.0000 0.59200  0.55700  0.90400  Biso   1.000  C
  C187     1.0000 0.09200  0.94300  0.40400  Biso   1.000  C
  C188     1.0000 0.59200  0.44300  0.40400  Biso   1.000  C
  C189     1.0000 0.11800  0.07100  0.98900  Biso   1.000  C
  C190     1.0000 0.61800  0.57100  0.98900  Biso   1.000  C
  C191     1.0000 0.11800  0.92900  0.48900  Biso   1.000  C
  C192     1.0000 0.61800  0.42900  0.48900  Biso   1.000  C
  C193     1.0000 0.16400  0.02900  0.06700  Biso   1.000  C
  C194     1.0000 0.66400  0.52900  0.06700  Biso   1.000  C
  C195     1.0000 0.16400  0.97100  0.56700  Biso   1.000  C
  C196     1.0000 0.66400  0.47100  0.56700  Biso   1.000  C
  C197     1.0000 0.05200  0.10000  0.83100  Biso   1.000  C
  C198     1.0000 0.55200  0.60000  0.83100  Biso   1.000  C
  C199     1.0000 0.05200  0.90000  0.33100  Biso   1.000  C
  C200     1.0000 0.55200  0.40000  0.33100  Biso   1.000  C
  C201     1.0000 0.94200  0.14300  0.67300  Biso   1.000  C
  C202     1.0000 0.44200  0.64300  0.67300  Biso   1.000  C
  C203     1.0000 0.94200  0.85700  0.17300  Biso   1.000  C
  C204     1.0000 0.44200  0.35700  0.17300  Biso   1.000  C
  C205     1.0000 0.00100  0.18800  0.74600  Biso   1.000  C
  C206     1.0000 0.50100  0.68800  0.74600  Biso   1.000  C
  C207     1.0000 0.00100  0.81200  0.24600  Biso   1.000  C
  C208     1.0000 0.50100  0.31200  0.24600  Biso   1.000  C
  C209     1.0000 0.87600  0.13000  0.64800  Biso   1.000  C
  C210     1.0000 0.37600  0.63000  0.64800  Biso   1.000  C
  C211     1.0000 0.87600  0.87000  0.14800  Biso   1.000  C
  C212     1.0000 0.37600  0.37000  0.14800  Biso   1.000  C
  C213     1.0000 0.93600  0.14600  0.59000  Biso   1.000  C
  C214     1.0000 0.43600  0.64600  0.59000  Biso   1.000  C
  C215     1.0000 0.93600  0.85400  0.09000  Biso   1.000  C
  C216     1.0000 0.43600  0.35400  0.09000  Biso   1.000  C
  C217     1.0000 0.96800  0.23200  0.75500  Biso   1.000  C
  C218     1.0000 0.46800  0.73200  0.75500  Biso   1.000  C
  C219     1.0000 0.96800  0.76800  0.25500  Biso   1.000  C
  C220     1.0000 0.46800  0.26800  0.25500  Biso   1.000  C
  C221     1.0000 0.06500  0.19500  0.75300  Biso   1.000  C
  C222     1.0000 0.56500  0.69500  0.75300  Biso   1.000  C
  C223     1.0000 0.06500  0.80500  0.25300  Biso   1.000  C
  C224     1.0000 0.56500  0.30500  0.25300  Biso   1.000  C
  S1       1.0000 0.29500  0.10200  0.08500  Biso   1.000  S
  S2       1.0000 0.79500  0.60200  0.08500  Biso   1.000  S
  S3       1.0000 0.29500  0.89800  0.58500  Biso   1.000  S
  S4       1.0000 0.79500  0.39800  0.58500  Biso   1.000  S
  O89      1.0000 0.32100  0.04900  0.09000  Biso   1.000  O
  O90      1.0000 0.82100  0.54900  0.09000  Biso   1.000  O
  O91      1.0000 0.32100  0.95100  0.59000  Biso   1.000  O
  O92      1.0000 0.82100  0.45100  0.59000  Biso   1.000  O
  C225     1.0000 0.37200  0.14800  0.17700  Biso   1.000  C
  C226     1.0000 0.87200  0.64800  0.17700  Biso   1.000  C
  C227     1.0000 0.37200  0.85200  0.67700  Biso   1.000  C
  C228     1.0000 0.87200  0.35200  0.67700  Biso   1.000  C
  C229     1.0000 0.27400  0.12600  0.01900  Biso   1.000  C
  C230     1.0000 0.77400  0.62600  0.01900  Biso   1.000  C
  C231     1.0000 0.27400  0.87400  0.51900  Biso   1.000  C
  C232     1.0000 0.77400  0.37400  0.51900  Biso   1.000  C
  C233     1.0000 0.31900  0.07800  0.05800  Biso   1.000  C
  C234     1.0000 0.81900  0.57800  0.05800  Biso   1.000  C
  C235     1.0000 0.31900  0.92200  0.55800  Biso   1.000  C
  C236     1.0000 0.81900  0.42200  0.55800  Biso   1.000  C
  S5       1.0000 0.40700  0.99800  0.36900  Biso   1.000  S
  S6       1.0000 0.90700  0.49800  0.36900  Biso   1.000  S
  S7       1.0000 0.40700  0.00200  0.86900  Biso   1.000  S
  S8       1.0000 0.90700  0.50200  0.86900  Biso   1.000  S
  O93      1.0000 0.44200  0.00600  0.46600  Biso   1.000  O
  O94      1.0000 0.94200  0.50600  0.46600  Biso   1.000  O
  O95      1.0000 0.44200  0.99400  0.96600  Biso   1.000  O
  O96      1.0000 0.94200  0.49400  0.96600  Biso   1.000  O
  C237     1.0000 0.43600  0.01900  0.31400  Biso   1.000  C
  C238     1.0000 0.93600  0.51900  0.31400  Biso   1.000  C
  C239     1.0000 0.43600  0.98100  0.81400  Biso   1.000  C
  C240     1.0000 0.93600  0.48100  0.81400  Biso   1.000  C
  C241     1.0000 0.38600  0.02200  0.34200  Biso   1.000  C
  C242     1.0000 0.88600  0.52200  0.34200  Biso   1.000  C
  C243     1.0000 0.38600  0.97800  0.84200  Biso   1.000  C
  C244     1.0000 0.88600  0.47800  0.84200  Biso   1.000  C
  C245     1.0000 0.42600  0.95200  0.96000  Biso   1.000  C
  C246     1.0000 0.92600  0.45200  0.96000  Biso   1.000  C
  C247     1.0000 0.42600  0.04800  0.46000  Biso   1.000  C
  C248     1.0000 0.92600  0.54800  0.46000  Biso   1.000  C
  C249     1.0000 0.36600  0.92400  0.81400  Biso   1.000  C
  C250     1.0000 0.86600  0.42400  0.81400  Biso   1.000  C
  C251     1.0000 0.36600  0.07600  0.31400  Biso   1.000  C
  C252     1.0000 0.86600  0.57600  0.31400  Biso   1.000  C
  O97      1.0000 0.05500  0.16900  0.43500  Biso   1.000  O
  O98      1.0000 0.55500  0.66900  0.43500  Biso   1.000  O
  O99      1.0000 0.05500  0.83100  0.93500  Biso   1.000  O
  O100     1.0000 0.55500  0.33100  0.93500  Biso   1.000  O
  O101     1.0000 0.70200  0.12400  0.02100  Biso   1.000  O
  O102     1.0000 0.20200  0.62400  0.02100  Biso   1.000  O
  O103     1.0000 0.70200  0.87600  0.52100  Biso   1.000  O
  O104     1.0000 0.20200  0.37600  0.52100  Biso   1.000  O
  O105     1.0000 0.12600  0.08600  0.71400  Biso   1.000  O
  O106     1.0000 0.62600  0.58600  0.71400  Biso   1.000  O
  O107     1.0000 0.12600  0.91400  0.21400  Biso   1.000  O
  O108     1.0000 0.62600  0.41400  0.21400  Biso   1.000  O
  O109     1.0000 0.77500  0.19500  0.33600  Biso   1.000  O
  O110     1.0000 0.27500  0.69500  0.33600  Biso   1.000  O
  O111     1.0000 0.77500  0.80500  0.83600  Biso   1.000  O
  O112     1.0000 0.27500  0.30500  0.83600  Biso   1.000  O
  H1       1.0000 0.31090  0.85970  0.05090  Biso   1.000  H
  H2       1.0000 0.81090  0.35970  0.05090  Biso   1.000  H
  H3       1.0000 0.31090  0.14030  0.55090  Biso   1.000  H
  H4       1.0000 0.81090  0.64030  0.55090  Biso   1.000  H
  H5       1.0000 0.38320  0.80880  0.18710  Biso   1.000  H
  H6       1.0000 0.88320  0.30880  0.18710  Biso   1.000  H
  H7       1.0000 0.38320  0.19120  0.68710  Biso   1.000  H
  H8       1.0000 0.88320  0.69120  0.68710  Biso   1.000  H
  H9       1.0000 0.49900  0.84160  0.33260  Biso   1.000  H
  H10      1.0000 0.99900  0.34160  0.33260  Biso   1.000  H
  H11      1.0000 0.49900  0.15840  0.83260  Biso   1.000  H
  H12      1.0000 0.99900  0.65840  0.83260  Biso   1.000  H
  H13      1.0000 0.54030  0.92520  0.32600  Biso   1.000  H
  H14      1.0000 0.04030  0.42520  0.32600  Biso   1.000  H
  H15      1.0000 0.54030  0.07480  0.82600  Biso   1.000  H
  H16      1.0000 0.04030  0.57480  0.82600  Biso   1.000  H
  H17      1.0000 0.78160  0.05450  0.28600  Biso   1.000  H
  H18      1.0000 0.28160  0.55450  0.28600  Biso   1.000  H
  H19      1.0000 0.78160  0.94550  0.78600  Biso   1.000  H
  H20      1.0000 0.28160  0.44550  0.78600  Biso   1.000  H
  H21      1.0000 0.82860  0.04890  0.22340  Biso   1.000  H
  H22      1.0000 0.32860  0.54890  0.22340  Biso   1.000  H
  H23      1.0000 0.82860  0.95110  0.72340  Biso   1.000  H
  H24      1.0000 0.32860  0.45110  0.72340  Biso   1.000  H
  H25      1.0000 0.92870  0.99750  0.28700  Biso   1.000  H
  H26      1.0000 0.42870  0.49750  0.28700  Biso   1.000  H
  H27      1.0000 0.92870  0.00250  0.78700  Biso   1.000  H
  H28      1.0000 0.42870  0.50250  0.78700  Biso   1.000  H
  H29      1.0000 0.98080  0.94570  0.43100  Biso   1.000  H
  H30      1.0000 0.48080  0.44570  0.43100  Biso   1.000  H
  H31      1.0000 0.98080  0.05430  0.93100  Biso   1.000  H
  H32      1.0000 0.48080  0.55430  0.93100  Biso   1.000  H
  H33      1.0000 0.08260  0.72670  0.70830  Biso   1.000  H
  H34      1.0000 0.58260  0.22670  0.70830  Biso   1.000  H
  H35      1.0000 0.08260  0.27330  0.20830  Biso   1.000  H
  H36      1.0000 0.58260  0.77330  0.20830  Biso   1.000  H
  H37      1.0000 0.00310  0.65280  0.65450  Biso   1.000  H
  H38      1.0000 0.50310  0.15280  0.65450  Biso   1.000  H
  H39      1.0000 0.00310  0.34720  0.15450  Biso   1.000  H
  H40      1.0000 0.50310  0.84720  0.15450  Biso   1.000  H
  H41      1.0000 0.99370  0.58930  0.57120  Biso   1.000  H
  H42      1.0000 0.49370  0.08930  0.57120  Biso   1.000  H
  H43      1.0000 0.99370  0.41070  0.07120  Biso   1.000  H
  H44      1.0000 0.49370  0.91070  0.07120  Biso   1.000  H
  H45      1.0000 0.03580  0.59940  0.48970  Biso   1.000  H
  H46      1.0000 0.53580  0.09940  0.48970  Biso   1.000  H
  H47      1.0000 0.03580  0.40060  0.98970  Biso   1.000  H
  H48      1.0000 0.53580  0.90060  0.98970  Biso   1.000  H
  H49      1.0000 0.59050  0.02950  0.11970  Biso   1.000  H
  H50      1.0000 0.09050  0.52950  0.11970  Biso   1.000  H
  H51      1.0000 0.59050  0.97050  0.61970  Biso   1.000  H
  H52      1.0000 0.09050  0.47050  0.61970  Biso   1.000  H
  H53      1.0000 0.64450  0.04740  0.11090  Biso   1.000  H
  H54      1.0000 0.14450  0.54740  0.11090  Biso   1.000  H
  H55      1.0000 0.64450  0.95260  0.61090  Biso   1.000  H
  H56      1.0000 0.14450  0.45260  0.61090  Biso   1.000  H
  H57      1.0000 0.58540  0.00740  0.03850  Biso   1.000  H
  H58      1.0000 0.08540  0.50740  0.03850  Biso   1.000  H
  H59      1.0000 0.58540  0.99260  0.53850  Biso   1.000  H
  H60      1.0000 0.08540  0.49260  0.53850  Biso   1.000  H
  H61      1.0000 0.70070  0.97180  0.09430  Biso   1.000  H
  H62      1.0000 0.20070  0.47180  0.09430  Biso   1.000  H
  H63      1.0000 0.70070  0.02820  0.59430  Biso   1.000  H
  H64      1.0000 0.20070  0.52820  0.59430  Biso   1.000  H
  H65      1.0000 0.77140  0.90040  0.18400  Biso   1.000  H
  H66      1.0000 0.27140  0.40040  0.18400  Biso   1.000  H
  H67      1.0000 0.77140  0.09960  0.68400  Biso   1.000  H
  H68      1.0000 0.27140  0.59960  0.68400  Biso   1.000  H
  H69      1.0000 0.69690  0.89730  0.31760  Biso   1.000  H
  H70      1.0000 0.19690  0.39730  0.31760  Biso   1.000  H
  H71      1.0000 0.69690  0.10270  0.81760  Biso   1.000  H
  H72      1.0000 0.19690  0.60270  0.81760  Biso   1.000  H
  H73      1.0000 0.64050  0.97750  0.25170  Biso   1.000  H
  H74      1.0000 0.14050  0.47750  0.25170  Biso   1.000  H
  H75      1.0000 0.64050  0.02250  0.75170  Biso   1.000  H
  H76      1.0000 0.14050  0.52250  0.75170  Biso   1.000  H
  H77      1.0000 0.78990  0.74610  0.46410  Biso   1.000  H
  H78      1.0000 0.28990  0.24610  0.46410  Biso   1.000  H
  H79      1.0000 0.78990  0.25390  0.96410  Biso   1.000  H
  H80      1.0000 0.28990  0.75390  0.96410  Biso   1.000  H
  H81      1.0000 0.77220  0.73940  0.36840  Biso   1.000  H
  H82      1.0000 0.27220  0.23940  0.36840  Biso   1.000  H
  H83      1.0000 0.77220  0.26060  0.86840  Biso   1.000  H
  H84      1.0000 0.27220  0.76060  0.86840  Biso   1.000  H
  H85      1.0000 0.83550  0.70910  0.45770  Biso   1.000  H
  H86      1.0000 0.33550  0.20910  0.45770  Biso   1.000  H
  H87      1.0000 0.83550  0.29090  0.95770  Biso   1.000  H
  H88      1.0000 0.33550  0.79090  0.95770  Biso   1.000  H
  H89      1.0000 0.90710  0.79370  0.60330  Biso   1.000  H
  H90      1.0000 0.40710  0.29370  0.60330  Biso   1.000  H
  H91      1.0000 0.90710  0.20630  0.10330  Biso   1.000  H
  H92      1.0000 0.40710  0.70630  0.10330  Biso   1.000  H
  H93      1.0000 0.95180  0.76140  0.58930  Biso   1.000  H
  H94      1.0000 0.45180  0.26140  0.58930  Biso   1.000  H
  H95      1.0000 0.95180  0.23860  0.08930  Biso   1.000  H
  H96      1.0000 0.45180  0.73860  0.08930  Biso   1.000  H
  H97      1.0000 0.95040  0.82300  0.58410  Biso   1.000  H
  H98      1.0000 0.45040  0.32300  0.58410  Biso   1.000  H
  H99      1.0000 0.95040  0.17700  0.08410  Biso   1.000  H
  H100     1.0000 0.45040  0.67700  0.08410  Biso   1.000  H
  H101     1.0000 0.90980  0.72420  0.35080  Biso   1.000  H
  H102     1.0000 0.40980  0.22420  0.35080  Biso   1.000  H
  H103     1.0000 0.90980  0.27580  0.85080  Biso   1.000  H
  H104     1.0000 0.40980  0.77580  0.85080  Biso   1.000  H
  H105     1.0000 0.91010  0.70280  0.42830  Biso   1.000  H
  H106     1.0000 0.41010  0.20280  0.42830  Biso   1.000  H
  H107     1.0000 0.91010  0.29720  0.92830  Biso   1.000  H
  H108     1.0000 0.41010  0.79720  0.92830  Biso   1.000  H
  H109     1.0000 0.83970  0.71920  0.32990  Biso   1.000  H
  H110     1.0000 0.33970  0.21920  0.32990  Biso   1.000  H
  H111     1.0000 0.83970  0.28080  0.82990  Biso   1.000  H
  H112     1.0000 0.33970  0.78080  0.82990  Biso   1.000  H
  H113     1.0000 0.97600  0.81200  0.42100  Biso   1.000  H
  H114     1.0000 0.47600  0.31200  0.42100  Biso   1.000  H
  H115     1.0000 0.97600  0.18800  0.92100  Biso   1.000  H
  H116     1.0000 0.47600  0.68800  0.92100  Biso   1.000  H
  H117     1.0000 0.95190  0.85520  0.45280  Biso   1.000  H
  H118     1.0000 0.45190  0.35520  0.45280  Biso   1.000  H
  H119     1.0000 0.95190  0.14480  0.95280  Biso   1.000  H
  H120     1.0000 0.45190  0.64480  0.95280  Biso   1.000  H
  H121     1.0000 0.99870  0.80850  0.52020  Biso   1.000  H
  H122     1.0000 0.49870  0.30850  0.52020  Biso   1.000  H
  H123     1.0000 0.99870  0.19150  0.02020  Biso   1.000  H
  H124     1.0000 0.49870  0.69150  0.02020  Biso   1.000  H
  H125     1.0000 0.23730  0.94630  0.16130  Biso   1.000  H
  H126     1.0000 0.73730  0.44630  0.16130  Biso   1.000  H
  H127     1.0000 0.23730  0.05370  0.66130  Biso   1.000  H
  H128     1.0000 0.73730  0.55370  0.66130  Biso   1.000  H
  H129     1.0000 0.20210  0.90740  0.07670  Biso   1.000  H
  H130     1.0000 0.70210  0.40740  0.07670  Biso   1.000  H
  H131     1.0000 0.20210  0.09260  0.57670  Biso   1.000  H
  H132     1.0000 0.70210  0.59260  0.57670  Biso   1.000  H
  H133     1.0000 0.26430  0.94300  0.10780  Biso   1.000  H
  H134     1.0000 0.76430  0.44300  0.10780  Biso   1.000  H
  H135     1.0000 0.26430  0.05700  0.60780  Biso   1.000  H
  H136     1.0000 0.76430  0.55700  0.60780  Biso   1.000  H
  H137     1.0000 0.16350  0.95490  0.92770  Biso   1.000  H
  H138     1.0000 0.66350  0.45490  0.92770  Biso   1.000  H
  H139     1.0000 0.16350  0.04510  0.42770  Biso   1.000  H
  H140     1.0000 0.66350  0.54510  0.42770  Biso   1.000  H
  H141     1.0000 0.08300  0.00880  0.80420  Biso   1.000  H
  H142     1.0000 0.58300  0.50880  0.80420  Biso   1.000  H
  H143     1.0000 0.08300  0.99120  0.30420  Biso   1.000  H
  H144     1.0000 0.58300  0.49120  0.30420  Biso   1.000  H
  H145     1.0000 0.10990  0.10450  0.00180  Biso   1.000  H
  H146     1.0000 0.60990  0.60450  0.00180  Biso   1.000  H
  H147     1.0000 0.10990  0.89550  0.50180  Biso   1.000  H
  H148     1.0000 0.60990  0.39550  0.50180  Biso   1.000  H
  H149     1.0000 0.18420  0.03390  0.13040  Biso   1.000  H
  H150     1.0000 0.68420  0.53390  0.13040  Biso   1.000  H
  H151     1.0000 0.18420  0.96610  0.63040  Biso   1.000  H
  H152     1.0000 0.68420  0.46610  0.63040  Biso   1.000  H
  H153     1.0000 0.85350  0.10200  0.60290  Biso   1.000  H
  H154     1.0000 0.35350  0.60200  0.60290  Biso   1.000  H
  H155     1.0000 0.85350  0.89800  0.10290  Biso   1.000  H
  H156     1.0000 0.35350  0.39800  0.10290  Biso   1.000  H
  H157     1.0000 0.88490  0.11910  0.70340  Biso   1.000  H
  H158     1.0000 0.38490  0.61910  0.70340  Biso   1.000  H
  H159     1.0000 0.88490  0.88090  0.20340  Biso   1.000  H
  H160     1.0000 0.38490  0.38090  0.20340  Biso   1.000  H
  H161     1.0000 0.84640  0.16050  0.62200  Biso   1.000  H
  H162     1.0000 0.34640  0.66050  0.62200  Biso   1.000  H
  H163     1.0000 0.84640  0.83950  0.12200  Biso   1.000  H
  H164     1.0000 0.34640  0.33950  0.12200  Biso   1.000  H
  H165     1.0000 0.90200  0.12080  0.54470  Biso   1.000  H
  H166     1.0000 0.40200  0.62080  0.54470  Biso   1.000  H
  H167     1.0000 0.90200  0.87920  0.04470  Biso   1.000  H
  H168     1.0000 0.40200  0.37920  0.04470  Biso   1.000  H
  H169     1.0000 0.92080  0.18080  0.56410  Biso   1.000  H
  H170     1.0000 0.42080  0.68080  0.56410  Biso   1.000  H
  H171     1.0000 0.92080  0.81920  0.06410  Biso   1.000  H
  H172     1.0000 0.42080  0.31920  0.06410  Biso   1.000  H
  H173     1.0000 0.97990  0.13870  0.60870  Biso   1.000  H
  H174     1.0000 0.47990  0.63870  0.60870  Biso   1.000  H
  H175     1.0000 0.97990  0.86130  0.10870  Biso   1.000  H
  H176     1.0000 0.47990  0.36130  0.10870  Biso   1.000  H
  H177     1.0000 0.00290  0.25780  0.79770  Biso   1.000  H
  H178     1.0000 0.50290  0.75780  0.79770  Biso   1.000  H
  H179     1.0000 0.00290  0.74220  0.29770  Biso   1.000  H
  H180     1.0000 0.50290  0.24220  0.29770  Biso   1.000  H
  H181     1.0000 0.93370  0.24820  0.69420  Biso   1.000  H
  H182     1.0000 0.43370  0.74820  0.69420  Biso   1.000  H
  H183     1.0000 0.93370  0.75180  0.19420  Biso   1.000  H
  H184     1.0000 0.43370  0.25180  0.19420  Biso   1.000  H
  H185     1.0000 0.94640  0.21950  0.77730  Biso   1.000  H
  H186     1.0000 0.44640  0.71950  0.77730  Biso   1.000  H
  H187     1.0000 0.94640  0.78050  0.27730  Biso   1.000  H
  H188     1.0000 0.44640  0.28050  0.27730  Biso   1.000  H
  H189     1.0000 0.09530  0.22210  0.79820  Biso   1.000  H
  H190     1.0000 0.59530  0.72210  0.79820  Biso   1.000  H
  H191     1.0000 0.09530  0.77790  0.29820  Biso   1.000  H
  H192     1.0000 0.59530  0.27790  0.29820  Biso   1.000  H
  H193     1.0000 0.09050  0.16270  0.77260  Biso   1.000  H
  H194     1.0000 0.59050  0.66270  0.77260  Biso   1.000  H
  H195     1.0000 0.09050  0.83730  0.27260  Biso   1.000  H
  H196     1.0000 0.59050  0.33730  0.27260  Biso   1.000  H
  H197     1.0000 0.04900  0.20520  0.69290  Biso   1.000  H
  H198     1.0000 0.54900  0.70520  0.69290  Biso   1.000  H
  H199     1.0000 0.04900  0.79480  0.19290  Biso   1.000  H
  H200     1.0000 0.54900  0.29480  0.19290  Biso   1.000  H
