data_image0
_cell_length_a       8.4218
_cell_length_b       11.6066
_cell_length_c       9.8732
_cell_angle_alpha    90
_cell_angle_beta     95.724
_cell_angle_gamma    90

_symmetry_space_group_name_H-M    "P 1"
_symmetry_int_tables_number       1

loop_
  _symmetry_equiv_pos_as_xyz
  'x, y, z'

loop_
  _atom_site_label
  _atom_site_occupancy
  _atom_site_fract_x
  _atom_site_fract_y
  _atom_site_fract_z
  _atom_site_thermal_displace_type
  _atom_site_B_iso_or_equiv
  _atom_site_type_symbol
  N1       1.0000 0.97940  0.26190  0.85560  Biso   1.000  N
  N2       1.0000 0.02060  0.76190  0.64440  Biso   1.000  N
  N3       1.0000 0.02060  0.73810  0.14440  Biso   1.000  N
  N4       1.0000 0.97940  0.23810  0.35560  Biso   1.000  N
  N5       1.0000 0.83230  0.21320  0.85060  Biso   1.000  N
  N6       1.0000 0.16770  0.71320  0.64940  Biso   1.000  N
  N7       1.0000 0.16770  0.78680  0.14940  Biso   1.000  N
  N8       1.0000 0.83230  0.28680  0.35060  Biso   1.000  N
  H1       1.0000 0.63200  0.08700  0.95700  Biso   1.000  H
  H2       1.0000 0.36800  0.58700  0.54300  Biso   1.000  H
  H3       1.0000 0.36800  0.91300  0.04300  Biso   1.000  H
  H4       1.0000 0.63200  0.41300  0.45700  Biso   1.000  H
  H5       1.0000 0.28400  0.28400  0.69900  Biso   1.000  H
  H6       1.0000 0.71600  0.78400  0.80100  Biso   1.000  H
  H7       1.0000 0.71600  0.71600  0.30100  Biso   1.000  H
  H8       1.0000 0.28400  0.21600  0.19900  Biso   1.000  H
  H9       1.0000 0.31400  0.38300  0.64900  Biso   1.000  H
  H10      1.0000 0.68600  0.88300  0.85100  Biso   1.000  H
  H11      1.0000 0.68600  0.61700  0.35100  Biso   1.000  H
  H12      1.0000 0.31400  0.11700  0.14900  Biso   1.000  H
  H13      1.0000 0.12300  0.47700  0.94800  Biso   1.000  H
  H14      1.0000 0.87700  0.97700  0.55200  Biso   1.000  H
  H15      1.0000 0.87700  0.52300  0.05200  Biso   1.000  H
  H16      1.0000 0.12300  0.02300  0.44800  Biso   1.000  H
  H17      1.0000 0.10900  0.56700  0.86400  Biso   1.000  H
  H18      1.0000 0.89100  0.06700  0.63600  Biso   1.000  H
  H19      1.0000 0.89100  0.43300  0.13600  Biso   1.000  H
  H20      1.0000 0.10900  0.93300  0.36400  Biso   1.000  H
  Cu1      1.0000 0.05322  0.40350  0.71835  Biso   1.000  Cu
  Cu2      1.0000 0.94678  0.90350  0.78165  Biso   1.000  Cu
  Cu3      1.0000 0.94678  0.59650  0.28165  Biso   1.000  Cu
  Cu4      1.0000 0.05322  0.09650  0.21835  Biso   1.000  Cu
  N9       1.0000 0.71340  0.08700  0.99960  Biso   1.000  N
  N10      1.0000 0.28660  0.58700  0.50040  Biso   1.000  N
  N11      1.0000 0.28660  0.91300  0.00040  Biso   1.000  N
  N12      1.0000 0.71340  0.41300  0.49960  Biso   1.000  N
  N13      1.0000 0.66050  0.90489  0.26690  Biso   1.000  N
  N14      1.0000 0.33950  0.40489  0.23310  Biso   1.000  N
  N15      1.0000 0.33950  0.09511  0.73310  Biso   1.000  N
  N16      1.0000 0.66050  0.59511  0.76690  Biso   1.000  N
  N17      1.0000 0.84590  0.01741  0.20870  Biso   1.000  N
  N18      1.0000 0.15410  0.51741  0.29130  Biso   1.000  N
  N19      1.0000 0.15410  0.98259  0.79130  Biso   1.000  N
  N20      1.0000 0.84590  0.48259  0.70870  Biso   1.000  N
  N21      1.0000 0.28050  0.35360  0.70970  Biso   1.000  N
  N22      1.0000 0.71950  0.85360  0.79030  Biso   1.000  N
  N23      1.0000 0.71950  0.64640  0.29030  Biso   1.000  N
  N24      1.0000 0.28050  0.14640  0.20970  Biso   1.000  N
  N25      1.0000 0.14750  0.50280  0.87460  Biso   1.000  N
  N26      1.0000 0.85250  0.00280  0.62540  Biso   1.000  N
  N27      1.0000 0.85250  0.49720  0.12540  Biso   1.000  N
  N28      1.0000 0.14750  0.99720  0.37460  Biso   1.000  N
  N29      1.0000 0.97880  0.16115  0.03810  Biso   1.000  N
  N30      1.0000 0.02120  0.66115  0.46190  Biso   1.000  N
  N31      1.0000 0.02120  0.83885  0.96190  Biso   1.000  N
  N32      1.0000 0.97880  0.33885  0.53810  Biso   1.000  N
  N33      1.0000 0.60440  0.95290  0.14640  Biso   1.000  N
  N34      1.0000 0.39560  0.45290  0.35360  Biso   1.000  N
  N35      1.0000 0.39560  0.04710  0.85360  Biso   1.000  N
  N36      1.0000 0.60440  0.54710  0.64640  Biso   1.000  N
  N37      1.0000 0.80290  0.94320  0.30460  Biso   1.000  N
  N38      1.0000 0.19710  0.44320  0.19540  Biso   1.000  N
  N39      1.0000 0.19710  0.05680  0.69540  Biso   1.000  N
  N40      1.0000 0.80290  0.55680  0.80460  Biso   1.000  N
  N41      1.0000 0.06690  0.23139  0.96560  Biso   1.000  N
  N42      1.0000 0.93310  0.73139  0.53440  Biso   1.000  N
  N43      1.0000 0.93310  0.76861  0.03440  Biso   1.000  N
  N44      1.0000 0.06690  0.26861  0.46560  Biso   1.000  N
  C1       1.0000 0.72090  0.02150  0.11570  Biso   1.000  C
  C2       1.0000 0.27910  0.52150  0.38430  Biso   1.000  C
  C3       1.0000 0.27910  0.97850  0.88430  Biso   1.000  C
  C4       1.0000 0.72090  0.47850  0.61570  Biso   1.000  C
  C5       1.0000 0.83840  0.15290  0.96410  Biso   1.000  C
  C6       1.0000 0.16160  0.65290  0.53590  Biso   1.000  C
  C7       1.0000 0.16160  0.84710  0.03590  Biso   1.000  C
  C8       1.0000 0.83840  0.34710  0.46410  Biso   1.000  C
  C9       1.0000 0.37420  0.38530  0.83870  Biso   1.000  C
  C10      1.0000 0.62580  0.88530  0.66130  Biso   1.000  C
  C11      1.0000 0.62580  0.61470  0.16130  Biso   1.000  C
  C12      1.0000 0.37420  0.11470  0.33870  Biso   1.000  C
  H21      1.0000 0.35520  0.33050  0.90940  Biso   1.000  H
  H22      1.0000 0.64480  0.83050  0.59060  Biso   1.000  H
  H23      1.0000 0.64480  0.66950  0.09060  Biso   1.000  H
  H24      1.0000 0.35520  0.16950  0.40940  Biso   1.000  H
  H25      1.0000 0.48730  0.38500  0.82720  Biso   1.000  H
  H26      1.0000 0.51270  0.88500  0.67280  Biso   1.000  H
  H27      1.0000 0.51270  0.61500  0.17280  Biso   1.000  H
  H28      1.0000 0.48730  0.11500  0.32720  Biso   1.000  H
  C13      1.0000 0.32290  0.50380  0.87750  Biso   1.000  C
  C14      1.0000 0.67710  0.00380  0.62250  Biso   1.000  C
  C15      1.0000 0.67710  0.49620  0.12250  Biso   1.000  C
  C16      1.0000 0.32290  0.99620  0.37750  Biso   1.000  C
  H29      1.0000 0.35610  0.56030  0.81370  Biso   1.000  H
  H30      1.0000 0.64390  0.06030  0.68630  Biso   1.000  H
  H31      1.0000 0.64390  0.43970  0.18630  Biso   1.000  H
  H32      1.0000 0.35610  0.93970  0.31370  Biso   1.000  H
  H33      1.0000 0.37100  0.52340  0.96790  Biso   1.000  H
  H34      1.0000 0.62900  0.02340  0.53210  Biso   1.000  H
  H35      1.0000 0.62900  0.47660  0.03210  Biso   1.000  H
  H36      1.0000 0.37100  0.97660  0.46790  Biso   1.000  H
