data_image0
_cell_length_a       10.205
_cell_length_b       10.82
_cell_length_c       12.306
_cell_angle_alpha    77.524
_cell_angle_beta     73.743
_cell_angle_gamma    89.201

_symmetry_space_group_name_H-M    "P 1"
_symmetry_int_tables_number       1

loop_
  _symmetry_equiv_pos_as_xyz
  'x, y, z'

loop_
  _atom_site_label
  _atom_site_occupancy
  _atom_site_fract_x
  _atom_site_fract_y
  _atom_site_fract_z
  _atom_site_thermal_displace_type
  _atom_site_B_iso_or_equiv
  _atom_site_type_symbol
  Cu1      1.0000 0.71926  0.32471  0.34323  Biso   1.000  Cu
  Cu2      1.0000 0.05203  0.17104  0.76619  Biso   1.000  Cu
  Cu3      1.0000 0.91214  0.57982  0.18042  Biso   1.000  Cu
  Na1      1.0000 0.44490  0.35940  0.22740  Biso   1.000  Na
  Na2      1.0000 0.30770  0.87290  0.41140  Biso   1.000  Na
  Na3      1.0000 0.05420  0.35120  0.38680  Biso   1.000  Na
  Na4      1.0000 0.97930  0.24330  0.13090  Biso   1.000  Na
  Na5      1.0000 0.91440  0.81300  0.36960  Biso   1.000  Na
  O1       1.0000 0.22010  0.23960  0.78530  Biso   1.000  O
  O2       1.0000 0.27860  0.26600  0.59420  Biso   1.000  O
  O3       1.0000 0.39320  0.51900  0.46620  Biso   1.000  O
  O4       1.0000 0.54180  0.39650  0.37310  Biso   1.000  O
  O5       1.0000 0.80240  0.46980  0.37330  Biso   1.000  O
  O6       1.0000 0.82190  0.61410  0.47260  Biso   1.000  O
  O7       1.0000 0.88280  0.10270  0.74870  Biso   1.000  O
  O8       1.0000 0.96120  0.19370  0.56140  Biso   1.000  O
  O9       1.0000 0.93110  0.02430  0.39960  Biso   1.000  O
  O10      1.0000 0.88520  0.22580  0.34080  Biso   1.000  O
  O11      1.0000 0.63860  0.18540  0.30250  Biso   1.000  O
  H1       1.0000 0.70170  0.16010  0.25620  Biso   1.000  H
  O12      1.0000 0.49430  0.02060  0.36090  Biso   1.000  O
  O13      1.0000 0.98330  0.34280  0.75890  Biso   1.000  O
  O14      1.0000 0.92510  0.29600  0.95030  Biso   1.000  O
  O15      1.0000 0.66000  0.39270  0.08180  Biso   1.000  O
  O16      1.0000 0.83220  0.42620  0.15250  Biso   1.000  O
  O17      1.0000 0.63180  0.79490  0.06040  Biso   1.000  O
  O18      1.0000 0.75000  0.66860  0.16080  Biso   1.000  O
  O19      1.0000 0.13380  0.00220  0.77030  Biso   1.000  O
  O20      1.0000 0.01310  0.96380  0.95460  Biso   1.000  O
  O21      1.0000 0.16850  0.88030  0.12030  Biso   1.000  O
  O22      1.0000 0.99430  0.73710  0.19050  Biso   1.000  O
  O23      1.0000 0.07440  0.48970  0.20140  Biso   1.000  O
  O24      1.0000 0.29870  0.49040  0.16270  Biso   1.000  O
  O25      1.0000 0.86790  0.05300  0.14610  Biso   1.000  O
  H2       1.0000 0.82830  0.97850  0.20900  Biso   1.000  H
  H3       1.0000 0.95370  0.03430  0.12940  Biso   1.000  H
  O26      1.0000 0.19240  0.17120  0.02620  Biso   1.000  O
  H4       1.0000 0.17420  0.18790  0.96230  Biso   1.000  H
  H5       1.0000 0.20350  0.24430  0.04170  Biso   1.000  H
  O27      1.0000 0.10780  0.47110  0.51170  Biso   1.000  O
  H6       1.0000 0.09070  0.41050  0.57830  Biso   1.000  H
  H7       1.0000 0.04280  0.48500  0.46390  Biso   1.000  H
  O28      1.0000 0.26370  0.24200  0.37970  Biso   1.000  O
  H8       1.0000 0.30710  0.19550  0.42110  Biso   1.000  H
  H9       1.0000 0.17920  0.23680  0.41780  Biso   1.000  H
  O29      1.0000 0.42350  0.19280  0.13110  Biso   1.000  O
  H10      1.0000 0.44470  0.25610  0.06520  Biso   1.000  H
  H11      1.0000 0.34470  0.14310  0.14930  Biso   1.000  H
  O30      1.0000 0.20670  0.01750  0.27810  Biso   1.000  O
  H12      1.0000 0.20120  0.98100  0.22600  Biso   1.000  H
  H13      1.0000 0.13530  0.05570  0.30160  Biso   1.000  H
  O31      1.0000 0.11540  0.73340  0.41240  Biso   1.000  O
  H14      1.0000 0.09140  0.77870  0.45960  Biso   1.000  H
  H15      1.0000 0.20340  0.71960  0.40220  Biso   1.000  H
  O32      1.0000 0.15440  0.97080  0.54440  Biso   1.000  O
  H16      1.0000 0.14840  0.99130  0.60900  Biso   1.000  H
  H17      1.0000 0.08050  0.00690  0.53310  Biso   1.000  H
  O33      1.0000 0.40580  0.74450  0.27200  Biso   1.000  O
  H18      1.0000 0.40290  0.80980  0.21660  Biso   1.000  H
  H19      1.0000 0.49660  0.70730  0.26450  Biso   1.000  H
  O34      1.0000 0.42980  0.74940  0.52430  Biso   1.000  O
  H20      1.0000 0.39680  0.67610  0.52890  Biso   1.000  H
  H21      1.0000 0.49370  0.74330  0.55510  Biso   1.000  H
  O35      1.0000 0.71430  0.84190  0.30870  Biso   1.000  O
  H22      1.0000 0.71100  0.78740  0.28600  Biso   1.000  H
  H23      1.0000 0.62700  0.83240  0.36650  Biso   1.000  H
  O36      1.0000 0.68270  0.05870  0.97570  Biso   1.000  O
  H24      1.0000 0.76680  0.04790  0.94580  Biso   1.000  H
  H25      1.0000 0.68840  0.97150  0.01180  Biso   1.000  H
  O37      1.0000 0.64690  0.75870  0.61840  Biso   1.000  O
  H26      1.0000 0.72580  0.79380  0.60190  Biso   1.000  H
  H27      1.0000 0.59670  0.70650  0.67890  Biso   1.000  H
  O38      1.0000 0.66590  0.16750  0.10530  Biso   1.000  O
  H28      1.0000 0.62090  0.24220  0.09640  Biso   1.000  H
  H29      1.0000 0.60380  0.10420  0.12820  Biso   1.000  H
  C1       1.0000 0.44210  0.33420  0.67950  Biso   1.000  C
  C2       1.0000 0.53130  0.40100  0.57230  Biso   1.000  C
  C3       1.0000 0.65990  0.44010  0.57140  Biso   1.000  C
  C4       1.0000 0.69820  0.42040  0.67590  Biso   1.000  C
  H30      1.0000 0.78390  0.45010  0.67460  Biso   1.000  H
  C5       1.0000 0.61090  0.35850  0.77780  Biso   1.000  C
  H31      1.0000 0.63660  0.34550  0.84600  Biso   1.000  H
  C6       1.0000 0.48380  0.31510  0.77950  Biso   1.000  C
  H32      1.0000 0.42470  0.27210  0.84930  Biso   1.000  H
  C7       1.0000 0.30690  0.27900  0.68610  Biso   1.000  C
  C8       1.0000 0.48330  0.44070  0.46470  Biso   1.000  C
  C9       1.0000 0.76500  0.51590  0.46570  Biso   1.000  C
  C10      1.0000 0.74080  0.08680  0.62760  Biso   1.000  C
  C11      1.0000 0.72700  0.09340  0.51450  Biso   1.000  C
  C12      1.0000 0.60270  0.07110  0.49720  Biso   1.000  C
  C13      1.0000 0.48930  0.03050  0.59490  Biso   1.000  C
  H33      1.0000 0.40560  0.01280  0.58390  Biso   1.000  H
  C14      1.0000 0.49910  0.01620  0.70640  Biso   1.000  C
  H34      1.0000 0.42430  0.98630  0.77010  Biso   1.000  H
  C15      1.0000 0.62730  0.04880  0.72140  Biso   1.000  C
  H35      1.0000 0.63420  0.04430  0.79590  Biso   1.000  H
  C16      1.0000 0.86920  0.13120  0.64570  Biso   1.000  C
  C17      1.0000 0.85790  0.11570  0.41350  Biso   1.000  C
  C18      1.0000 0.57240  0.08910  0.38160  Biso   1.000  C
  C19      1.0000 0.90480  0.51120  0.85690  Biso   1.000  C
  C20      1.0000 0.82980  0.54570  0.95870  Biso   1.000  C
  C21      1.0000 0.79940  0.67360  0.95850  Biso   1.000  C
  C22      1.0000 0.84040  0.76330  0.85140  Biso   1.000  C
  H36      1.0000 0.81890  0.84750  0.84920  Biso   1.000  H
  C23      1.0000 0.91050  0.72920  0.75160  Biso   1.000  C
  H37      1.0000 0.93510  0.78990  0.68220  Biso   1.000  H
  C24      1.0000 0.94590  0.60320  0.75260  Biso   1.000  C
  H38      1.0000 0.99620  0.58080  0.68470  Biso   1.000  H
  C25      1.0000 0.93820  0.37560  0.85660  Biso   1.000  C
  C26      1.0000 0.76900  0.44780  0.07120  Biso   1.000  C
  C27      1.0000 0.72390  0.71540  0.06440  Biso   1.000  C
  C28      1.0000 0.16300  0.80540  0.89200  Biso   1.000  C
  C29      1.0000 0.15240  0.73590  0.00530  Biso   1.000  C
  C30      1.0000 0.20570  0.61380  0.01620  Biso   1.000  C
  C31      1.0000 0.26590  0.56330  0.92040  Biso   1.000  C
  H39      1.0000 0.30010  0.48290  0.93090  Biso   1.000  H
  C32      1.0000 0.27510  0.63100  0.81140  Biso   1.000  C
  H40      1.0000 0.31440  0.59670  0.74740  Biso   1.000  H
  C33      1.0000 0.22400  0.75460  0.79620  Biso   1.000  C
  H41      1.0000 0.23150  0.80180  0.72190  Biso   1.000  H
  C34      1.0000 0.09990  0.93350  0.87260  Biso   1.000  C
  C35      1.0000 0.10300  0.78900  0.11190  Biso   1.000  C
  C36      1.0000 0.19110  0.52390  0.13870  Biso   1.000  C
