data_image0
_cell_length_a       13.85
_cell_length_b       13.3321
_cell_length_c       15.8532
_cell_angle_alpha    90
_cell_angle_beta     106.263
_cell_angle_gamma    90

_symmetry_space_group_name_H-M    "P 1"
_symmetry_int_tables_number       1

loop_
  _symmetry_equiv_pos_as_xyz
  'x, y, z'

loop_
  _atom_site_label
  _atom_site_occupancy
  _atom_site_fract_x
  _atom_site_fract_y
  _atom_site_fract_z
  _atom_site_thermal_displace_type
  _atom_site_B_iso_or_equiv
  _atom_site_type_symbol
  Cu1      1.0000 0.79273  0.42926  0.20619  Biso   1.000  Cu
  Cu2      1.0000 0.20727  0.92926  0.29381  Biso   1.000  Cu
  Cu3      1.0000 0.20727  0.57074  0.79381  Biso   1.000  Cu
  Cu4      1.0000 0.79273  0.07074  0.70619  Biso   1.000  Cu
  Cu5      1.0000 0.63088  0.13795  0.95930  Biso   1.000  Cu
  Cu6      1.0000 0.36912  0.63795  0.54070  Biso   1.000  Cu
  Cu7      1.0000 0.36912  0.86205  0.04070  Biso   1.000  Cu
  Cu8      1.0000 0.63088  0.36205  0.45930  Biso   1.000  Cu
  O1       1.0000 0.75355  0.37990  0.08692  Biso   1.000  O
  O2       1.0000 0.24645  0.87990  0.41308  Biso   1.000  O
  O3       1.0000 0.24645  0.62010  0.91308  Biso   1.000  O
  O4       1.0000 0.75355  0.12010  0.58692  Biso   1.000  O
  O5       1.0000 0.66052  0.30540  0.96852  Biso   1.000  O
  O6       1.0000 0.33948  0.80540  0.53148  Biso   1.000  O
  O7       1.0000 0.33948  0.69460  0.03148  Biso   1.000  O
  O8       1.0000 0.66052  0.19460  0.46852  Biso   1.000  O
  O9       1.0000 0.58685  0.36974  0.33223  Biso   1.000  O
  O10      1.0000 0.41315  0.86974  0.16777  Biso   1.000  O
  O11      1.0000 0.41315  0.63026  0.66777  Biso   1.000  O
  O12      1.0000 0.58685  0.13026  0.83223  Biso   1.000  O
  O13      1.0000 0.76161  0.40011  0.44777  Biso   1.000  O
  O14      1.0000 0.23839  0.90011  0.05223  Biso   1.000  O
  O15      1.0000 0.23839  0.59989  0.55223  Biso   1.000  O
  O16      1.0000 0.76161  0.09989  0.94777  Biso   1.000  O
  O17      1.0000 0.79437  0.60652  0.17438  Biso   1.000  O
  O18      1.0000 0.20563  0.10652  0.32562  Biso   1.000  O
  O19      1.0000 0.20563  0.39348  0.82562  Biso   1.000  O
  O20      1.0000 0.79437  0.89348  0.67438  Biso   1.000  O
  H1       1.0000 0.79850  0.64230  0.23020  Biso   1.000  H
  H2       1.0000 0.20150  0.14230  0.26980  Biso   1.000  H
  H3       1.0000 0.20150  0.35770  0.76980  Biso   1.000  H
  H4       1.0000 0.79850  0.85770  0.73020  Biso   1.000  H
  N1       1.0000 0.65701  0.40463  0.21838  Biso   1.000  N
  N2       1.0000 0.34299  0.90463  0.28162  Biso   1.000  N
  N3       1.0000 0.34299  0.59537  0.78162  Biso   1.000  N
  N4       1.0000 0.65701  0.09537  0.71838  Biso   1.000  N
  N5       1.0000 0.83376  0.42452  0.33476  Biso   1.000  N
  N6       1.0000 0.16624  0.92452  0.16524  Biso   1.000  N
  N7       1.0000 0.16624  0.57548  0.66524  Biso   1.000  N
  N8       1.0000 0.83376  0.07548  0.83476  Biso   1.000  N
  N9       1.0000 0.93067  0.45505  0.19294  Biso   1.000  N
  N10      1.0000 0.06933  0.95505  0.30706  Biso   1.000  N
  N11      1.0000 0.06933  0.54495  0.80706  Biso   1.000  N
  N12      1.0000 0.93067  0.04495  0.69294  Biso   1.000  N
  H5       1.0000 0.94990  0.39690  0.17240  Biso   1.000  H
  H6       1.0000 0.05010  0.89690  0.32760  Biso   1.000  H
  H7       1.0000 0.05010  0.60310  0.82760  Biso   1.000  H
  H8       1.0000 0.94990  0.10310  0.67240  Biso   1.000  H
  N13      1.0000 0.48995  0.13203  0.96801  Biso   1.000  N
  N14      1.0000 0.51005  0.63203  0.53199  Biso   1.000  N
  N15      1.0000 0.51005  0.86797  0.03199  Biso   1.000  N
  N16      1.0000 0.48995  0.36797  0.46801  Biso   1.000  N
  N17      1.0000 0.66460  0.13029  0.08954  Biso   1.000  N
  N18      1.0000 0.33540  0.63029  0.41046  Biso   1.000  N
  N19      1.0000 0.33540  0.86971  0.91046  Biso   1.000  N
  N20      1.0000 0.66460  0.36971  0.58954  Biso   1.000  N
  C1       1.0000 0.66850  0.35190  0.03864  Biso   1.000  C
  C2       1.0000 0.33150  0.85190  0.46136  Biso   1.000  C
  C3       1.0000 0.33150  0.64810  0.96136  Biso   1.000  C
  C4       1.0000 0.66850  0.14810  0.53864  Biso   1.000  C
  C5       1.0000 0.57310  0.37510  0.06236  Biso   1.000  C
  C6       1.0000 0.42690  0.87510  0.43764  Biso   1.000  C
  C7       1.0000 0.42690  0.62490  0.93764  Biso   1.000  C
  C8       1.0000 0.57310  0.12490  0.56236  Biso   1.000  C
  C9       1.0000 0.56670  0.39877  0.14740  Biso   1.000  C
  C10      1.0000 0.43330  0.89877  0.35260  Biso   1.000  C
  C11      1.0000 0.43330  0.60123  0.85260  Biso   1.000  C
  C12      1.0000 0.56670  0.10123  0.64740  Biso   1.000  C
  C13      1.0000 0.47300  0.41790  0.15974  Biso   1.000  C
  C14      1.0000 0.52700  0.91790  0.34026  Biso   1.000  C
  C15      1.0000 0.52700  0.58210  0.84026  Biso   1.000  C
  C16      1.0000 0.47300  0.08210  0.65974  Biso   1.000  C
  H9       1.0000 0.46840  0.43280  0.21580  Biso   1.000  H
  H10      1.0000 0.53160  0.93280  0.28420  Biso   1.000  H
  H11      1.0000 0.53160  0.56720  0.78420  Biso   1.000  H
  H12      1.0000 0.46840  0.06720  0.71580  Biso   1.000  H
  C17      1.0000 0.38670  0.41530  0.09030  Biso   1.000  C
  C18      1.0000 0.61330  0.91530  0.40970  Biso   1.000  C
  C19      1.0000 0.61330  0.58470  0.90970  Biso   1.000  C
  C20      1.0000 0.38670  0.08470  0.59030  Biso   1.000  C
  H13      1.0000 0.32470  0.42900  0.09970  Biso   1.000  H
  H14      1.0000 0.67530  0.92900  0.40030  Biso   1.000  H
  H15      1.0000 0.67530  0.57100  0.90030  Biso   1.000  H
  H16      1.0000 0.32470  0.07100  0.59970  Biso   1.000  H
  C21      1.0000 0.39250  0.39230  0.00730  Biso   1.000  C
  C22      1.0000 0.60750  0.89230  0.49270  Biso   1.000  C
  C23      1.0000 0.60750  0.60770  0.99270  Biso   1.000  C
  C24      1.0000 0.39250  0.10770  0.50730  Biso   1.000  C
  H17      1.0000 0.33450  0.39000  0.96030  Biso   1.000  H
  H18      1.0000 0.66550  0.89000  0.53970  Biso   1.000  H
  H19      1.0000 0.66550  0.61000  0.03970  Biso   1.000  H
  H20      1.0000 0.33450  0.11000  0.46030  Biso   1.000  H
  C25      1.0000 0.48360  0.37300  0.99438  Biso   1.000  C
  C26      1.0000 0.51640  0.87300  0.50562  Biso   1.000  C
  C27      1.0000 0.51640  0.62700  0.00562  Biso   1.000  C
  C28      1.0000 0.48360  0.12700  0.49438  Biso   1.000  C
  H21      1.0000 0.48650  0.35770  0.93790  Biso   1.000  H
  H22      1.0000 0.51350  0.85770  0.56210  Biso   1.000  H
  H23      1.0000 0.51350  0.64230  0.06210  Biso   1.000  H
  H24      1.0000 0.48650  0.14230  0.43790  Biso   1.000  H
  C29      1.0000 0.65800  0.39273  0.30043  Biso   1.000  C
  C30      1.0000 0.34200  0.89273  0.19957  Biso   1.000  C
  C31      1.0000 0.34200  0.60727  0.69957  Biso   1.000  C
  C32      1.0000 0.65800  0.10727  0.80043  Biso   1.000  C
  C33      1.0000 0.75990  0.40730  0.36695  Biso   1.000  C
  C34      1.0000 0.24010  0.90730  0.13305  Biso   1.000  C
  C35      1.0000 0.24010  0.59270  0.63305  Biso   1.000  C
  C36      1.0000 0.75990  0.09270  0.86695  Biso   1.000  C
  C37      1.0000 0.93540  0.43550  0.39540  Biso   1.000  C
  C38      1.0000 0.06460  0.93550  0.10460  Biso   1.000  C
  C39      1.0000 0.06460  0.56450  0.60460  Biso   1.000  C
  C40      1.0000 0.93540  0.06450  0.89540  Biso   1.000  C
  H25      1.0000 0.94290  0.39030  0.44480  Biso   1.000  H
  H26      1.0000 0.05710  0.89030  0.05520  Biso   1.000  H
  H27      1.0000 0.05710  0.60970  0.55520  Biso   1.000  H
  H28      1.0000 0.94290  0.10970  0.94480  Biso   1.000  H
  H29      1.0000 0.94420  0.50350  0.41800  Biso   1.000  H
  H30      1.0000 0.05580  0.00350  0.08200  Biso   1.000  H
  H31      1.0000 0.05580  0.49650  0.58200  Biso   1.000  H
  H32      1.0000 0.94420  0.99650  0.91800  Biso   1.000  H
  C41      1.0000 0.01410  0.41290  0.35040  Biso   1.000  C
  C42      1.0000 0.98590  0.91290  0.14960  Biso   1.000  C
  C43      1.0000 0.98590  0.58710  0.64960  Biso   1.000  C
  C44      1.0000 0.01410  0.08710  0.85040  Biso   1.000  C
  H33      1.0000 0.00570  0.34410  0.32980  Biso   1.000  H
  H34      1.0000 0.99430  0.84410  0.17020  Biso   1.000  H
  H35      1.0000 0.99430  0.65590  0.67020  Biso   1.000  H
  H36      1.0000 0.00570  0.15590  0.82980  Biso   1.000  H
  H37      1.0000 0.07960  0.41810  0.39300  Biso   1.000  H
  H38      1.0000 0.92040  0.91810  0.10700  Biso   1.000  H
  H39      1.0000 0.92040  0.58190  0.60700  Biso   1.000  H
  H40      1.0000 0.07960  0.08190  0.89300  Biso   1.000  H
  C45      1.0000 0.01250  0.48070  0.27330  Biso   1.000  C
  C46      1.0000 0.98750  0.98070  0.22670  Biso   1.000  C
  C47      1.0000 0.98750  0.51930  0.72670  Biso   1.000  C
  C48      1.0000 0.01250  0.01930  0.77330  Biso   1.000  C
  H41      1.0000 0.00400  0.54960  0.28960  Biso   1.000  H
  H42      1.0000 0.99600  0.04960  0.21040  Biso   1.000  H
  H43      1.0000 0.99600  0.45040  0.71040  Biso   1.000  H
  H44      1.0000 0.00400  0.95040  0.78960  Biso   1.000  H
  H45      1.0000 0.07670  0.47590  0.26030  Biso   1.000  H
  H46      1.0000 0.92330  0.97590  0.23970  Biso   1.000  H
  H47      1.0000 0.92330  0.52410  0.73970  Biso   1.000  H
  H48      1.0000 0.07670  0.02410  0.76030  Biso   1.000  H
  C49      1.0000 0.92250  0.53020  0.12240  Biso   1.000  C
  C50      1.0000 0.07750  0.03020  0.37760  Biso   1.000  C
  C51      1.0000 0.07750  0.46980  0.87760  Biso   1.000  C
  C52      1.0000 0.92250  0.96980  0.62240  Biso   1.000  C
  H49      1.0000 0.87930  0.50440  0.06760  Biso   1.000  H
  H50      1.0000 0.12070  0.00440  0.43240  Biso   1.000  H
  H51      1.0000 0.12070  0.49560  0.93240  Biso   1.000  H
  H52      1.0000 0.87930  0.99560  0.56760  Biso   1.000  H
  H53      1.0000 0.98850  0.54210  0.11450  Biso   1.000  H
  H54      1.0000 0.01150  0.04210  0.38550  Biso   1.000  H
  H55      1.0000 0.01150  0.45790  0.88550  Biso   1.000  H
  H56      1.0000 0.98850  0.95790  0.61450  Biso   1.000  H
  C53      1.0000 0.88050  0.62670  0.14470  Biso   1.000  C
  C54      1.0000 0.11950  0.12670  0.35530  Biso   1.000  C
  C55      1.0000 0.11950  0.37330  0.85530  Biso   1.000  C
  C56      1.0000 0.88050  0.87330  0.64470  Biso   1.000  C
  H57      1.0000 0.93090  0.66130  0.19030  Biso   1.000  H
  H58      1.0000 0.06910  0.16130  0.30970  Biso   1.000  H
  H59      1.0000 0.06910  0.33870  0.80970  Biso   1.000  H
  H60      1.0000 0.93090  0.83870  0.69030  Biso   1.000  H
  H61      1.0000 0.86180  0.66960  0.09330  Biso   1.000  H
  H62      1.0000 0.13820  0.16960  0.40670  Biso   1.000  H
  H63      1.0000 0.13820  0.33040  0.90670  Biso   1.000  H
  H64      1.0000 0.86180  0.83040  0.59330  Biso   1.000  H
  C57      1.0000 0.40380  0.13490  0.90420  Biso   1.000  C
  C58      1.0000 0.59620  0.63490  0.59580  Biso   1.000  C
  C59      1.0000 0.59620  0.86510  0.09580  Biso   1.000  C
  C60      1.0000 0.40380  0.36510  0.40420  Biso   1.000  C
  H65      1.0000 0.40540  0.13580  0.84600  Biso   1.000  H
  H66      1.0000 0.59460  0.63580  0.65400  Biso   1.000  H
  H67      1.0000 0.59460  0.86420  0.15400  Biso   1.000  H
  H68      1.0000 0.40540  0.36420  0.34600  Biso   1.000  H
  C61      1.0000 0.31160  0.13670  0.92260  Biso   1.000  C
  C62      1.0000 0.68840  0.63670  0.57740  Biso   1.000  C
  C63      1.0000 0.68840  0.86330  0.07740  Biso   1.000  C
  C64      1.0000 0.31160  0.36330  0.42260  Biso   1.000  C
  H69      1.0000 0.25250  0.13820  0.87680  Biso   1.000  H
  H70      1.0000 0.74750  0.63820  0.62320  Biso   1.000  H
  H71      1.0000 0.74750  0.86180  0.12320  Biso   1.000  H
  H72      1.0000 0.25250  0.36180  0.37680  Biso   1.000  H
  C65      1.0000 0.30700  0.13620  0.00770  Biso   1.000  C
  C66      1.0000 0.69300  0.63620  0.49230  Biso   1.000  C
  C67      1.0000 0.69300  0.86380  0.99230  Biso   1.000  C
  C68      1.0000 0.30700  0.36380  0.50770  Biso   1.000  C
  H73      1.0000 0.24510  0.13700  0.01990  Biso   1.000  H
  H74      1.0000 0.75490  0.63700  0.48010  Biso   1.000  H
  H75      1.0000 0.75490  0.86300  0.98010  Biso   1.000  H
  H76      1.0000 0.24510  0.36300  0.51990  Biso   1.000  H
  C69      1.0000 0.39680  0.13460  0.07650  Biso   1.000  C
  C70      1.0000 0.60320  0.63460  0.42350  Biso   1.000  C
  C71      1.0000 0.60320  0.86540  0.92350  Biso   1.000  C
  C72      1.0000 0.39680  0.36540  0.57650  Biso   1.000  C
  C73      1.0000 0.40250  0.13930  0.16730  Biso   1.000  C
  C74      1.0000 0.59750  0.63930  0.33270  Biso   1.000  C
  C75      1.0000 0.59750  0.86070  0.83270  Biso   1.000  C
  C76      1.0000 0.40250  0.36070  0.66730  Biso   1.000  C
  H77      1.0000 0.34340  0.14140  0.18410  Biso   1.000  H
  H78      1.0000 0.65660  0.64140  0.31590  Biso   1.000  H
  H79      1.0000 0.65660  0.85860  0.81590  Biso   1.000  H
  H80      1.0000 0.34340  0.35860  0.68410  Biso   1.000  H
  C77      1.0000 0.49100  0.14080  0.22950  Biso   1.000  C
  C78      1.0000 0.50900  0.64080  0.27050  Biso   1.000  C
  C79      1.0000 0.50900  0.85920  0.77050  Biso   1.000  C
  C80      1.0000 0.49100  0.35920  0.72950  Biso   1.000  C
  H81      1.0000 0.49180  0.14400  0.28830  Biso   1.000  H
  H82      1.0000 0.50820  0.64400  0.21170  Biso   1.000  H
  H83      1.0000 0.50820  0.85600  0.71170  Biso   1.000  H
  H84      1.0000 0.49180  0.35600  0.78830  Biso   1.000  H
  C81      1.0000 0.58530  0.13750  0.20710  Biso   1.000  C
  C82      1.0000 0.41470  0.63750  0.29290  Biso   1.000  C
  C83      1.0000 0.41470  0.86250  0.79290  Biso   1.000  C
  C84      1.0000 0.58530  0.36250  0.70710  Biso   1.000  C
  C85      1.0000 0.68060  0.14040  0.26770  Biso   1.000  C
  C86      1.0000 0.31940  0.64040  0.23230  Biso   1.000  C
  C87      1.0000 0.31940  0.85960  0.73230  Biso   1.000  C
  C88      1.0000 0.68060  0.35960  0.76770  Biso   1.000  C
  H85      1.0000 0.68700  0.14290  0.32760  Biso   1.000  H
  H86      1.0000 0.31300  0.64290  0.17240  Biso   1.000  H
  H87      1.0000 0.31300  0.85710  0.67240  Biso   1.000  H
  H88      1.0000 0.68700  0.35710  0.82760  Biso   1.000  H
  C89      1.0000 0.76350  0.13940  0.23840  Biso   1.000  C
  C90      1.0000 0.23650  0.63940  0.26160  Biso   1.000  C
  C91      1.0000 0.23650  0.86060  0.76160  Biso   1.000  C
  C92      1.0000 0.76350  0.36060  0.73840  Biso   1.000  C
  H89      1.0000 0.82700  0.14210  0.27840  Biso   1.000  H
  H90      1.0000 0.17300  0.64210  0.22160  Biso   1.000  H
  H91      1.0000 0.17300  0.85790  0.72160  Biso   1.000  H
  H92      1.0000 0.82700  0.35790  0.77840  Biso   1.000  H
  C93      1.0000 0.75440  0.13450  0.14800  Biso   1.000  C
  C94      1.0000 0.24560  0.63450  0.35200  Biso   1.000  C
  C95      1.0000 0.24560  0.86550  0.85200  Biso   1.000  C
  C96      1.0000 0.75440  0.36550  0.64800  Biso   1.000  C
  H93      1.0000 0.81200  0.13410  0.12880  Biso   1.000  H
  H94      1.0000 0.18800  0.63410  0.37120  Biso   1.000  H
  H95      1.0000 0.18800  0.86590  0.87120  Biso   1.000  H
  H96      1.0000 0.81200  0.36590  0.62880  Biso   1.000  H
  C97      1.0000 0.58130  0.13160  0.11827  Biso   1.000  C
  C98      1.0000 0.41870  0.63160  0.38173  Biso   1.000  C
  C99      1.0000 0.41870  0.86840  0.88173  Biso   1.000  C
  C100     1.0000 0.58130  0.36840  0.61827  Biso   1.000  C
  C101     1.0000 0.48620  0.13180  0.05230  Biso   1.000  C
  C102     1.0000 0.51380  0.63180  0.44770  Biso   1.000  C
  C103     1.0000 0.51380  0.86820  0.94770  Biso   1.000  C
  C104     1.0000 0.48620  0.36820  0.55230  Biso   1.000  C
  O21      1.0000 0.87650  0.33010  0.94310  Biso   1.000  O
  O22      1.0000 0.12350  0.83010  0.55690  Biso   1.000  O
  O23      1.0000 0.12350  0.66990  0.05690  Biso   1.000  O
  O24      1.0000 0.87650  0.16990  0.44310  Biso   1.000  O
  H97      1.0000 0.81660  0.30500  0.95770  Biso   1.000  H
  H98      1.0000 0.18340  0.80500  0.54230  Biso   1.000  H
  H99      1.0000 0.18340  0.69500  0.04230  Biso   1.000  H
  H100     1.0000 0.81660  0.19500  0.45770  Biso   1.000  H
  H101     1.0000 0.93290  0.30410  0.98600  Biso   1.000  H
  H102     1.0000 0.06710  0.80410  0.51400  Biso   1.000  H
  H103     1.0000 0.06710  0.69590  0.01400  Biso   1.000  H
  H104     1.0000 0.93290  0.19590  0.48600  Biso   1.000  H
  Cl1      1.0000 0.89131  0.76930  0.36933  Biso   1.000  Cl
  Cl2      1.0000 0.10869  0.26930  0.13067  Biso   1.000  Cl
  Cl3      1.0000 0.10869  0.23070  0.63067  Biso   1.000  Cl
  Cl4      1.0000 0.89131  0.73070  0.86933  Biso   1.000  Cl
  O25      1.0000 0.98360  0.75380  0.35080  Biso   1.000  O
  O26      1.0000 0.01640  0.25380  0.14920  Biso   1.000  O
  O27      1.0000 0.01640  0.24620  0.64920  Biso   1.000  O
  O28      1.0000 0.98360  0.74620  0.85080  Biso   1.000  O
  O29      1.0000 0.81110  0.76900  0.29440  Biso   1.000  O
  O30      1.0000 0.18890  0.26900  0.20560  Biso   1.000  O
  O31      1.0000 0.18890  0.23100  0.70560  Biso   1.000  O
  O32      1.0000 0.81110  0.73100  0.79440  Biso   1.000  O
  O33      1.0000 0.89530  0.86810  0.40420  Biso   1.000  O
  O34      1.0000 0.10470  0.36810  0.09580  Biso   1.000  O
  O35      1.0000 0.10470  0.13190  0.59580  Biso   1.000  O
  O36      1.0000 0.89530  0.63190  0.90420  Biso   1.000  O
  O37      1.0000 0.88170  0.69960  0.43070  Biso   1.000  O
  O38      1.0000 0.11830  0.19960  0.06930  Biso   1.000  O
  O39      1.0000 0.11830  0.30040  0.56930  Biso   1.000  O
  O40      1.0000 0.88170  0.80040  0.93070  Biso   1.000  O
  O41      1.0000 0.83540  0.84070  0.31170  Biso   1.000  O
  O42      1.0000 0.16460  0.34070  0.18830  Biso   1.000  O
  O43      1.0000 0.16460  0.15930  0.68830  Biso   1.000  O
  O44      1.0000 0.83540  0.65930  0.81170  Biso   1.000  O
  O45      1.0000 0.89930  0.78430  0.45640  Biso   1.000  O
  O46      1.0000 0.10070  0.28430  0.04360  Biso   1.000  O
  O47      1.0000 0.10070  0.21570  0.54360  Biso   1.000  O
  O48      1.0000 0.89930  0.71570  0.95640  Biso   1.000  O
  O49      1.0000 0.83880  0.67810  0.34810  Biso   1.000  O
  O50      1.0000 0.16120  0.17810  0.15190  Biso   1.000  O
  O51      1.0000 0.16120  0.32190  0.65190  Biso   1.000  O
  O52      1.0000 0.83880  0.82190  0.84810  Biso   1.000  O
