data_image0
_cell_length_a       14.3396
_cell_length_b       9.6044
_cell_length_c       26.1937
_cell_angle_alpha    90
_cell_angle_beta     90
_cell_angle_gamma    90

_symmetry_space_group_name_H-M    "P 1"
_symmetry_int_tables_number       1

loop_
  _symmetry_equiv_pos_as_xyz
  'x, y, z'

loop_
  _atom_site_label
  _atom_site_occupancy
  _atom_site_fract_x
  _atom_site_fract_y
  _atom_site_fract_z
  _atom_site_thermal_displace_type
  _atom_site_B_iso_or_equiv
  _atom_site_type_symbol
  Br1      1.0000 0.80025  0.46940  0.34931  Biso   1.000  Br
  Br2      1.0000 0.69975  0.53060  0.84931  Biso   1.000  Br
  Br3      1.0000 0.19975  0.96940  0.15069  Biso   1.000  Br
  Br4      1.0000 0.30025  0.03060  0.65069  Biso   1.000  Br
  Br5      1.0000 0.19975  0.53060  0.65069  Biso   1.000  Br
  Br6      1.0000 0.30025  0.46940  0.15069  Biso   1.000  Br
  Br7      1.0000 0.80025  0.03060  0.84931  Biso   1.000  Br
  Br8      1.0000 0.69975  0.96940  0.34931  Biso   1.000  Br
  Cu1      1.0000 0.00000  0.00000  0.50000  Biso   1.000  Cu
  Cu2      1.0000 0.50000  0.00000  0.00000  Biso   1.000  Cu
  Cu3      1.0000 0.00000  0.50000  0.00000  Biso   1.000  Cu
  Cu4      1.0000 0.50000  0.50000  0.50000  Biso   1.000  Cu
  Fe1      1.0000 0.89683  0.91106  0.69696  Biso   1.000  Fe
  Fe2      1.0000 0.60317  0.08894  0.19696  Biso   1.000  Fe
  Fe3      1.0000 0.10317  0.41106  0.80304  Biso   1.000  Fe
  Fe4      1.0000 0.39683  0.58894  0.30304  Biso   1.000  Fe
  Fe5      1.0000 0.10317  0.08894  0.30304  Biso   1.000  Fe
  Fe6      1.0000 0.39683  0.91106  0.80304  Biso   1.000  Fe
  Fe7      1.0000 0.89683  0.58894  0.19696  Biso   1.000  Fe
  Fe8      1.0000 0.60317  0.41106  0.69696  Biso   1.000  Fe
  O1       1.0000 0.91968  0.84610  0.48276  Biso   1.000  O
  O2       1.0000 0.58032  0.15390  0.98276  Biso   1.000  O
  O3       1.0000 0.08032  0.34610  0.01724  Biso   1.000  O
  O4       1.0000 0.41968  0.65390  0.51724  Biso   1.000  O
  O5       1.0000 0.08032  0.15390  0.51724  Biso   1.000  O
  O6       1.0000 0.41968  0.84610  0.01724  Biso   1.000  O
  O7       1.0000 0.91968  0.65390  0.98276  Biso   1.000  O
  O8       1.0000 0.58032  0.34610  0.48276  Biso   1.000  O
  O9       1.0000 0.94225  0.02650  0.56636  Biso   1.000  O
  O10      1.0000 0.55775  0.97350  0.06636  Biso   1.000  O
  O11      1.0000 0.05775  0.52650  0.93364  Biso   1.000  O
  O12      1.0000 0.44225  0.47350  0.43364  Biso   1.000  O
  O13      1.0000 0.05775  0.97350  0.43364  Biso   1.000  O
  O14      1.0000 0.44225  0.02650  0.93364  Biso   1.000  O
  O15      1.0000 0.94225  0.47350  0.06636  Biso   1.000  O
  O16      1.0000 0.55775  0.52650  0.56636  Biso   1.000  O
  Cl1      1.0000 0.43713  0.03110  0.41595  Biso   1.000  Cl
  Cl2      1.0000 0.06287  0.96890  0.91595  Biso   1.000  Cl
  Cl3      1.0000 0.56287  0.53110  0.08405  Biso   1.000  Cl
  Cl4      1.0000 0.93713  0.46890  0.58405  Biso   1.000  Cl
  Cl5      1.0000 0.56287  0.96890  0.58405  Biso   1.000  Cl
  Cl6      1.0000 0.93713  0.03110  0.08405  Biso   1.000  Cl
  Cl7      1.0000 0.43713  0.46890  0.91595  Biso   1.000  Cl
  Cl8      1.0000 0.06287  0.53110  0.41595  Biso   1.000  Cl
  Cl9      1.0000 0.51993  0.01900  0.51718  Biso   1.000  Cl
  Cl10     1.0000 0.98007  0.98100  0.01718  Biso   1.000  Cl
  Cl11     1.0000 0.48007  0.51900  0.98282  Biso   1.000  Cl
  Cl12     1.0000 0.01993  0.48100  0.48282  Biso   1.000  Cl
  Cl13     1.0000 0.48007  0.98100  0.48282  Biso   1.000  Cl
  Cl14     1.0000 0.01993  0.01900  0.98282  Biso   1.000  Cl
  Cl15     1.0000 0.51993  0.48100  0.01718  Biso   1.000  Cl
  Cl16     1.0000 0.98007  0.51900  0.51718  Biso   1.000  Cl
  C1       1.0000 0.50720  0.93330  0.45640  Biso   1.000  C
  C2       1.0000 0.99280  0.06670  0.95640  Biso   1.000  C
  C3       1.0000 0.49280  0.43330  0.04360  Biso   1.000  C
  C4       1.0000 0.00720  0.56670  0.54360  Biso   1.000  C
  C5       1.0000 0.49280  0.06670  0.54360  Biso   1.000  C
  C6       1.0000 0.00720  0.93330  0.04360  Biso   1.000  C
  C7       1.0000 0.50720  0.56670  0.95640  Biso   1.000  C
  C8       1.0000 0.99280  0.43330  0.45640  Biso   1.000  C
  N1       1.0000 0.62597  0.63440  0.45781  Biso   1.000  N
  N2       1.0000 0.87403  0.36560  0.95781  Biso   1.000  N
  N3       1.0000 0.37403  0.13440  0.04219  Biso   1.000  N
  N4       1.0000 0.12597  0.86560  0.54219  Biso   1.000  N
  N5       1.0000 0.37403  0.36560  0.54219  Biso   1.000  N
  N6       1.0000 0.12597  0.63440  0.04219  Biso   1.000  N
  N7       1.0000 0.62597  0.86560  0.95781  Biso   1.000  N
  N8       1.0000 0.87403  0.13440  0.45781  Biso   1.000  N
  C9       1.0000 0.75399  0.57460  0.40498  Biso   1.000  C
  C10      1.0000 0.74601  0.42540  0.90498  Biso   1.000  C
  C11      1.0000 0.24601  0.07460  0.09502  Biso   1.000  C
  C12      1.0000 0.25399  0.92540  0.59502  Biso   1.000  C
  C13      1.0000 0.24601  0.42540  0.59502  Biso   1.000  C
  C14      1.0000 0.25399  0.57460  0.09502  Biso   1.000  C
  C15      1.0000 0.75399  0.92540  0.90498  Biso   1.000  C
  C16      1.0000 0.74601  0.07460  0.40498  Biso   1.000  C
  C17      1.0000 0.66139  0.56530  0.41816  Biso   1.000  C
  C18      1.0000 0.83861  0.43470  0.91816  Biso   1.000  C
  C19      1.0000 0.33861  0.06530  0.08184  Biso   1.000  C
  C20      1.0000 0.16139  0.93470  0.58184  Biso   1.000  C
  C21      1.0000 0.33861  0.43470  0.58184  Biso   1.000  C
  C22      1.0000 0.16139  0.56530  0.08184  Biso   1.000  C
  C23      1.0000 0.66139  0.93470  0.91816  Biso   1.000  C
  C24      1.0000 0.83861  0.06530  0.41816  Biso   1.000  C
  H1       1.0000 0.62220  0.50900  0.39880  Biso   1.000  H
  H2       1.0000 0.87780  0.49100  0.89880  Biso   1.000  H
  H3       1.0000 0.37780  0.00900  0.10120  Biso   1.000  H
  H4       1.0000 0.12220  0.99100  0.60120  Biso   1.000  H
  H5       1.0000 0.37780  0.49100  0.60120  Biso   1.000  H
  H6       1.0000 0.12220  0.50900  0.10120  Biso   1.000  H
  H7       1.0000 0.62220  0.99100  0.89880  Biso   1.000  H
  H8       1.0000 0.87780  0.00900  0.39880  Biso   1.000  H
  C25      1.0000 0.68347  0.71310  0.48583  Biso   1.000  C
  C26      1.0000 0.81653  0.28690  0.98583  Biso   1.000  C
  C27      1.0000 0.31653  0.21310  0.01417  Biso   1.000  C
  C28      1.0000 0.18347  0.78690  0.51417  Biso   1.000  C
  C29      1.0000 0.31653  0.28690  0.51417  Biso   1.000  C
  C30      1.0000 0.18347  0.71310  0.01417  Biso   1.000  C
  C31      1.0000 0.68347  0.78690  0.98583  Biso   1.000  C
  C32      1.0000 0.81653  0.21310  0.48583  Biso   1.000  C
  H9       1.0000 0.65920  0.75960  0.51400  Biso   1.000  H
  H10      1.0000 0.84080  0.24040  0.01400  Biso   1.000  H
  H11      1.0000 0.34080  0.25960  0.98600  Biso   1.000  H
  H12      1.0000 0.15920  0.74040  0.48600  Biso   1.000  H
  H13      1.0000 0.34080  0.24040  0.48600  Biso   1.000  H
  H14      1.0000 0.15920  0.75960  0.98600  Biso   1.000  H
  H15      1.0000 0.65920  0.74040  0.01400  Biso   1.000  H
  H16      1.0000 0.84080  0.25960  0.51400  Biso   1.000  H
  C33      1.0000 0.77796  0.72880  0.47491  Biso   1.000  C
  C34      1.0000 0.72204  0.27120  0.97491  Biso   1.000  C
  C35      1.0000 0.22204  0.22880  0.02509  Biso   1.000  C
  C36      1.0000 0.27796  0.77120  0.52509  Biso   1.000  C
  C37      1.0000 0.22204  0.27120  0.52509  Biso   1.000  C
  C38      1.0000 0.27796  0.72880  0.02509  Biso   1.000  C
  C39      1.0000 0.77796  0.77120  0.97491  Biso   1.000  C
  C40      1.0000 0.72204  0.22880  0.47491  Biso   1.000  C
  C41      1.0000 0.84213  0.82120  0.50512  Biso   1.000  C
  C42      1.0000 0.65787  0.17880  0.00512  Biso   1.000  C
  C43      1.0000 0.15787  0.32120  0.99488  Biso   1.000  C
  C44      1.0000 0.34213  0.67880  0.49488  Biso   1.000  C
  C45      1.0000 0.15787  0.17880  0.49488  Biso   1.000  C
  C46      1.0000 0.34213  0.82120  0.99488  Biso   1.000  C
  C47      1.0000 0.84213  0.67880  0.00512  Biso   1.000  C
  C48      1.0000 0.65787  0.32120  0.50512  Biso   1.000  C
  C49      1.0000 0.81359  0.65820  0.43310  Biso   1.000  C
  C50      1.0000 0.68641  0.34180  0.93310  Biso   1.000  C
  C51      1.0000 0.18641  0.15820  0.06690  Biso   1.000  C
  C52      1.0000 0.31359  0.84180  0.56690  Biso   1.000  C
  C53      1.0000 0.18641  0.34180  0.56690  Biso   1.000  C
  C54      1.0000 0.31359  0.65820  0.06690  Biso   1.000  C
  C55      1.0000 0.81359  0.84180  0.93310  Biso   1.000  C
  C56      1.0000 0.68641  0.15820  0.43310  Biso   1.000  C
  H17      1.0000 0.87610  0.66670  0.42410  Biso   1.000  H
  H18      1.0000 0.62390  0.33330  0.92410  Biso   1.000  H
  H19      1.0000 0.12390  0.16670  0.07590  Biso   1.000  H
  H20      1.0000 0.37610  0.83330  0.57590  Biso   1.000  H
  H21      1.0000 0.12390  0.33330  0.57590  Biso   1.000  H
  H22      1.0000 0.37610  0.66670  0.07590  Biso   1.000  H
  H23      1.0000 0.87610  0.83330  0.92410  Biso   1.000  H
  H24      1.0000 0.62390  0.16670  0.42410  Biso   1.000  H
  C57      1.0000 0.81552  0.87080  0.55247  Biso   1.000  C
  C58      1.0000 0.68448  0.12920  0.05247  Biso   1.000  C
  C59      1.0000 0.18448  0.37080  0.94753  Biso   1.000  C
  C60      1.0000 0.31552  0.62920  0.44753  Biso   1.000  C
  C61      1.0000 0.18448  0.12920  0.44753  Biso   1.000  C
  C62      1.0000 0.31552  0.87080  0.94753  Biso   1.000  C
  C63      1.0000 0.81552  0.62920  0.05247  Biso   1.000  C
  C64      1.0000 0.68448  0.37080  0.55247  Biso   1.000  C
  H25      1.0000 0.75910  0.84010  0.56580  Biso   1.000  H
  H26      1.0000 0.74090  0.15990  0.06580  Biso   1.000  H
  H27      1.0000 0.24090  0.34010  0.93420  Biso   1.000  H
  H28      1.0000 0.25910  0.65990  0.43420  Biso   1.000  H
  H29      1.0000 0.24090  0.15990  0.43420  Biso   1.000  H
  H30      1.0000 0.25910  0.84010  0.93420  Biso   1.000  H
  H31      1.0000 0.75910  0.65990  0.06580  Biso   1.000  H
  H32      1.0000 0.74090  0.34010  0.56580  Biso   1.000  H
  C65      1.0000 0.86886  0.96540  0.58190  Biso   1.000  C
  C66      1.0000 0.63114  0.03460  0.08190  Biso   1.000  C
  C67      1.0000 0.13114  0.46540  0.91810  Biso   1.000  C
  C68      1.0000 0.36886  0.53460  0.41810  Biso   1.000  C
  C69      1.0000 0.13114  0.03460  0.41810  Biso   1.000  C
  C70      1.0000 0.36886  0.96540  0.91810  Biso   1.000  C
  C71      1.0000 0.86886  0.53460  0.08190  Biso   1.000  C
  C72      1.0000 0.63114  0.46540  0.58190  Biso   1.000  C
  C73      1.0000 0.83812  0.99990  0.63409  Biso   1.000  C
  C74      1.0000 0.66188  0.00010  0.13409  Biso   1.000  C
  C75      1.0000 0.16188  0.49990  0.86591  Biso   1.000  C
  C76      1.0000 0.33812  0.50010  0.36591  Biso   1.000  C
  C77      1.0000 0.16188  0.00010  0.36591  Biso   1.000  C
  C78      1.0000 0.33812  0.99990  0.86591  Biso   1.000  C
  C79      1.0000 0.83812  0.50010  0.13409  Biso   1.000  C
  C80      1.0000 0.66188  0.49990  0.63409  Biso   1.000  C
  C81      1.0000 0.88014  0.10380  0.66578  Biso   1.000  C
  C82      1.0000 0.61986  0.89620  0.16578  Biso   1.000  C
  C83      1.0000 0.11986  0.60380  0.83422  Biso   1.000  C
  C84      1.0000 0.38014  0.39620  0.33422  Biso   1.000  C
  C85      1.0000 0.11986  0.89620  0.33422  Biso   1.000  C
  C86      1.0000 0.38014  0.10380  0.83422  Biso   1.000  C
  C87      1.0000 0.88014  0.39620  0.16578  Biso   1.000  C
  C88      1.0000 0.61986  0.60380  0.66578  Biso   1.000  C
  H33      1.0000 0.92780  0.16400  0.65620  Biso   1.000  H
  H34      1.0000 0.57220  0.83600  0.15620  Biso   1.000  H
  H35      1.0000 0.07220  0.66400  0.84380  Biso   1.000  H
  H36      1.0000 0.42780  0.33600  0.34380  Biso   1.000  H
  H37      1.0000 0.07220  0.83600  0.34380  Biso   1.000  H
  H38      1.0000 0.42780  0.16400  0.84380  Biso   1.000  H
  H39      1.0000 0.92780  0.33600  0.15620  Biso   1.000  H
  H40      1.0000 0.57220  0.66400  0.65620  Biso   1.000  H
  C89      1.0000 0.83651  0.09910  0.71439  Biso   1.000  C
  C90      1.0000 0.66349  0.90090  0.21439  Biso   1.000  C
  C91      1.0000 0.16349  0.59910  0.78561  Biso   1.000  C
  C92      1.0000 0.33651  0.40090  0.28561  Biso   1.000  C
  C93      1.0000 0.16349  0.90090  0.28561  Biso   1.000  C
  C94      1.0000 0.33651  0.09910  0.78561  Biso   1.000  C
  C95      1.0000 0.83651  0.40090  0.21439  Biso   1.000  C
  C96      1.0000 0.66349  0.59910  0.71439  Biso   1.000  C
  H41      1.0000 0.85000  0.15620  0.74210  Biso   1.000  H
  H42      1.0000 0.65000  0.84380  0.24210  Biso   1.000  H
  H43      1.0000 0.15000  0.65620  0.75790  Biso   1.000  H
  H44      1.0000 0.35000  0.34380  0.25790  Biso   1.000  H
  H45      1.0000 0.15000  0.84380  0.25790  Biso   1.000  H
  H46      1.0000 0.35000  0.15620  0.75790  Biso   1.000  H
  H47      1.0000 0.85000  0.34380  0.24210  Biso   1.000  H
  H48      1.0000 0.65000  0.65620  0.74210  Biso   1.000  H
  C97      1.0000 0.92880  0.70360  0.69855  Biso   1.000  C
  C98      1.0000 0.57120  0.29640  0.19855  Biso   1.000  C
  C99      1.0000 0.07120  0.20360  0.80145  Biso   1.000  C
  C100     1.0000 0.42880  0.79640  0.30145  Biso   1.000  C
  C101     1.0000 0.07120  0.29640  0.30145  Biso   1.000  C
  C102     1.0000 0.42880  0.70360  0.80145  Biso   1.000  C
  C103     1.0000 0.92880  0.79640  0.19855  Biso   1.000  C
  C104     1.0000 0.57120  0.20360  0.69855  Biso   1.000  C
  H49      1.0000 0.89330  0.63190  0.68470  Biso   1.000  H
  H50      1.0000 0.60670  0.36810  0.18470  Biso   1.000  H
  H51      1.0000 0.10670  0.13190  0.81530  Biso   1.000  H
  H52      1.0000 0.39330  0.86810  0.31530  Biso   1.000  H
  H53      1.0000 0.10670  0.36810  0.31530  Biso   1.000  H
  H54      1.0000 0.39330  0.63190  0.81530  Biso   1.000  H
  H55      1.0000 0.89330  0.86810  0.18470  Biso   1.000  H
  H56      1.0000 0.60670  0.13190  0.68470  Biso   1.000  H
  C105     1.0000 0.99990  0.77940  0.67288  Biso   1.000  C
  C106     1.0000 0.50010  0.22060  0.17288  Biso   1.000  C
  C107     1.0000 0.00010  0.27940  0.82712  Biso   1.000  C
  C108     1.0000 0.49990  0.72060  0.32712  Biso   1.000  C
  C109     1.0000 0.00010  0.22060  0.32712  Biso   1.000  C
  C110     1.0000 0.49990  0.77940  0.82712  Biso   1.000  C
  C111     1.0000 0.99990  0.72060  0.17288  Biso   1.000  C
  C112     1.0000 0.50010  0.27940  0.67288  Biso   1.000  C
  H57      1.0000 0.01890  0.76630  0.63930  Biso   1.000  H
  H58      1.0000 0.48110  0.23370  0.13930  Biso   1.000  H
  H59      1.0000 0.98110  0.26630  0.86070  Biso   1.000  H
  H60      1.0000 0.51890  0.73370  0.36070  Biso   1.000  H
  H61      1.0000 0.98110  0.23370  0.36070  Biso   1.000  H
  H62      1.0000 0.51890  0.76630  0.86070  Biso   1.000  H
  H63      1.0000 0.01890  0.73370  0.13930  Biso   1.000  H
  H64      1.0000 0.48110  0.26630  0.63930  Biso   1.000  H
  C113     1.0000 0.03668  0.87900  0.70769  Biso   1.000  C
  C114     1.0000 0.46332  0.12100  0.20769  Biso   1.000  C
  C115     1.0000 0.96332  0.37900  0.79231  Biso   1.000  C
  C116     1.0000 0.53668  0.62100  0.29231  Biso   1.000  C
  C117     1.0000 0.96332  0.12100  0.29231  Biso   1.000  C
  C118     1.0000 0.53668  0.87900  0.79231  Biso   1.000  C
  C119     1.0000 0.03668  0.62100  0.20769  Biso   1.000  C
  C120     1.0000 0.46332  0.37900  0.70769  Biso   1.000  C
  H65      1.0000 0.08420  0.94230  0.70090  Biso   1.000  H
  H66      1.0000 0.41580  0.05770  0.20090  Biso   1.000  H
  H67      1.0000 0.91580  0.44230  0.79910  Biso   1.000  H
  H68      1.0000 0.58420  0.55770  0.29910  Biso   1.000  H
  H69      1.0000 0.91580  0.05770  0.29910  Biso   1.000  H
  H70      1.0000 0.58420  0.94230  0.79910  Biso   1.000  H
  H71      1.0000 0.08420  0.55770  0.20090  Biso   1.000  H
  H72      1.0000 0.41580  0.44230  0.70090  Biso   1.000  H
  C121     1.0000 0.98830  0.86480  0.75452  Biso   1.000  C
  C122     1.0000 0.51170  0.13520  0.25452  Biso   1.000  C
  C123     1.0000 0.01170  0.36480  0.74548  Biso   1.000  C
  C124     1.0000 0.48830  0.63520  0.24548  Biso   1.000  C
  C125     1.0000 0.01170  0.13520  0.24548  Biso   1.000  C
  C126     1.0000 0.48830  0.86480  0.74548  Biso   1.000  C
  C127     1.0000 0.98830  0.63520  0.25452  Biso   1.000  C
  C128     1.0000 0.51170  0.36480  0.75452  Biso   1.000  C
  H73      1.0000 0.99820  0.91720  0.78390  Biso   1.000  H
  H74      1.0000 0.50180  0.08280  0.28390  Biso   1.000  H
  H75      1.0000 0.00180  0.41720  0.71610  Biso   1.000  H
  H76      1.0000 0.49820  0.58280  0.21610  Biso   1.000  H
  H77      1.0000 0.00180  0.08280  0.21610  Biso   1.000  H
  H78      1.0000 0.49820  0.91720  0.71610  Biso   1.000  H
  H79      1.0000 0.99820  0.58280  0.28390  Biso   1.000  H
  H80      1.0000 0.50180  0.41720  0.78390  Biso   1.000  H
  C129     1.0000 0.92180  0.75620  0.74859  Biso   1.000  C
  C130     1.0000 0.57820  0.24380  0.24859  Biso   1.000  C
  C131     1.0000 0.07820  0.25620  0.75141  Biso   1.000  C
  C132     1.0000 0.42180  0.74380  0.25141  Biso   1.000  C
  C133     1.0000 0.07820  0.24380  0.25141  Biso   1.000  C
  C134     1.0000 0.42180  0.75620  0.75141  Biso   1.000  C
  C135     1.0000 0.92180  0.74380  0.24859  Biso   1.000  C
  C136     1.0000 0.57820  0.25620  0.74859  Biso   1.000  C
  H81      1.0000 0.88060  0.72510  0.77350  Biso   1.000  H
  H82      1.0000 0.61940  0.27490  0.27350  Biso   1.000  H
  H83      1.0000 0.11940  0.22510  0.72650  Biso   1.000  H
  H84      1.0000 0.38060  0.77490  0.22650  Biso   1.000  H
  H85      1.0000 0.11940  0.27490  0.22650  Biso   1.000  H
  H86      1.0000 0.38060  0.72510  0.72650  Biso   1.000  H
  H87      1.0000 0.88060  0.77490  0.27350  Biso   1.000  H
  H88      1.0000 0.61940  0.22510  0.77350  Biso   1.000  H
  C137     1.0000 0.76863  0.93030  0.66412  Biso   1.000  C
  C138     1.0000 0.73137  0.06970  0.16412  Biso   1.000  C
  C139     1.0000 0.23137  0.43030  0.83588  Biso   1.000  C
  C140     1.0000 0.26863  0.56970  0.33588  Biso   1.000  C
  C141     1.0000 0.23137  0.06970  0.33588  Biso   1.000  C
  C142     1.0000 0.26863  0.93030  0.83588  Biso   1.000  C
  C143     1.0000 0.76863  0.56970  0.16412  Biso   1.000  C
  C144     1.0000 0.73137  0.43030  0.66412  Biso   1.000  C
  H89      1.0000 0.73060  0.85780  0.65320  Biso   1.000  H
  H90      1.0000 0.76940  0.14220  0.15320  Biso   1.000  H
  H91      1.0000 0.26940  0.35780  0.84680  Biso   1.000  H
  H92      1.0000 0.23060  0.64220  0.34680  Biso   1.000  H
  H93      1.0000 0.26940  0.14220  0.34680  Biso   1.000  H
  H94      1.0000 0.23060  0.85780  0.84680  Biso   1.000  H
  H95      1.0000 0.73060  0.64220  0.15320  Biso   1.000  H
  H96      1.0000 0.76940  0.35780  0.65320  Biso   1.000  H
  C145     1.0000 0.76812  0.99110  0.71314  Biso   1.000  C
  C146     1.0000 0.73188  0.00890  0.21314  Biso   1.000  C
  C147     1.0000 0.23188  0.49110  0.78686  Biso   1.000  C
  C148     1.0000 0.26812  0.50890  0.28686  Biso   1.000  C
  C149     1.0000 0.23188  0.00890  0.28686  Biso   1.000  C
  C150     1.0000 0.26812  0.99110  0.78686  Biso   1.000  C
  C151     1.0000 0.76812  0.50890  0.21314  Biso   1.000  C
  C152     1.0000 0.73188  0.49110  0.71314  Biso   1.000  C
  H97      1.0000 0.72970  0.96510  0.74010  Biso   1.000  H
  H98      1.0000 0.77030  0.03490  0.24010  Biso   1.000  H
  H99      1.0000 0.27030  0.46510  0.75990  Biso   1.000  H
  H100     1.0000 0.22970  0.53490  0.25990  Biso   1.000  H
  H101     1.0000 0.27030  0.03490  0.25990  Biso   1.000  H
  H102     1.0000 0.22970  0.96510  0.75990  Biso   1.000  H
  H103     1.0000 0.72970  0.53490  0.24010  Biso   1.000  H
  H104     1.0000 0.77030  0.46510  0.74010  Biso   1.000  H
