data_image0
_cell_length_a       6.675
_cell_length_b       9.395
_cell_length_c       9.847
_cell_angle_alpha    84.1
_cell_angle_beta     80.1
_cell_angle_gamma    87.76

_symmetry_space_group_name_H-M    "P 1"
_symmetry_int_tables_number       1

loop_
  _symmetry_equiv_pos_as_xyz
  'x, y, z'

loop_
  _atom_site_label
  _atom_site_occupancy
  _atom_site_fract_x
  _atom_site_fract_y
  _atom_site_fract_z
  _atom_site_thermal_displace_type
  _atom_site_B_iso_or_equiv
  _atom_site_type_symbol
  Cu1      1.0000 0.47323  0.20887  0.32095  Biso   1.000  Cu
  Cu2      1.0000 0.52677  0.79113  0.67905  Biso   1.000  Cu
  O1       1.0000 0.21950  0.30067  0.39502  Biso   1.000  O
  O2       1.0000 0.78050  0.69933  0.60498  Biso   1.000  O
  O3       1.0000 0.60780  0.34625  0.40637  Biso   1.000  O
  O4       1.0000 0.39220  0.65375  0.59363  Biso   1.000  O
  O5       1.0000 0.87510  0.19450  0.54900  Biso   1.000  O
  O6       1.0000 0.12490  0.80550  0.45100  Biso   1.000  O
  O7       1.0000 0.96580  0.41140  0.23160  Biso   1.000  O
  O8       1.0000 0.03420  0.58860  0.76840  Biso   1.000  O
  O9       1.0000 0.08450  0.70000  0.18590  Biso   1.000  O
  O10      1.0000 0.91550  0.30000  0.81410  Biso   1.000  O
  O11      1.0000 0.06560  0.20000  0.05670  Biso   1.000  O
  O12      1.0000 0.93440  0.80000  0.94330  Biso   1.000  O
  N1       1.0000 0.33320  0.04010  0.26240  Biso   1.000  N
  N2       1.0000 0.66680  0.95990  0.73760  Biso   1.000  N
  N3       1.0000 0.72400  0.07580  0.29890  Biso   1.000  N
  N4       1.0000 0.27600  0.92420  0.70110  Biso   1.000  N
  N5       1.0000 0.51920  0.30990  0.08530  Biso   1.000  N
  N6       1.0000 0.48080  0.69010  0.91470  Biso   1.000  N
  C1       1.0000 0.25840  0.40670  0.47880  Biso   1.000  C
  C2       1.0000 0.74160  0.59330  0.52120  Biso   1.000  C
  C3       1.0000 0.46750  0.45610  0.45100  Biso   1.000  C
  C4       1.0000 0.53250  0.54390  0.54900  Biso   1.000  C
  C5       1.0000 0.49260  0.93910  0.20400  Biso   1.000  C
  C6       1.0000 0.50740  0.06090  0.79600  Biso   1.000  C
  C7       1.0000 0.65750  0.92960  0.29140  Biso   1.000  C
  C8       1.0000 0.34250  0.07040  0.70860  Biso   1.000  C
  C9       1.0000 0.51060  0.46660  0.07130  Biso   1.000  C
  C10      1.0000 0.48940  0.53340  0.92870  Biso   1.000  C
  H1       1.0000 0.29900  0.36800  0.57400  Biso   1.000  H
  H2       1.0000 0.70100  0.63200  0.42600  Biso   1.000  H
  H3       1.0000 0.17000  0.48800  0.46400  Biso   1.000  H
  H4       1.0000 0.83000  0.51200  0.53600  Biso   1.000  H
  H5       1.0000 0.46700  0.52700  0.37500  Biso   1.000  H
  H6       1.0000 0.53300  0.47300  0.62500  Biso   1.000  H
  H7       1.0000 0.56000  0.97300  0.10400  Biso   1.000  H
  H8       1.0000 0.44000  0.02700  0.89600  Biso   1.000  H
  H9       1.0000 0.43700  0.85100  0.20300  Biso   1.000  H
  H10      1.0000 0.56300  0.14900  0.79700  Biso   1.000  H
  H11      1.0000 0.77100  0.86000  0.25300  Biso   1.000  H
  H12      1.0000 0.22900  0.14000  0.74700  Biso   1.000  H
  H13      1.0000 0.61700  0.87900  0.39300  Biso   1.000  H
  H14      1.0000 0.38300  0.12100  0.60700  Biso   1.000  H
  H15      1.0000 0.64000  0.50100  0.09700  Biso   1.000  H
  H16      1.0000 0.36000  0.49900  0.90300  Biso   1.000  H
  H17      1.0000 0.40600  0.49300  0.13900  Biso   1.000  H
  H18      1.0000 0.59400  0.50700  0.86100  Biso   1.000  H
  H19      1.0000 0.25500  0.99000  0.33400  Biso   1.000  H
  H20      1.0000 0.74500  0.01000  0.66600  Biso   1.000  H
  H21      1.0000 0.26300  0.06400  0.20700  Biso   1.000  H
  H22      1.0000 0.73700  0.93600  0.79300  Biso   1.000  H
  H23      1.0000 0.79000  0.08100  0.37100  Biso   1.000  H
  H24      1.0000 0.21000  0.91900  0.62900  Biso   1.000  H
  H25      1.0000 0.80400  0.09700  0.22400  Biso   1.000  H
  H26      1.0000 0.19600  0.90300  0.77600  Biso   1.000  H
  H27      1.0000 0.62200  0.28100  0.03300  Biso   1.000  H
  H28      1.0000 0.37800  0.71900  0.96700  Biso   1.000  H
  H29      1.0000 0.41400  0.28700  0.05800  Biso   1.000  H
  H30      1.0000 0.58600  0.71300  0.94200  Biso   1.000  H
  H31      1.0000 0.80200  0.24000  0.52000  Biso   1.000  H
  H32      1.0000 0.19800  0.76000  0.48000  Biso   1.000  H
  H33      1.0000 0.98500  0.21200  0.50800  Biso   1.000  H
  H34      1.0000 0.01500  0.78800  0.49200  Biso   1.000  H
  H35      1.0000 0.04800  0.37900  0.28600  Biso   1.000  H
  H36      1.0000 0.95200  0.62100  0.71400  Biso   1.000  H
  H37      1.0000 0.85700  0.40500  0.28000  Biso   1.000  H
  H38      1.0000 0.14300  0.59500  0.72000  Biso   1.000  H
  H39      1.0000 0.03500  0.60000  0.20700  Biso   1.000  H
  H40      1.0000 0.96500  0.40000  0.79300  Biso   1.000  H
  H41      1.0000 0.09900  0.73300  0.27700  Biso   1.000  H
  H42      1.0000 0.90100  0.26700  0.72300  Biso   1.000  H
  H43      1.0000 0.02000  0.31000  0.11800  Biso   1.000  H
  H44      1.0000 0.98000  0.69000  0.88200  Biso   1.000  H
  H45      1.0000 0.03200  0.20900  0.96000  Biso   1.000  H
  H46      1.0000 0.96800  0.79100  0.04000  Biso   1.000  H
  H47      1.0000 0.04900  0.07000  0.04200  Biso   1.000  H
  H48      1.0000 0.95100  0.93000  0.95800  Biso   1.000  H
  H49      1.0000 0.00400  0.65800  0.04300  Biso   1.000  H
  H50      1.0000 0.99600  0.34200  0.95700  Biso   1.000  H
