data_image0
_cell_length_a       10.1761
_cell_length_b       16.5092
_cell_length_c       12.0372
_cell_angle_alpha    90
_cell_angle_beta     103.844
_cell_angle_gamma    90

_symmetry_space_group_name_H-M    "P 1"
_symmetry_int_tables_number       1

loop_
  _symmetry_equiv_pos_as_xyz
  'x, y, z'

loop_
  _atom_site_label
  _atom_site_occupancy
  _atom_site_fract_x
  _atom_site_fract_y
  _atom_site_fract_z
  _atom_site_thermal_displace_type
  _atom_site_B_iso_or_equiv
  _atom_site_type_symbol
  Cu1      1.0000 0.80636  0.24136  0.80151  Biso   1.000  Cu
  Cu2      1.0000 0.69364  0.74136  0.69849  Biso   1.000  Cu
  Cu3      1.0000 0.19364  0.75864  0.19849  Biso   1.000  Cu
  Cu4      1.0000 0.30636  0.25864  0.30151  Biso   1.000  Cu
  V1       1.0000 0.61028  0.41738  0.91849  Biso   1.000  V
  V2       1.0000 0.88972  0.91738  0.58151  Biso   1.000  V
  V3       1.0000 0.38972  0.58262  0.08151  Biso   1.000  V
  V4       1.0000 0.11028  0.08262  0.41849  Biso   1.000  V
  O1       1.0000 0.64852  0.33438  0.85877  Biso   1.000  O
  O2       1.0000 0.85148  0.83438  0.64123  Biso   1.000  O
  O3       1.0000 0.35148  0.66562  0.14123  Biso   1.000  O
  O4       1.0000 0.14852  0.16562  0.35877  Biso   1.000  O
  V5       1.0000 0.03439  0.08600  0.67529  Biso   1.000  V
  V6       1.0000 0.46561  0.58600  0.82471  Biso   1.000  V
  V7       1.0000 0.96561  0.91400  0.32471  Biso   1.000  V
  V8       1.0000 0.53439  0.41400  0.17529  Biso   1.000  V
  O5       1.0000 0.75077  0.46664  0.97220  Biso   1.000  O
  O6       1.0000 0.74923  0.96664  0.52780  Biso   1.000  O
  O7       1.0000 0.24923  0.53336  0.02780  Biso   1.000  O
  O8       1.0000 0.25077  0.03336  0.47220  Biso   1.000  O
  O9       1.0000 0.50084  0.47895  0.80807  Biso   1.000  O
  O10      1.0000 0.99916  0.97895  0.69193  Biso   1.000  O
  O11      1.0000 0.49916  0.52105  0.19193  Biso   1.000  O
  O12      1.0000 0.00084  0.02105  0.30807  Biso   1.000  O
  O13      1.0000 0.52159  0.39271  0.02790  Biso   1.000  O
  O14      1.0000 0.97841  0.89271  0.47210  Biso   1.000  O
  O15      1.0000 0.47841  0.60729  0.97210  Biso   1.000  O
  O16      1.0000 0.02159  0.10729  0.52790  Biso   1.000  O
  O17      1.0000 0.18772  0.10726  0.75481  Biso   1.000  O
  O18      1.0000 0.31228  0.60726  0.74519  Biso   1.000  O
  O19      1.0000 0.81228  0.89274  0.24519  Biso   1.000  O
  O20      1.0000 0.68772  0.39274  0.25481  Biso   1.000  O
  O21      1.0000 0.92507  0.14149  0.71994  Biso   1.000  O
  O22      1.0000 0.57493  0.64149  0.78006  Biso   1.000  O
  O23      1.0000 0.07493  0.85851  0.28006  Biso   1.000  O
  O24      1.0000 0.42507  0.35851  0.21994  Biso   1.000  O
  N1       1.0000 0.82168  0.18449  0.95274  Biso   1.000  N
  N2       1.0000 0.67832  0.68449  0.54726  Biso   1.000  N
  N3       1.0000 0.17832  0.81551  0.04726  Biso   1.000  N
  N4       1.0000 0.32168  0.31551  0.45274  Biso   1.000  N
  C1       1.0000 0.92530  0.14465  0.01605  Biso   1.000  C
  C2       1.0000 0.57470  0.64465  0.48395  Biso   1.000  C
  C3       1.0000 0.07470  0.85535  0.98395  Biso   1.000  C
  C4       1.0000 0.42530  0.35535  0.51605  Biso   1.000  C
  H1       1.0000 0.01260  0.14240  0.00080  Biso   1.000  H
  H2       1.0000 0.48740  0.64240  0.49920  Biso   1.000  H
  H3       1.0000 0.98740  0.85760  0.99920  Biso   1.000  H
  H4       1.0000 0.51260  0.35760  0.50080  Biso   1.000  H
  N5       1.0000 0.89173  0.10785  0.10445  Biso   1.000  N
  N6       1.0000 0.60827  0.60785  0.39555  Biso   1.000  N
  N7       1.0000 0.10827  0.89215  0.89555  Biso   1.000  N
  N8       1.0000 0.39173  0.39215  0.60445  Biso   1.000  N
  H5       1.0000 0.94540  0.07800  0.15690  Biso   1.000  H
  H6       1.0000 0.55460  0.57800  0.34310  Biso   1.000  H
  H7       1.0000 0.05460  0.92200  0.84310  Biso   1.000  H
  H8       1.0000 0.44540  0.42200  0.65690  Biso   1.000  H
  C5       1.0000 0.75910  0.12508  0.09835  Biso   1.000  C
  C6       1.0000 0.74090  0.62508  0.40165  Biso   1.000  C
  C7       1.0000 0.24090  0.87492  0.90165  Biso   1.000  C
  C8       1.0000 0.25910  0.37492  0.59835  Biso   1.000  C
  H9       1.0000 0.70720  0.10750  0.14980  Biso   1.000  H
  H10      1.0000 0.79280  0.60750  0.35020  Biso   1.000  H
  H11      1.0000 0.29280  0.89250  0.85020  Biso   1.000  H
  H12      1.0000 0.20720  0.39250  0.64980  Biso   1.000  H
  C9       1.0000 0.71570  0.17227  0.00442  Biso   1.000  C
  C10      1.0000 0.78430  0.67227  0.49558  Biso   1.000  C
  C11      1.0000 0.28430  0.82773  0.99558  Biso   1.000  C
  C12      1.0000 0.21570  0.32773  0.50442  Biso   1.000  C
  H13      1.0000 0.62680  0.19350  0.97840  Biso   1.000  H
  H14      1.0000 0.87320  0.69350  0.52160  Biso   1.000  H
  H15      1.0000 0.37320  0.80650  0.02160  Biso   1.000  H
  H16      1.0000 0.12680  0.30650  0.47840  Biso   1.000  H
  N9       1.0000 0.78124  0.31036  0.66093  Biso   1.000  N
  N10      1.0000 0.71876  0.81036  0.83907  Biso   1.000  N
  N11      1.0000 0.21876  0.68964  0.33907  Biso   1.000  N
  N12      1.0000 0.28124  0.18964  0.16093  Biso   1.000  N
  C13      1.0000 0.77206  0.28959  0.55363  Biso   1.000  C
  C14      1.0000 0.72794  0.78959  0.94637  Biso   1.000  C
  C15      1.0000 0.22794  0.71041  0.44637  Biso   1.000  C
  C16      1.0000 0.27206  0.21041  0.05363  Biso   1.000  C
  H17      1.0000 0.77190  0.23530  0.52740  Biso   1.000  H
  H18      1.0000 0.72810  0.73530  0.97260  Biso   1.000  H
  H19      1.0000 0.22810  0.76470  0.47260  Biso   1.000  H
  H20      1.0000 0.27190  0.26470  0.02740  Biso   1.000  H
  N13      1.0000 0.76290  0.35500  0.48635  Biso   1.000  N
  N14      1.0000 0.73710  0.85500  0.01365  Biso   1.000  N
  N15      1.0000 0.23710  0.64500  0.51365  Biso   1.000  N
  N16      1.0000 0.26290  0.14500  0.98635  Biso   1.000  N
  H21      1.0000 0.75560  0.35500  0.41200  Biso   1.000  H
  H22      1.0000 0.74440  0.85500  0.08800  Biso   1.000  H
  H23      1.0000 0.24440  0.64500  0.58800  Biso   1.000  H
  H24      1.0000 0.25560  0.14500  0.91200  Biso   1.000  H
  C17      1.0000 0.76700  0.42209  0.55468  Biso   1.000  C
  C18      1.0000 0.73300  0.92209  0.94532  Biso   1.000  C
  C19      1.0000 0.23300  0.57791  0.44532  Biso   1.000  C
  C20      1.0000 0.26700  0.07791  0.05468  Biso   1.000  C
  H25      1.0000 0.76270  0.47720  0.53120  Biso   1.000  H
  H26      1.0000 0.73730  0.97720  0.96880  Biso   1.000  H
  H27      1.0000 0.23730  0.52280  0.46880  Biso   1.000  H
  H28      1.0000 0.26270  0.02280  0.03120  Biso   1.000  H
  C21      1.0000 0.77830  0.39402  0.66188  Biso   1.000  C
  C22      1.0000 0.72170  0.89402  0.83812  Biso   1.000  C
  C23      1.0000 0.22170  0.60598  0.33812  Biso   1.000  C
  C24      1.0000 0.27830  0.10598  0.16188  Biso   1.000  C
  H29      1.0000 0.78350  0.42670  0.72770  Biso   1.000  H
  H30      1.0000 0.71650  0.92670  0.77230  Biso   1.000  H
  H31      1.0000 0.21650  0.57330  0.27230  Biso   1.000  H
  H32      1.0000 0.28350  0.07330  0.22770  Biso   1.000  H
  N17      1.0000 0.97998  0.30136  0.86210  Biso   1.000  N
  N18      1.0000 0.52002  0.80136  0.63790  Biso   1.000  N
  N19      1.0000 0.02002  0.69864  0.13790  Biso   1.000  N
  N20      1.0000 0.47998  0.19864  0.36210  Biso   1.000  N
  C25      1.0000 0.00250  0.35656  0.94453  Biso   1.000  C
  C26      1.0000 0.49750  0.85656  0.55547  Biso   1.000  C
  C27      1.0000 0.99750  0.64344  0.05547  Biso   1.000  C
  C28      1.0000 0.50250  0.14344  0.44453  Biso   1.000  C
  H33      1.0000 0.94380  0.36740  0.99330  Biso   1.000  H
  H34      1.0000 0.55620  0.86740  0.50670  Biso   1.000  H
  H35      1.0000 0.05620  0.63260  0.00670  Biso   1.000  H
  H36      1.0000 0.44380  0.13260  0.49330  Biso   1.000  H
  N21      1.0000 0.11982  0.39489  0.94927  Biso   1.000  N
  N22      1.0000 0.38018  0.89489  0.55073  Biso   1.000  N
  N23      1.0000 0.88018  0.60511  0.05073  Biso   1.000  N
  N24      1.0000 0.61982  0.10511  0.44927  Biso   1.000  N
  H37      1.0000 0.15520  0.43330  0.99790  Biso   1.000  H
  H38      1.0000 0.34480  0.93330  0.50210  Biso   1.000  H
  H39      1.0000 0.84480  0.56670  0.00210  Biso   1.000  H
  H40      1.0000 0.65520  0.06670  0.49790  Biso   1.000  H
  C29      1.0000 0.17510  0.36370  0.86493  Biso   1.000  C
  C30      1.0000 0.32490  0.86370  0.63507  Biso   1.000  C
  C31      1.0000 0.82490  0.63630  0.13507  Biso   1.000  C
  C32      1.0000 0.67510  0.13630  0.36493  Biso   1.000  C
  H41      1.0000 0.25790  0.37930  0.84770  Biso   1.000  H
  H42      1.0000 0.24210  0.87930  0.65230  Biso   1.000  H
  H43      1.0000 0.74210  0.62070  0.15230  Biso   1.000  H
  H44      1.0000 0.75790  0.12070  0.34770  Biso   1.000  H
  C33      1.0000 0.08746  0.30603  0.81122  Biso   1.000  C
  C34      1.0000 0.41254  0.80603  0.68878  Biso   1.000  C
  C35      1.0000 0.91254  0.69397  0.18878  Biso   1.000  C
  C36      1.0000 0.58746  0.19397  0.31122  Biso   1.000  C
  H45      1.0000 0.09850  0.27400  0.74850  Biso   1.000  H
  H46      1.0000 0.40150  0.77400  0.75150  Biso   1.000  H
  H47      1.0000 0.90150  0.72600  0.25150  Biso   1.000  H
  H48      1.0000 0.59850  0.22600  0.24850  Biso   1.000  H
  N25      1.0000 0.64268  0.17312  0.73864  Biso   1.000  N
  N26      1.0000 0.85732  0.67312  0.76136  Biso   1.000  N
  N27      1.0000 0.35732  0.82688  0.26136  Biso   1.000  N
  N28      1.0000 0.14268  0.32688  0.23864  Biso   1.000  N
  C37      1.0000 0.51402  0.19205  0.72905  Biso   1.000  C
  C38      1.0000 0.98598  0.69205  0.77095  Biso   1.000  C
  C39      1.0000 0.48598  0.80795  0.27095  Biso   1.000  C
  C40      1.0000 0.01402  0.30795  0.22905  Biso   1.000  C
  H49      1.0000 0.48090  0.24570  0.73120  Biso   1.000  H
  H50      1.0000 0.01910  0.74570  0.76880  Biso   1.000  H
  H51      1.0000 0.51910  0.75430  0.26880  Biso   1.000  H
  H52      1.0000 0.98090  0.25430  0.23120  Biso   1.000  H
  N29      1.0000 0.43677  0.12534  0.71599  Biso   1.000  N
  N30      1.0000 0.06323  0.62534  0.78401  Biso   1.000  N
  N31      1.0000 0.56323  0.87466  0.28401  Biso   1.000  N
  N32      1.0000 0.93677  0.37466  0.21599  Biso   1.000  N
  H53      1.0000 0.34850  0.12390  0.70760  Biso   1.000  H
  H54      1.0000 0.15150  0.62390  0.79240  Biso   1.000  H
  H55      1.0000 0.65150  0.87610  0.29240  Biso   1.000  H
  H56      1.0000 0.84850  0.37610  0.20760  Biso   1.000  H
  C41      1.0000 0.51980  0.06006  0.71797  Biso   1.000  C
  C42      1.0000 0.98020  0.56006  0.78203  Biso   1.000  C
  C43      1.0000 0.48020  0.93994  0.28203  Biso   1.000  C
  C44      1.0000 0.01980  0.43994  0.21797  Biso   1.000  C
  H57      1.0000 0.49370  0.00470  0.71130  Biso   1.000  H
  H58      1.0000 0.00630  0.50470  0.78870  Biso   1.000  H
  H59      1.0000 0.50630  0.99530  0.28870  Biso   1.000  H
  H60      1.0000 0.99370  0.49530  0.21130  Biso   1.000  H
  C45      1.0000 0.64650  0.08987  0.73137  Biso   1.000  C
  C46      1.0000 0.85350  0.58987  0.76863  Biso   1.000  C
  C47      1.0000 0.35350  0.91013  0.26863  Biso   1.000  C
  C48      1.0000 0.14650  0.41013  0.23137  Biso   1.000  C
  H61      1.0000 0.72560  0.05840  0.73520  Biso   1.000  H
  H62      1.0000 0.77440  0.55840  0.76480  Biso   1.000  H
  H63      1.0000 0.27440  0.94160  0.26480  Biso   1.000  H
  H64      1.0000 0.22560  0.44160  0.23520  Biso   1.000  H
