data_image0
_cell_length_a       7.4325
_cell_length_b       12.3472
_cell_length_c       8.93409
_cell_angle_alpha    90
_cell_angle_beta     106.215
_cell_angle_gamma    90

_symmetry_space_group_name_H-M    "P 1"
_symmetry_int_tables_number       1

loop_
  _symmetry_equiv_pos_as_xyz
  'x, y, z'

loop_
  _atom_site_label
  _atom_site_occupancy
  _atom_site_fract_x
  _atom_site_fract_y
  _atom_site_fract_z
  _atom_site_thermal_displace_type
  _atom_site_B_iso_or_equiv
  _atom_site_type_symbol
  O1       1.0000 0.24710  0.13190  0.01390  Biso   1.000  O
  O2       1.0000 0.75290  0.63190  0.48610  Biso   1.000  O
  O3       1.0000 0.75290  0.86810  0.98610  Biso   1.000  O
  O4       1.0000 0.24710  0.36810  0.51390  Biso   1.000  O
  C1       1.0000 0.22280  0.87990  0.54790  Biso   1.000  C
  C2       1.0000 0.77720  0.37990  0.95210  Biso   1.000  C
  C3       1.0000 0.77720  0.12010  0.45210  Biso   1.000  C
  C4       1.0000 0.22280  0.62010  0.04790  Biso   1.000  C
  C5       1.0000 0.03980  0.85680  0.55430  Biso   1.000  C
  C6       1.0000 0.96020  0.35680  0.94570  Biso   1.000  C
  C7       1.0000 0.96020  0.14320  0.44570  Biso   1.000  C
  C8       1.0000 0.03980  0.64320  0.05430  Biso   1.000  C
  C9       1.0000 0.35550  0.91550  0.68220  Biso   1.000  C
  C10      1.0000 0.64450  0.41550  0.81780  Biso   1.000  C
  C11      1.0000 0.64450  0.08450  0.31780  Biso   1.000  C
  C12      1.0000 0.35550  0.58450  0.18220  Biso   1.000  C
  C13      1.0000 0.27400  0.87200  0.39850  Biso   1.000  C
  C14      1.0000 0.72600  0.37200  0.10150  Biso   1.000  C
  C15      1.0000 0.72600  0.12800  0.60150  Biso   1.000  C
  C16      1.0000 0.27400  0.62800  0.89850  Biso   1.000  C
  C17      1.0000 0.99260  0.87290  0.69530  Biso   1.000  C
  C18      1.0000 0.00740  0.37290  0.80470  Biso   1.000  C
  C19      1.0000 0.00740  0.12710  0.30470  Biso   1.000  C
  C20      1.0000 0.99260  0.62710  0.19530  Biso   1.000  C
  C21      1.0000 0.50250  0.84550  0.25910  Biso   1.000  C
  C22      1.0000 0.49750  0.34550  0.24090  Biso   1.000  C
  C23      1.0000 0.49750  0.15450  0.74090  Biso   1.000  C
  C24      1.0000 0.50250  0.65450  0.75910  Biso   1.000  C
  C25      1.0000 0.44510  0.83970  0.40090  Biso   1.000  C
  C26      1.0000 0.55490  0.33970  0.09910  Biso   1.000  C
  C27      1.0000 0.55490  0.16030  0.59910  Biso   1.000  C
  C28      1.0000 0.44510  0.66030  0.90090  Biso   1.000  C
  C29      1.0000 0.12900  0.90850  0.82560  Biso   1.000  C
  C30      1.0000 0.87100  0.40850  0.67440  Biso   1.000  C
  C31      1.0000 0.87100  0.09150  0.17440  Biso   1.000  C
  C32      1.0000 0.12900  0.59150  0.32560  Biso   1.000  C
  N1       1.0000 0.30630  0.92580  0.81750  Biso   1.000  N
  N2       1.0000 0.69370  0.42580  0.68250  Biso   1.000  N
  N3       1.0000 0.69370  0.07420  0.18250  Biso   1.000  N
  N4       1.0000 0.30630  0.57420  0.31750  Biso   1.000  N
  O5       1.0000 0.64620  0.79890  0.25020  Biso   1.000  O
  O6       1.0000 0.35380  0.29890  0.24980  Biso   1.000  O
  O7       1.0000 0.35380  0.20110  0.74980  Biso   1.000  O
  O8       1.0000 0.64620  0.70110  0.75020  Biso   1.000  O
  O9       1.0000 0.40530  0.90610  0.14380  Biso   1.000  O
  O10      1.0000 0.59470  0.40610  0.35620  Biso   1.000  O
  O11      1.0000 0.59470  0.09390  0.85620  Biso   1.000  O
  O12      1.0000 0.40530  0.59390  0.64380  Biso   1.000  O
  Cu1      1.0000 0.50000  0.00000  0.00000  Biso   1.000  Cu
  Cu2      1.0000 0.50000  0.50000  0.50000  Biso   1.000  Cu
