data_image0
_cell_length_a       7.4035
_cell_length_b       12.2381
_cell_length_c       8.932
_cell_angle_alpha    90
_cell_angle_beta     106.19
_cell_angle_gamma    90

_symmetry_space_group_name_H-M    "P 1"
_symmetry_int_tables_number       1

loop_
  _symmetry_equiv_pos_as_xyz
  'x, y, z'

loop_
  _atom_site_label
  _atom_site_occupancy
  _atom_site_fract_x
  _atom_site_fract_y
  _atom_site_fract_z
  _atom_site_thermal_displace_type
  _atom_site_B_iso_or_equiv
  _atom_site_type_symbol
  Cu1      1.0000 0.50000  0.50000  0.50000  Biso   1.000  Cu
  Cu2      1.0000 0.50000  0.00000  0.00000  Biso   1.000  Cu
  C1       1.0000 0.49250  0.34575  0.24750  Biso   1.000  C
  C2       1.0000 0.50750  0.84575  0.25250  Biso   1.000  C
  C3       1.0000 0.50750  0.65425  0.75250  Biso   1.000  C
  C4       1.0000 0.49250  0.15425  0.74750  Biso   1.000  C
  O1       1.0000 0.59021  0.40440  0.35834  Biso   1.000  O
  O2       1.0000 0.40979  0.90440  0.14166  Biso   1.000  O
  O3       1.0000 0.40979  0.59560  0.64166  Biso   1.000  O
  O4       1.0000 0.59021  0.09560  0.85834  Biso   1.000  O
  O5       1.0000 0.34460  0.29594  0.24710  Biso   1.000  O
  O6       1.0000 0.65540  0.79594  0.25290  Biso   1.000  O
  O7       1.0000 0.65540  0.70406  0.75290  Biso   1.000  O
  O8       1.0000 0.34460  0.20406  0.74710  Biso   1.000  O
  C5       1.0000 0.55860  0.34074  0.10420  Biso   1.000  C
  C6       1.0000 0.44140  0.84074  0.39580  Biso   1.000  C
  C7       1.0000 0.44140  0.65926  0.89580  Biso   1.000  C
  C8       1.0000 0.55860  0.15926  0.60420  Biso   1.000  C
  H1       1.0000 0.47430  0.31290  0.01150  Biso   1.000  H
  H2       1.0000 0.52570  0.81290  0.48850  Biso   1.000  H
  H3       1.0000 0.52570  0.68710  0.98850  Biso   1.000  H
  H4       1.0000 0.47430  0.18710  0.51150  Biso   1.000  H
  C9       1.0000 0.72690  0.37257  0.09810  Biso   1.000  C
  C10      1.0000 0.27310  0.87257  0.40190  Biso   1.000  C
  C11      1.0000 0.27310  0.62743  0.90190  Biso   1.000  C
  C12      1.0000 0.72690  0.12743  0.59810  Biso   1.000  C
  H5       1.0000 0.81740  0.39100  0.19310  Biso   1.000  H
  H6       1.0000 0.18260  0.89100  0.30690  Biso   1.000  H
  H7       1.0000 0.18260  0.60900  0.80690  Biso   1.000  H
  H8       1.0000 0.81740  0.10900  0.69310  Biso   1.000  H
  C13      1.0000 0.78250  0.38113  0.95230  Biso   1.000  C
  C14      1.0000 0.21750  0.88113  0.54770  Biso   1.000  C
  C15      1.0000 0.21750  0.61887  0.04770  Biso   1.000  C
  C16      1.0000 0.78250  0.11887  0.45230  Biso   1.000  C
  C17      1.0000 0.65120  0.41598  0.81680  Biso   1.000  C
  C18      1.0000 0.34880  0.91598  0.68320  Biso   1.000  C
  C19      1.0000 0.34880  0.58402  0.18320  Biso   1.000  C
  C20      1.0000 0.65120  0.08402  0.31680  Biso   1.000  C
  H9       1.0000 0.52590  0.42880  0.82030  Biso   1.000  H
  H10      1.0000 0.47410  0.92880  0.67970  Biso   1.000  H
  H11      1.0000 0.47410  0.57120  0.17970  Biso   1.000  H
  H12      1.0000 0.52590  0.07120  0.32030  Biso   1.000  H
  N1       1.0000 0.69230  0.43241  0.68152  Biso   1.000  N
  N2       1.0000 0.30770  0.93241  0.81848  Biso   1.000  N
  N3       1.0000 0.30770  0.56759  0.31848  Biso   1.000  N
  N4       1.0000 0.69230  0.06759  0.18152  Biso   1.000  N
  C21      1.0000 0.86800  0.41082  0.67510  Biso   1.000  C
  C22      1.0000 0.13200  0.91082  0.82490  Biso   1.000  C
  C23      1.0000 0.13200  0.58918  0.32490  Biso   1.000  C
  C24      1.0000 0.86800  0.08918  0.17510  Biso   1.000  C
  H13      1.0000 0.89770  0.42020  0.57910  Biso   1.000  H
  H14      1.0000 0.10230  0.92020  0.92090  Biso   1.000  H
  H15      1.0000 0.10230  0.57980  0.42090  Biso   1.000  H
  H16      1.0000 0.89770  0.07980  0.07910  Biso   1.000  H
  C25      1.0000 0.00650  0.37549  0.80370  Biso   1.000  C
  C26      1.0000 0.99350  0.87549  0.69630  Biso   1.000  C
  C27      1.0000 0.99350  0.62451  0.19630  Biso   1.000  C
  C28      1.0000 0.00650  0.12451  0.30370  Biso   1.000  C
  H17      1.0000 0.12910  0.36000  0.79550  Biso   1.000  H
  H18      1.0000 0.87090  0.86000  0.70450  Biso   1.000  H
  H19      1.0000 0.87090  0.64000  0.20450  Biso   1.000  H
  H20      1.0000 0.12910  0.14000  0.29550  Biso   1.000  H
  C29      1.0000 0.96580  0.36271  0.94520  Biso   1.000  C
  C30      1.0000 0.03420  0.86271  0.55480  Biso   1.000  C
  C31      1.0000 0.03420  0.63729  0.05480  Biso   1.000  C
  C32      1.0000 0.96580  0.13729  0.44520  Biso   1.000  C
  H21      1.0000 0.06140  0.34170  0.03580  Biso   1.000  H
  H22      1.0000 0.93860  0.84170  0.46420  Biso   1.000  H
  H23      1.0000 0.93860  0.65830  0.96420  Biso   1.000  H
  H24      1.0000 0.06140  0.15830  0.53580  Biso   1.000  H
  O9       1.0000 0.24720  0.37171  0.51209  Biso   1.000  O
  O10      1.0000 0.75280  0.87171  0.98791  Biso   1.000  O
  O11      1.0000 0.75280  0.62829  0.48791  Biso   1.000  O
  O12      1.0000 0.24720  0.12829  0.01209  Biso   1.000  O
  H25      1.0000 0.25600  0.34800  0.43000  Biso   1.000  H
  H26      1.0000 0.74400  0.84800  0.07000  Biso   1.000  H
  H27      1.0000 0.74400  0.65200  0.57000  Biso   1.000  H
  H28      1.0000 0.25600  0.15200  0.93000  Biso   1.000  H
  H29      1.0000 0.27300  0.32250  0.57500  Biso   1.000  H
  H30      1.0000 0.72700  0.82250  0.92500  Biso   1.000  H
  H31      1.0000 0.72700  0.67750  0.42500  Biso   1.000  H
  H32      1.0000 0.27300  0.17750  0.07500  Biso   1.000  H
