data_image0
_cell_length_a       10.617
_cell_length_b       12.108
_cell_length_c       14.652
_cell_angle_alpha    90
_cell_angle_beta     95.07
_cell_angle_gamma    90

_symmetry_space_group_name_H-M    "P 1"
_symmetry_int_tables_number       1

loop_
  _symmetry_equiv_pos_as_xyz
  'x, y, z'

loop_
  _atom_site_label
  _atom_site_occupancy
  _atom_site_fract_x
  _atom_site_fract_y
  _atom_site_fract_z
  _atom_site_thermal_displace_type
  _atom_site_B_iso_or_equiv
  _atom_site_type_symbol
  Cu1      1.0000 0.25000  0.25000  0.50000  Biso   1.000  Cu
  Cu2      1.0000 0.75000  0.25000  0.00000  Biso   1.000  Cu
  Cu3      1.0000 0.75000  0.75000  0.50000  Biso   1.000  Cu
  Cu4      1.0000 0.25000  0.75000  0.00000  Biso   1.000  Cu
  F1       1.0000 0.38870  0.90120  0.48840  Biso   1.000  F
  F2       1.0000 0.61130  0.90120  0.01160  Biso   1.000  F
  F3       1.0000 0.88870  0.40120  0.48840  Biso   1.000  F
  F4       1.0000 0.11130  0.40120  0.01160  Biso   1.000  F
  F5       1.0000 0.61130  0.09880  0.51160  Biso   1.000  F
  F6       1.0000 0.38870  0.09880  0.98840  Biso   1.000  F
  F7       1.0000 0.11130  0.59880  0.51160  Biso   1.000  F
  F8       1.0000 0.88870  0.59880  0.98840  Biso   1.000  F
  F9       1.0000 0.50870  0.00060  0.38606  Biso   1.000  F
  F10      1.0000 0.49130  0.00060  0.11394  Biso   1.000  F
  F11      1.0000 0.00870  0.50060  0.38606  Biso   1.000  F
  F12      1.0000 0.99130  0.50060  0.11394  Biso   1.000  F
  F13      1.0000 0.49130  0.99940  0.61394  Biso   1.000  F
  F14      1.0000 0.50870  0.99940  0.88606  Biso   1.000  F
  F15      1.0000 0.99130  0.49940  0.61394  Biso   1.000  F
  F16      1.0000 0.00870  0.49940  0.88606  Biso   1.000  F
  F17      1.0000 0.38660  0.09883  0.48968  Biso   1.000  F
  F18      1.0000 0.61340  0.09883  0.01032  Biso   1.000  F
  F19      1.0000 0.88660  0.59883  0.48968  Biso   1.000  F
  F20      1.0000 0.11340  0.59883  0.01032  Biso   1.000  F
  F21      1.0000 0.61340  0.90117  0.51032  Biso   1.000  F
  F22      1.0000 0.38660  0.90117  0.98968  Biso   1.000  F
  F23      1.0000 0.11340  0.40117  0.51032  Biso   1.000  F
  F24      1.0000 0.88660  0.40117  0.98968  Biso   1.000  F
  Si1      1.0000 0.50000  0.00000  0.50000  Biso   1.000  Si
  Si2      1.0000 0.50000  0.00000  0.00000  Biso   1.000  Si
  Si3      1.0000 0.00000  0.50000  0.50000  Biso   1.000  Si
  Si4      1.0000 0.00000  0.50000  0.00000  Biso   1.000  Si
  N1       1.0000 0.27440  0.29000  0.36980  Biso   1.000  N
  N2       1.0000 0.72560  0.29000  0.13020  Biso   1.000  N
  N3       1.0000 0.77440  0.79000  0.36980  Biso   1.000  N
  N4       1.0000 0.22560  0.79000  0.13020  Biso   1.000  N
  N5       1.0000 0.72560  0.71000  0.63020  Biso   1.000  N
  N6       1.0000 0.27440  0.71000  0.86980  Biso   1.000  N
  N7       1.0000 0.22560  0.21000  0.63020  Biso   1.000  N
  N8       1.0000 0.77440  0.21000  0.86980  Biso   1.000  N
  N9       1.0000 0.20000  0.36330  0.32170  Biso   1.000  N
  N10      1.0000 0.80000  0.36330  0.17830  Biso   1.000  N
  N11      1.0000 0.70000  0.86330  0.32170  Biso   1.000  N
  N12      1.0000 0.30000  0.86330  0.17830  Biso   1.000  N
  N13      1.0000 0.80000  0.63670  0.67830  Biso   1.000  N
  N14      1.0000 0.20000  0.63670  0.82170  Biso   1.000  N
  N15      1.0000 0.30000  0.13670  0.67830  Biso   1.000  N
  N16      1.0000 0.70000  0.13670  0.82170  Biso   1.000  N
  H1       1.0000 0.14520  0.40440  0.34510  Biso   1.000  H
  H2       1.0000 0.85480  0.40440  0.15490  Biso   1.000  H
  H3       1.0000 0.64520  0.90440  0.34510  Biso   1.000  H
  H4       1.0000 0.35480  0.90440  0.15490  Biso   1.000  H
  H5       1.0000 0.85480  0.59560  0.65490  Biso   1.000  H
  H6       1.0000 0.14520  0.59560  0.84510  Biso   1.000  H
  H7       1.0000 0.35480  0.09560  0.65490  Biso   1.000  H
  H8       1.0000 0.64520  0.09560  0.84510  Biso   1.000  H
  N17      1.0000 0.10110  0.15890  0.45100  Biso   1.000  N
  N18      1.0000 0.89890  0.15890  0.04900  Biso   1.000  N
  N19      1.0000 0.60110  0.65890  0.45100  Biso   1.000  N
  N20      1.0000 0.39890  0.65890  0.04900  Biso   1.000  N
  N21      1.0000 0.89890  0.84110  0.54900  Biso   1.000  N
  N22      1.0000 0.10110  0.84110  0.95100  Biso   1.000  N
  N23      1.0000 0.39890  0.34110  0.54900  Biso   1.000  N
  N24      1.0000 0.60110  0.34110  0.95100  Biso   1.000  N
  N25      1.0000 0.97940  0.18650  0.44940  Biso   1.000  N
  N26      1.0000 0.02060  0.18650  0.05060  Biso   1.000  N
  N27      1.0000 0.47940  0.68650  0.44940  Biso   1.000  N
  N28      1.0000 0.52060  0.68650  0.05060  Biso   1.000  N
  N29      1.0000 0.02060  0.81350  0.55060  Biso   1.000  N
  N30      1.0000 0.97940  0.81350  0.94940  Biso   1.000  N
  N31      1.0000 0.52060  0.31350  0.55060  Biso   1.000  N
  N32      1.0000 0.47940  0.31350  0.94940  Biso   1.000  N
  H9       1.0000 0.95200  0.24590  0.47300  Biso   1.000  H
  H10      1.0000 0.04800  0.24590  0.02700  Biso   1.000  H
  H11      1.0000 0.45200  0.74590  0.47300  Biso   1.000  H
  H12      1.0000 0.54800  0.74590  0.02700  Biso   1.000  H
  H13      1.0000 0.04800  0.75410  0.52700  Biso   1.000  H
  H14      1.0000 0.95200  0.75410  0.97300  Biso   1.000  H
  H15      1.0000 0.54800  0.25410  0.52700  Biso   1.000  H
  H16      1.0000 0.45200  0.25410  0.97300  Biso   1.000  H
  C1       1.0000 0.22120  0.36460  0.23400  Biso   1.000  C
  C2       1.0000 0.77880  0.36460  0.26600  Biso   1.000  C
  C3       1.0000 0.72120  0.86460  0.23400  Biso   1.000  C
  C4       1.0000 0.27880  0.86460  0.26600  Biso   1.000  C
  C5       1.0000 0.77880  0.63540  0.76600  Biso   1.000  C
  C6       1.0000 0.22120  0.63540  0.73400  Biso   1.000  C
  C7       1.0000 0.27880  0.13540  0.76600  Biso   1.000  C
  C8       1.0000 0.72120  0.13540  0.73400  Biso   1.000  C
  H17      1.0000 0.18010  0.40840  0.18850  Biso   1.000  H
  H18      1.0000 0.81990  0.40840  0.31150  Biso   1.000  H
  H19      1.0000 0.68010  0.90840  0.18850  Biso   1.000  H
  H20      1.0000 0.31990  0.90840  0.31150  Biso   1.000  H
  H21      1.0000 0.81990  0.59160  0.81150  Biso   1.000  H
  H22      1.0000 0.18010  0.59160  0.68850  Biso   1.000  H
  H23      1.0000 0.31990  0.09160  0.81150  Biso   1.000  H
  H24      1.0000 0.68010  0.09160  0.68850  Biso   1.000  H
  C9       1.0000 0.31470  0.28950  0.22270  Biso   1.000  C
  C10      1.0000 0.68530  0.28950  0.27730  Biso   1.000  C
  C11      1.0000 0.81470  0.78950  0.22270  Biso   1.000  C
  C12      1.0000 0.18530  0.78950  0.27730  Biso   1.000  C
  C13      1.0000 0.68530  0.71050  0.77730  Biso   1.000  C
  C14      1.0000 0.31470  0.71050  0.72270  Biso   1.000  C
  C15      1.0000 0.18530  0.21050  0.77730  Biso   1.000  C
  C16      1.0000 0.81470  0.21050  0.72270  Biso   1.000  C
  H25      1.0000 0.35030  0.27230  0.16870  Biso   1.000  H
  H26      1.0000 0.64970  0.27230  0.33130  Biso   1.000  H
  H27      1.0000 0.85030  0.77230  0.16870  Biso   1.000  H
  H28      1.0000 0.14970  0.77230  0.33130  Biso   1.000  H
  H29      1.0000 0.64970  0.72770  0.83130  Biso   1.000  H
  H30      1.0000 0.35030  0.72770  0.66870  Biso   1.000  H
  H31      1.0000 0.14970  0.22770  0.83130  Biso   1.000  H
  H32      1.0000 0.85030  0.22770  0.66870  Biso   1.000  H
  C17      1.0000 0.34490  0.24480  0.30850  Biso   1.000  C
  C18      1.0000 0.65510  0.24480  0.19150  Biso   1.000  C
  C19      1.0000 0.84490  0.74480  0.30850  Biso   1.000  C
  C20      1.0000 0.15510  0.74480  0.19150  Biso   1.000  C
  C21      1.0000 0.65510  0.75520  0.69150  Biso   1.000  C
  C22      1.0000 0.34490  0.75520  0.80850  Biso   1.000  C
  C23      1.0000 0.15510  0.25520  0.69150  Biso   1.000  C
  C24      1.0000 0.84490  0.25520  0.80850  Biso   1.000  C
  H33      1.0000 0.40590  0.19070  0.32190  Biso   1.000  H
  H34      1.0000 0.59410  0.19070  0.17810  Biso   1.000  H
  H35      1.0000 0.90590  0.69070  0.32190  Biso   1.000  H
  H36      1.0000 0.09410  0.69070  0.17810  Biso   1.000  H
  H37      1.0000 0.59410  0.80930  0.67810  Biso   1.000  H
  H38      1.0000 0.40590  0.80930  0.82190  Biso   1.000  H
  H39      1.0000 0.09410  0.30930  0.67810  Biso   1.000  H
  H40      1.0000 0.90590  0.30930  0.82190  Biso   1.000  H
  C25      1.0000 0.90560  0.10990  0.40630  Biso   1.000  C
  C26      1.0000 0.09440  0.10990  0.09370  Biso   1.000  C
  C27      1.0000 0.40560  0.60990  0.40630  Biso   1.000  C
  C28      1.0000 0.59440  0.60990  0.09370  Biso   1.000  C
  C29      1.0000 0.09440  0.89010  0.59370  Biso   1.000  C
  C30      1.0000 0.90560  0.89010  0.90630  Biso   1.000  C
  C31      1.0000 0.59440  0.39010  0.59370  Biso   1.000  C
  C32      1.0000 0.40560  0.39010  0.90630  Biso   1.000  C
  H41      1.0000 0.81780  0.11180  0.39710  Biso   1.000  H
  H42      1.0000 0.18220  0.11180  0.10290  Biso   1.000  H
  H43      1.0000 0.31780  0.61180  0.39710  Biso   1.000  H
  H44      1.0000 0.68220  0.61180  0.10290  Biso   1.000  H
  H45      1.0000 0.18220  0.88820  0.60290  Biso   1.000  H
  H46      1.0000 0.81780  0.88820  0.89710  Biso   1.000  H
  H47      1.0000 0.68220  0.38820  0.60290  Biso   1.000  H
  H48      1.0000 0.31780  0.38820  0.89710  Biso   1.000  H
  C33      1.0000 0.98100  0.02910  0.37850  Biso   1.000  C
  C34      1.0000 0.01900  0.02910  0.12150  Biso   1.000  C
  C35      1.0000 0.48100  0.52910  0.37850  Biso   1.000  C
  C36      1.0000 0.51900  0.52910  0.12150  Biso   1.000  C
  C37      1.0000 0.01900  0.97090  0.62150  Biso   1.000  C
  C38      1.0000 0.98100  0.97090  0.87850  Biso   1.000  C
  C39      1.0000 0.51900  0.47090  0.62150  Biso   1.000  C
  C40      1.0000 0.48100  0.47090  0.87850  Biso   1.000  C
  H49      1.0000 0.95700  0.96490  0.34670  Biso   1.000  H
  H50      1.0000 0.04300  0.96490  0.15330  Biso   1.000  H
  H51      1.0000 0.45700  0.46490  0.34670  Biso   1.000  H
  H52      1.0000 0.54300  0.46490  0.15330  Biso   1.000  H
  H53      1.0000 0.04300  0.03510  0.65330  Biso   1.000  H
  H54      1.0000 0.95700  0.03510  0.84670  Biso   1.000  H
  H55      1.0000 0.54300  0.53510  0.65330  Biso   1.000  H
  H56      1.0000 0.45700  0.53510  0.84670  Biso   1.000  H
  C41      1.0000 0.10200  0.06330  0.40780  Biso   1.000  C
  C42      1.0000 0.89800  0.06330  0.09220  Biso   1.000  C
  C43      1.0000 0.60200  0.56330  0.40780  Biso   1.000  C
  C44      1.0000 0.39800  0.56330  0.09220  Biso   1.000  C
  C45      1.0000 0.89800  0.93670  0.59220  Biso   1.000  C
  C46      1.0000 0.10200  0.93670  0.90780  Biso   1.000  C
  C47      1.0000 0.39800  0.43670  0.59220  Biso   1.000  C
  C48      1.0000 0.60200  0.43670  0.90780  Biso   1.000  C
  H57      1.0000 0.17490  0.02380  0.39840  Biso   1.000  H
  H58      1.0000 0.82510  0.02380  0.10160  Biso   1.000  H
  H59      1.0000 0.67490  0.52380  0.39840  Biso   1.000  H
  H60      1.0000 0.32510  0.52380  0.10160  Biso   1.000  H
  H61      1.0000 0.82510  0.97620  0.60160  Biso   1.000  H
  H62      1.0000 0.17490  0.97620  0.89840  Biso   1.000  H
  H63      1.0000 0.32510  0.47620  0.60160  Biso   1.000  H
  H64      1.0000 0.67490  0.47620  0.89840  Biso   1.000  H
