data_image0
_cell_length_a       17.7718
_cell_length_b       5.9088
_cell_length_c       13.6268
_cell_angle_alpha    90
_cell_angle_beta     105.572
_cell_angle_gamma    90

_symmetry_space_group_name_H-M    "P 1"
_symmetry_int_tables_number       1

loop_
  _symmetry_equiv_pos_as_xyz
  'x, y, z'

loop_
  _atom_site_label
  _atom_site_occupancy
  _atom_site_fract_x
  _atom_site_fract_y
  _atom_site_fract_z
  _atom_site_thermal_displace_type
  _atom_site_B_iso_or_equiv
  _atom_site_type_symbol
  Cu1      1.0000 0.56823  0.14812  0.04093  Biso   1.000  Cu
  Cu2      1.0000 0.43177  0.64812  0.45907  Biso   1.000  Cu
  Cu3      1.0000 0.43177  0.85188  0.95907  Biso   1.000  Cu
  Cu4      1.0000 0.56823  0.35188  0.54093  Biso   1.000  Cu
  O1       1.0000 0.03390  0.78430  0.16936  Biso   1.000  O
  O2       1.0000 0.96610  0.28430  0.33064  Biso   1.000  O
  O3       1.0000 0.96610  0.21570  0.83064  Biso   1.000  O
  O4       1.0000 0.03390  0.71570  0.66936  Biso   1.000  O
  O5       1.0000 0.58494  0.46870  0.08870  Biso   1.000  O
  O6       1.0000 0.41506  0.96870  0.41130  Biso   1.000  O
  O7       1.0000 0.41506  0.53130  0.91130  Biso   1.000  O
  O8       1.0000 0.58494  0.03130  0.58870  Biso   1.000  O
  O9       1.0000 0.54446  0.84770  0.97919  Biso   1.000  O
  O10      1.0000 0.45554  0.34770  0.52081  Biso   1.000  O
  O11      1.0000 0.45554  0.15230  0.02081  Biso   1.000  O
  O12      1.0000 0.54446  0.65230  0.47919  Biso   1.000  O
  O13      1.0000 0.59173  0.09050  0.22324  Biso   1.000  O
  O14      1.0000 0.40827  0.59050  0.27676  Biso   1.000  O
  O15      1.0000 0.40827  0.90950  0.77676  Biso   1.000  O
  O16      1.0000 0.59173  0.40950  0.72324  Biso   1.000  O
  O17      1.0000 0.47452  0.09380  0.24387  Biso   1.000  O
  O18      1.0000 0.52548  0.59380  0.25613  Biso   1.000  O
  O19      1.0000 0.52548  0.90620  0.75613  Biso   1.000  O
  O20      1.0000 0.47452  0.40620  0.74387  Biso   1.000  O
  O21      1.0000 0.57569  0.10840  0.37477  Biso   1.000  O
  O22      1.0000 0.42431  0.60840  0.12523  Biso   1.000  O
  O23      1.0000 0.42431  0.89160  0.62523  Biso   1.000  O
  O24      1.0000 0.57569  0.39160  0.87477  Biso   1.000  O
  N1       1.0000 0.98046  0.10980  0.10703  Biso   1.000  N
  N2       1.0000 0.01954  0.60980  0.39297  Biso   1.000  N
  N3       1.0000 0.01954  0.89020  0.89297  Biso   1.000  N
  N4       1.0000 0.98046  0.39020  0.60703  Biso   1.000  N
  N5       1.0000 0.95355  0.76520  0.16160  Biso   1.000  N
  N6       1.0000 0.04645  0.26520  0.33840  Biso   1.000  N
  N7       1.0000 0.04645  0.23480  0.83840  Biso   1.000  N
  N8       1.0000 0.95355  0.73480  0.66160  Biso   1.000  N
  N9       1.0000 0.68350  0.10570  0.06699  Biso   1.000  N
  N10      1.0000 0.31650  0.60570  0.43301  Biso   1.000  N
  N11      1.0000 0.31650  0.89430  0.93301  Biso   1.000  N
  N12      1.0000 0.68350  0.39430  0.56699  Biso   1.000  N
  N13      1.0000 0.20685  0.36150  0.11130  Biso   1.000  N
  N14      1.0000 0.79315  0.86150  0.38870  Biso   1.000  N
  N15      1.0000 0.79315  0.63850  0.88870  Biso   1.000  N
  N16      1.0000 0.20685  0.13850  0.61130  Biso   1.000  N
  N17      1.0000 0.54702  0.09820  0.28059  Biso   1.000  N
  N18      1.0000 0.45298  0.59820  0.21941  Biso   1.000  N
  N19      1.0000 0.45298  0.90180  0.71941  Biso   1.000  N
  N20      1.0000 0.54702  0.40180  0.78059  Biso   1.000  N
  C1       1.0000 0.73297  0.25880  0.04712  Biso   1.000  C
  C2       1.0000 0.26703  0.75880  0.45288  Biso   1.000  C
  C3       1.0000 0.26703  0.74120  0.95288  Biso   1.000  C
  C4       1.0000 0.73297  0.24120  0.54712  Biso   1.000  C
  H1       1.0000 0.71290  0.39680  0.01900  Biso   1.000  H
  H2       1.0000 0.28710  0.89680  0.48100  Biso   1.000  H
  H3       1.0000 0.28710  0.60320  0.98100  Biso   1.000  H
  H4       1.0000 0.71290  0.10320  0.51900  Biso   1.000  H
  C5       1.0000 0.81232  0.22170  0.06637  Biso   1.000  C
  C6       1.0000 0.18768  0.72170  0.43363  Biso   1.000  C
  C7       1.0000 0.18768  0.77830  0.93363  Biso   1.000  C
  C8       1.0000 0.81232  0.27830  0.56637  Biso   1.000  C
  H5       1.0000 0.84490  0.33350  0.05280  Biso   1.000  H
  H6       1.0000 0.15510  0.83350  0.44720  Biso   1.000  H
  H7       1.0000 0.15510  0.66650  0.94720  Biso   1.000  H
  H8       1.0000 0.84490  0.16650  0.55280  Biso   1.000  H
  C9       1.0000 0.84262  0.01410  0.10637  Biso   1.000  C
  C10      1.0000 0.15738  0.51410  0.39363  Biso   1.000  C
  C11      1.0000 0.15738  0.98590  0.89363  Biso   1.000  C
  C12      1.0000 0.84262  0.48590  0.60637  Biso   1.000  C
  C13      1.0000 0.79131  0.85480  0.12750  Biso   1.000  C
  C14      1.0000 0.20869  0.35480  0.37250  Biso   1.000  C
  C15      1.0000 0.20869  0.14520  0.87250  Biso   1.000  C
  C16      1.0000 0.79131  0.64520  0.62750  Biso   1.000  C
  H9       1.0000 0.80970  0.71510  0.15510  Biso   1.000  H
  H10      1.0000 0.19030  0.21510  0.34490  Biso   1.000  H
  H11      1.0000 0.19030  0.28490  0.84490  Biso   1.000  H
  H12      1.0000 0.80970  0.78490  0.65510  Biso   1.000  H
  C17      1.0000 0.71365  0.90630  0.10707  Biso   1.000  C
  C18      1.0000 0.28635  0.40630  0.39293  Biso   1.000  C
  C19      1.0000 0.28635  0.09370  0.89293  Biso   1.000  C
  C20      1.0000 0.71365  0.59370  0.60707  Biso   1.000  C
  H13      1.0000 0.68000  0.79850  0.12150  Biso   1.000  H
  H14      1.0000 0.32000  0.29850  0.37850  Biso   1.000  H
  H15      1.0000 0.32000  0.20150  0.87850  Biso   1.000  H
  H16      1.0000 0.68000  0.70150  0.62150  Biso   1.000  H
  C21      1.0000 0.92614  0.96070  0.12543  Biso   1.000  C
  C22      1.0000 0.07386  0.46070  0.37457  Biso   1.000  C
  C23      1.0000 0.07386  0.03930  0.87457  Biso   1.000  C
  C24      1.0000 0.92614  0.53930  0.62543  Biso   1.000  C
  C25      1.0000 0.04446  0.99310  0.13676  Biso   1.000  C
  C26      1.0000 0.95554  0.49310  0.36324  Biso   1.000  C
  C27      1.0000 0.95554  0.00690  0.86324  Biso   1.000  C
  C28      1.0000 0.04446  0.50690  0.63676  Biso   1.000  C
  C29      1.0000 0.12382  0.06310  0.13945  Biso   1.000  C
  C30      1.0000 0.87618  0.56310  0.36055  Biso   1.000  C
  C31      1.0000 0.87618  0.93690  0.86055  Biso   1.000  C
  C32      1.0000 0.12382  0.43690  0.63945  Biso   1.000  C
  C33      1.0000 0.18772  0.91940  0.17200  Biso   1.000  C
  C34      1.0000 0.81228  0.41940  0.32800  Biso   1.000  C
  C35      1.0000 0.81228  0.08060  0.82800  Biso   1.000  C
  C36      1.0000 0.18772  0.58060  0.67200  Biso   1.000  C
  H17      1.0000 0.18140  0.77150  0.19180  Biso   1.000  H
  H18      1.0000 0.81860  0.27150  0.30820  Biso   1.000  H
  H19      1.0000 0.81860  0.22850  0.80820  Biso   1.000  H
  H20      1.0000 0.18140  0.72850  0.69180  Biso   1.000  H
  C37      1.0000 0.26094  0.00240  0.17410  Biso   1.000  C
  C38      1.0000 0.73906  0.50240  0.32590  Biso   1.000  C
  C39      1.0000 0.73906  0.99760  0.82590  Biso   1.000  C
  C40      1.0000 0.26094  0.49760  0.67410  Biso   1.000  C
  H21      1.0000 0.30490  0.91120  0.19570  Biso   1.000  H
  H22      1.0000 0.69510  0.41120  0.30430  Biso   1.000  H
  H23      1.0000 0.69510  0.08880  0.80430  Biso   1.000  H
  H24      1.0000 0.30490  0.58880  0.69570  Biso   1.000  H
  C41      1.0000 0.26778  0.22110  0.14400  Biso   1.000  C
  C42      1.0000 0.73222  0.72110  0.35600  Biso   1.000  C
  C43      1.0000 0.73222  0.77890  0.85600  Biso   1.000  C
  C44      1.0000 0.26778  0.27890  0.64400  Biso   1.000  C
  H25      1.0000 0.31740  0.27500  0.14640  Biso   1.000  H
  H26      1.0000 0.68260  0.77500  0.35360  Biso   1.000  H
  H27      1.0000 0.68260  0.72500  0.85360  Biso   1.000  H
  H28      1.0000 0.31740  0.22500  0.64640  Biso   1.000  H
  C45      1.0000 0.13696  0.28220  0.11030  Biso   1.000  C
  C46      1.0000 0.86304  0.78220  0.38970  Biso   1.000  C
  C47      1.0000 0.86304  0.71780  0.88970  Biso   1.000  C
  C48      1.0000 0.13696  0.21780  0.61030  Biso   1.000  C
  H29      1.0000 0.09420  0.37830  0.08890  Biso   1.000  H
  H30      1.0000 0.90580  0.87830  0.41110  Biso   1.000  H
  H31      1.0000 0.90580  0.62170  0.91110  Biso   1.000  H
  H32      1.0000 0.09420  0.12170  0.58890  Biso   1.000  H
  H33      1.0000 0.56780  0.50400  0.13980  Biso   1.000  H
  H34      1.0000 0.43220  0.00400  0.36020  Biso   1.000  H
  H35      1.0000 0.43220  0.49600  0.86020  Biso   1.000  H
  H36      1.0000 0.56780  0.99600  0.63980  Biso   1.000  H
  H37      1.0000 0.55590  0.84000  0.92260  Biso   1.000  H
  H38      1.0000 0.44410  0.34000  0.57740  Biso   1.000  H
  H39      1.0000 0.44410  0.16000  0.07740  Biso   1.000  H
  H40      1.0000 0.55590  0.66000  0.42260  Biso   1.000  H
  H41      1.0000 0.57250  0.57600  0.04490  Biso   1.000  H
  H42      1.0000 0.42750  0.07600  0.45510  Biso   1.000  H
  H43      1.0000 0.42750  0.42400  0.95510  Biso   1.000  H
  H44      1.0000 0.57250  0.92400  0.54490  Biso   1.000  H
