data_image0
_cell_length_a       10.298
_cell_length_b       17.649
_cell_length_c       18.009
_cell_angle_alpha    90
_cell_angle_beta     123.94
_cell_angle_gamma    90

_symmetry_space_group_name_H-M    "P 1"
_symmetry_int_tables_number       1

loop_
  _symmetry_equiv_pos_as_xyz
  'x, y, z'

loop_
  _atom_site_label
  _atom_site_occupancy
  _atom_site_fract_x
  _atom_site_fract_y
  _atom_site_fract_z
  _atom_site_thermal_displace_type
  _atom_site_B_iso_or_equiv
  _atom_site_type_symbol
  Cu1      1.0000 0.54606  0.04466  0.43168  Biso   1.000  Cu
  Cu2      1.0000 0.45394  0.54466  0.06832  Biso   1.000  Cu
  Cu3      1.0000 0.45394  0.95534  0.56832  Biso   1.000  Cu
  Cu4      1.0000 0.54606  0.45534  0.93168  Biso   1.000  Cu
  Cu5      1.0000 0.84536  0.07255  0.62081  Biso   1.000  Cu
  Cu6      1.0000 0.15464  0.57255  0.87919  Biso   1.000  Cu
  Cu7      1.0000 0.15464  0.92745  0.37919  Biso   1.000  Cu
  Cu8      1.0000 0.84536  0.42745  0.12081  Biso   1.000  Cu
  Cl1      1.0000 0.69499  0.96341  0.56069  Biso   1.000  Cl
  Cl2      1.0000 0.30501  0.46341  0.93931  Biso   1.000  Cl
  Cl3      1.0000 0.30501  0.03659  0.43931  Biso   1.000  Cl
  Cl4      1.0000 0.69499  0.53659  0.06069  Biso   1.000  Cl
  Cl5      1.0000 0.67154  0.15805  0.51454  Biso   1.000  Cl
  Cl6      1.0000 0.32846  0.65805  0.98546  Biso   1.000  Cl
  Cl7      1.0000 0.32846  0.84195  0.48546  Biso   1.000  Cl
  Cl8      1.0000 0.67154  0.34195  0.01454  Biso   1.000  Cl
  P1       1.0000 0.47661  0.01608  0.29527  Biso   1.000  P
  P2       1.0000 0.52339  0.51608  0.20473  Biso   1.000  P
  P3       1.0000 0.52339  0.98392  0.70473  Biso   1.000  P
  P4       1.0000 0.47661  0.48392  0.79527  Biso   1.000  P
  P5       1.0000 0.92369  0.91824  0.25371  Biso   1.000  P
  P6       1.0000 0.07631  0.41824  0.24629  Biso   1.000  P
  P7       1.0000 0.07631  0.08176  0.74629  Biso   1.000  P
  P8       1.0000 0.92369  0.58176  0.75371  Biso   1.000  P
  N1       1.0000 0.75620  0.97320  0.32020  Biso   1.000  N
  N2       1.0000 0.24380  0.47320  0.17980  Biso   1.000  N
  N3       1.0000 0.24380  0.02680  0.67980  Biso   1.000  N
  N4       1.0000 0.75620  0.52680  0.82020  Biso   1.000  N
  C1       1.0000 0.89450  0.05620  0.45000  Biso   1.000  C
  C2       1.0000 0.10550  0.55620  0.05000  Biso   1.000  C
  C3       1.0000 0.10550  0.94380  0.55000  Biso   1.000  C
  C4       1.0000 0.89450  0.44380  0.95000  Biso   1.000  C
  H1       1.0000 0.82330  0.09480  0.41720  Biso   1.000  H
  H2       1.0000 0.17670  0.59480  0.08280  Biso   1.000  H
  H3       1.0000 0.17670  0.90520  0.58280  Biso   1.000  H
  H4       1.0000 0.82330  0.40520  0.91720  Biso   1.000  H
  C5       1.0000 0.87670  0.98670  0.40940  Biso   1.000  C
  C6       1.0000 0.12330  0.48670  0.09060  Biso   1.000  C
  C7       1.0000 0.12330  0.01330  0.59060  Biso   1.000  C
  C8       1.0000 0.87670  0.51330  0.90940  Biso   1.000  C
  C9       1.0000 0.98450  0.93020  0.46190  Biso   1.000  C
  C10      1.0000 0.01550  0.43020  0.03810  Biso   1.000  C
  C11      1.0000 0.01550  0.06980  0.53810  Biso   1.000  C
  C12      1.0000 0.98450  0.56980  0.96190  Biso   1.000  C
  H5       1.0000 0.97490  0.88250  0.43720  Biso   1.000  H
  H6       1.0000 0.02510  0.38250  0.06280  Biso   1.000  H
  H7       1.0000 0.02510  0.11750  0.56280  Biso   1.000  H
  H8       1.0000 0.97490  0.61750  0.93720  Biso   1.000  H
  C13      1.0000 0.62880  0.02580  0.26990  Biso   1.000  C
  C14      1.0000 0.37120  0.52580  0.23010  Biso   1.000  C
  C15      1.0000 0.37120  0.97420  0.73010  Biso   1.000  C
  C16      1.0000 0.62880  0.47420  0.76990  Biso   1.000  C
  H9       1.0000 0.58070  0.01730  0.20640  Biso   1.000  H
  H10      1.0000 0.41930  0.51730  0.29360  Biso   1.000  H
  H11      1.0000 0.41930  0.98270  0.79360  Biso   1.000  H
  H12      1.0000 0.58070  0.48270  0.70640  Biso   1.000  H
  H13      1.0000 0.66960  0.07710  0.28350  Biso   1.000  H
  H14      1.0000 0.33040  0.57710  0.21650  Biso   1.000  H
  H15      1.0000 0.33040  0.92290  0.71650  Biso   1.000  H
  H16      1.0000 0.66960  0.42290  0.78350  Biso   1.000  H
  C17      1.0000 0.42580  0.91700  0.26170  Biso   1.000  C
  C18      1.0000 0.57420  0.41700  0.23830  Biso   1.000  C
  C19      1.0000 0.57420  0.08300  0.73830  Biso   1.000  C
  C20      1.0000 0.42580  0.58300  0.76170  Biso   1.000  C
  C21      1.0000 0.35180  0.89000  0.17360  Biso   1.000  C
  C22      1.0000 0.64820  0.39000  0.32640  Biso   1.000  C
  C23      1.0000 0.64820  0.11000  0.82640  Biso   1.000  C
  C24      1.0000 0.35180  0.61000  0.67360  Biso   1.000  C
  H17      1.0000 0.30380  0.92480  0.12690  Biso   1.000  H
  H18      1.0000 0.69620  0.42480  0.37310  Biso   1.000  H
  H19      1.0000 0.69620  0.07520  0.87310  Biso   1.000  H
  H20      1.0000 0.30380  0.57520  0.62690  Biso   1.000  H
  C25      1.0000 0.34690  0.81580  0.15350  Biso   1.000  C
  C26      1.0000 0.65310  0.31580  0.34650  Biso   1.000  C
  C27      1.0000 0.65310  0.18420  0.84650  Biso   1.000  C
  C28      1.0000 0.34690  0.68420  0.65350  Biso   1.000  C
  H21      1.0000 0.29630  0.80010  0.09430  Biso   1.000  H
  H22      1.0000 0.70370  0.30010  0.40570  Biso   1.000  H
  H23      1.0000 0.70370  0.19990  0.90570  Biso   1.000  H
  H24      1.0000 0.29630  0.69990  0.59430  Biso   1.000  H
  C29      1.0000 0.41820  0.76390  0.22220  Biso   1.000  C
  C30      1.0000 0.58180  0.26390  0.27780  Biso   1.000  C
  C31      1.0000 0.58180  0.23610  0.77780  Biso   1.000  C
  C32      1.0000 0.41820  0.73610  0.72220  Biso   1.000  C
  H25      1.0000 0.41980  0.71300  0.20940  Biso   1.000  H
  H26      1.0000 0.58020  0.21300  0.29060  Biso   1.000  H
  H27      1.0000 0.58020  0.28700  0.79060  Biso   1.000  H
  H28      1.0000 0.41980  0.78700  0.70940  Biso   1.000  H
  C33      1.0000 0.48770  0.78660  0.31030  Biso   1.000  C
  C34      1.0000 0.51230  0.28660  0.18970  Biso   1.000  C
  C35      1.0000 0.51230  0.21340  0.68970  Biso   1.000  C
  C36      1.0000 0.48770  0.71340  0.81030  Biso   1.000  C
  H29      1.0000 0.53160  0.75100  0.35620  Biso   1.000  H
  H30      1.0000 0.46840  0.25100  0.14380  Biso   1.000  H
  H31      1.0000 0.46840  0.24900  0.64380  Biso   1.000  H
  H32      1.0000 0.53160  0.74900  0.85620  Biso   1.000  H
  C37      1.0000 0.49110  0.86200  0.32920  Biso   1.000  C
  C38      1.0000 0.50890  0.36200  0.17080  Biso   1.000  C
  C39      1.0000 0.50890  0.13800  0.67080  Biso   1.000  C
  C40      1.0000 0.49110  0.63800  0.82920  Biso   1.000  C
  H33      1.0000 0.53810  0.87700  0.38840  Biso   1.000  H
  H34      1.0000 0.46190  0.37700  0.11160  Biso   1.000  H
  H35      1.0000 0.46190  0.12300  0.61160  Biso   1.000  H
  H36      1.0000 0.53810  0.62300  0.88840  Biso   1.000  H
  C41      1.0000 0.32130  0.07720  0.20850  Biso   1.000  C
  C42      1.0000 0.67870  0.57720  0.29150  Biso   1.000  C
  C43      1.0000 0.67870  0.92280  0.79150  Biso   1.000  C
  C44      1.0000 0.32130  0.42280  0.70850  Biso   1.000  C
  C45      1.0000 0.28430  0.08360  0.12200  Biso   1.000  C
  C46      1.0000 0.71570  0.58360  0.37800  Biso   1.000  C
  C47      1.0000 0.71570  0.91640  0.87800  Biso   1.000  C
  C48      1.0000 0.28430  0.41640  0.62200  Biso   1.000  C
  H37      1.0000 0.33930  0.05450  0.10530  Biso   1.000  H
  H38      1.0000 0.66070  0.55450  0.39470  Biso   1.000  H
  H39      1.0000 0.66070  0.94550  0.89470  Biso   1.000  H
  H40      1.0000 0.33930  0.44550  0.60530  Biso   1.000  H
  C49      1.0000 0.16930  0.13120  0.06030  Biso   1.000  C
  C50      1.0000 0.83070  0.63120  0.43970  Biso   1.000  C
  C51      1.0000 0.83070  0.86880  0.93970  Biso   1.000  C
  C52      1.0000 0.16930  0.36880  0.56030  Biso   1.000  C
  H41      1.0000 0.14170  0.13190  0.00150  Biso   1.000  H
  H42      1.0000 0.85830  0.63190  0.49850  Biso   1.000  H
  H43      1.0000 0.85830  0.86810  0.99850  Biso   1.000  H
  H44      1.0000 0.14170  0.36810  0.50150  Biso   1.000  H
  C53      1.0000 0.09490  0.17830  0.08680  Biso   1.000  C
  C54      1.0000 0.90510  0.67830  0.41320  Biso   1.000  C
  C55      1.0000 0.90510  0.82170  0.91320  Biso   1.000  C
  C56      1.0000 0.09490  0.32170  0.58680  Biso   1.000  C
  H45      1.0000 0.01640  0.21080  0.04540  Biso   1.000  H
  H46      1.0000 0.98360  0.71080  0.45460  Biso   1.000  H
  H47      1.0000 0.98360  0.78920  0.95460  Biso   1.000  H
  H48      1.0000 0.01640  0.28920  0.54540  Biso   1.000  H
  C57      1.0000 0.13550  0.17760  0.17300  Biso   1.000  C
  C58      1.0000 0.86450  0.67760  0.32700  Biso   1.000  C
  C59      1.0000 0.86450  0.82240  0.82700  Biso   1.000  C
  C60      1.0000 0.13550  0.32240  0.67300  Biso   1.000  C
  H49      1.0000 0.08820  0.21100  0.19100  Biso   1.000  H
  H50      1.0000 0.91180  0.71100  0.30900  Biso   1.000  H
  H51      1.0000 0.91180  0.78900  0.80900  Biso   1.000  H
  H52      1.0000 0.08820  0.28900  0.69100  Biso   1.000  H
  C61      1.0000 0.24870  0.12630  0.23410  Biso   1.000  C
  C62      1.0000 0.75130  0.62630  0.26590  Biso   1.000  C
  C63      1.0000 0.75130  0.87370  0.76590  Biso   1.000  C
  C64      1.0000 0.24870  0.37370  0.73410  Biso   1.000  C
  H53      1.0000 0.27550  0.12530  0.29270  Biso   1.000  H
  H54      1.0000 0.72450  0.62530  0.20730  Biso   1.000  H
  H55      1.0000 0.72450  0.87470  0.70730  Biso   1.000  H
  H56      1.0000 0.27550  0.37470  0.79270  Biso   1.000  H
  C65      1.0000 0.76470  0.90690  0.27270  Biso   1.000  C
  C66      1.0000 0.23530  0.40690  0.22730  Biso   1.000  C
  C67      1.0000 0.23530  0.09310  0.72730  Biso   1.000  C
  C68      1.0000 0.76470  0.59310  0.77270  Biso   1.000  C
  H57      1.0000 0.66540  0.90100  0.21560  Biso   1.000  H
  H58      1.0000 0.33460  0.40100  0.28440  Biso   1.000  H
  H59      1.0000 0.33460  0.09900  0.78440  Biso   1.000  H
  H60      1.0000 0.66540  0.59900  0.71560  Biso   1.000  H
  H61      1.0000 0.78350  0.86150  0.30770  Biso   1.000  H
  H62      1.0000 0.21650  0.36150  0.19230  Biso   1.000  H
  H63      1.0000 0.21650  0.13850  0.69230  Biso   1.000  H
  H64      1.0000 0.78350  0.63850  0.80770  Biso   1.000  H
  C69      1.0000 0.89040  0.83740  0.18200  Biso   1.000  C
  C70      1.0000 0.10960  0.33740  0.31800  Biso   1.000  C
  C71      1.0000 0.10960  0.16260  0.81800  Biso   1.000  C
  C72      1.0000 0.89040  0.66260  0.68200  Biso   1.000  C
  C73      1.0000 0.74800  0.80040  0.12840  Biso   1.000  C
  C74      1.0000 0.25200  0.30040  0.37160  Biso   1.000  C
  C75      1.0000 0.25200  0.19960  0.87160  Biso   1.000  C
  C76      1.0000 0.74800  0.69960  0.62840  Biso   1.000  C
  H65      1.0000 0.66150  0.81770  0.12710  Biso   1.000  H
  H66      1.0000 0.33850  0.31770  0.37290  Biso   1.000  H
  H67      1.0000 0.33850  0.18230  0.87290  Biso   1.000  H
  H68      1.0000 0.66150  0.68230  0.62710  Biso   1.000  H
  C77      1.0000 0.73200  0.73880  0.07730  Biso   1.000  C
  C78      1.0000 0.26800  0.23880  0.42270  Biso   1.000  C
  C79      1.0000 0.26800  0.26120  0.92270  Biso   1.000  C
  C80      1.0000 0.73200  0.76120  0.57730  Biso   1.000  C
  H69      1.0000 0.63530  0.71510  0.04180  Biso   1.000  H
  H70      1.0000 0.36470  0.21510  0.45820  Biso   1.000  H
  H71      1.0000 0.36470  0.28490  0.95820  Biso   1.000  H
  H72      1.0000 0.63530  0.78490  0.54180  Biso   1.000  H
  C81      1.0000 0.85800  0.71210  0.07850  Biso   1.000  C
  C82      1.0000 0.14200  0.21210  0.42150  Biso   1.000  C
  C83      1.0000 0.14200  0.28790  0.92150  Biso   1.000  C
  C84      1.0000 0.85800  0.78790  0.57850  Biso   1.000  C
  H73      1.0000 0.84740  0.67040  0.04410  Biso   1.000  H
  H74      1.0000 0.15260  0.17040  0.45590  Biso   1.000  H
  H75      1.0000 0.15260  0.32960  0.95590  Biso   1.000  H
  H76      1.0000 0.84740  0.82960  0.54410  Biso   1.000  H
  C85      1.0000 0.99920  0.74750  0.13070  Biso   1.000  C
  C86      1.0000 0.00080  0.24750  0.36930  Biso   1.000  C
  C87      1.0000 0.00080  0.25250  0.86930  Biso   1.000  C
  C88      1.0000 0.99920  0.75250  0.63070  Biso   1.000  C
  H77      1.0000 0.08490  0.73010  0.13120  Biso   1.000  H
  H78      1.0000 0.91510  0.23010  0.36880  Biso   1.000  H
  H79      1.0000 0.91510  0.26990  0.86880  Biso   1.000  H
  H80      1.0000 0.08490  0.76990  0.63120  Biso   1.000  H
  C89      1.0000 0.01600  0.80890  0.18270  Biso   1.000  C
  C90      1.0000 0.98400  0.30890  0.31730  Biso   1.000  C
  C91      1.0000 0.98400  0.19110  0.81730  Biso   1.000  C
  C92      1.0000 0.01600  0.69110  0.68270  Biso   1.000  C
  H81      1.0000 0.11380  0.83150  0.21900  Biso   1.000  H
  H82      1.0000 0.88620  0.33150  0.28100  Biso   1.000  H
  H83      1.0000 0.88620  0.16850  0.78100  Biso   1.000  H
  H84      1.0000 0.11380  0.66850  0.71900  Biso   1.000  H
  C93      1.0000 0.84470  0.00120  0.17970  Biso   1.000  C
  C94      1.0000 0.15530  0.50120  0.32030  Biso   1.000  C
  C95      1.0000 0.15530  0.99880  0.82030  Biso   1.000  C
  C96      1.0000 0.84470  0.49880  0.67970  Biso   1.000  C
  C97      1.0000 0.88280  0.07190  0.21880  Biso   1.000  C
  C98      1.0000 0.11720  0.57190  0.28120  Biso   1.000  C
  C99      1.0000 0.11720  0.92810  0.78120  Biso   1.000  C
  C100     1.0000 0.88280  0.42810  0.71880  Biso   1.000  C
  H85      1.0000 0.95770  0.07690  0.27980  Biso   1.000  H
  H86      1.0000 0.04230  0.57690  0.22020  Biso   1.000  H
  H87      1.0000 0.04230  0.92310  0.72020  Biso   1.000  H
  H88      1.0000 0.95770  0.42310  0.77980  Biso   1.000  H
  C101     1.0000 0.80820  0.13640  0.16610  Biso   1.000  C
  C102     1.0000 0.19180  0.63640  0.33390  Biso   1.000  C
  C103     1.0000 0.19180  0.86360  0.83390  Biso   1.000  C
  C104     1.0000 0.80820  0.36360  0.66610  Biso   1.000  C
  H89      1.0000 0.83280  0.18400  0.19280  Biso   1.000  H
  H90      1.0000 0.16720  0.68400  0.30720  Biso   1.000  H
  H91      1.0000 0.16720  0.81600  0.80720  Biso   1.000  H
  H92      1.0000 0.83280  0.31600  0.69280  Biso   1.000  H
  C105     1.0000 0.70190  0.13010  0.07760  Biso   1.000  C
  C106     1.0000 0.29810  0.63010  0.42240  Biso   1.000  C
  C107     1.0000 0.29810  0.86990  0.92240  Biso   1.000  C
  C108     1.0000 0.70190  0.36990  0.57760  Biso   1.000  C
  H93      1.0000 0.65230  0.17320  0.04350  Biso   1.000  H
  H94      1.0000 0.34770  0.67320  0.45650  Biso   1.000  H
  H95      1.0000 0.34770  0.82680  0.95650  Biso   1.000  H
  H96      1.0000 0.65230  0.32680  0.54350  Biso   1.000  H
  C109     1.0000 0.66660  0.06100  0.03780  Biso   1.000  C
  C110     1.0000 0.33340  0.56100  0.46220  Biso   1.000  C
  C111     1.0000 0.33340  0.93900  0.96220  Biso   1.000  C
  C112     1.0000 0.66660  0.43900  0.53780  Biso   1.000  C
  H97      1.0000 0.59430  0.05700  0.97630  Biso   1.000  H
  H98      1.0000 0.40570  0.55700  0.52370  Biso   1.000  H
  H99      1.0000 0.40570  0.94300  0.02370  Biso   1.000  H
  H100     1.0000 0.59430  0.44300  0.47630  Biso   1.000  H
  C113     1.0000 0.73710  0.99650  0.08800  Biso   1.000  C
  C114     1.0000 0.26290  0.49650  0.41200  Biso   1.000  C
  C115     1.0000 0.26290  0.00350  0.91200  Biso   1.000  C
  C116     1.0000 0.73710  0.50350  0.58800  Biso   1.000  C
  H101     1.0000 0.71220  0.94950  0.05990  Biso   1.000  H
  H102     1.0000 0.28780  0.44950  0.44010  Biso   1.000  H
  H103     1.0000 0.28780  0.05050  0.94010  Biso   1.000  H
  H104     1.0000 0.71220  0.55050  0.55990  Biso   1.000  H
