data_image0
_cell_length_a       7.7302
_cell_length_b       10.9154
_cell_length_c       12.9239
_cell_angle_alpha    71.808
_cell_angle_beta     89.143
_cell_angle_gamma    88.459

_symmetry_space_group_name_H-M    "P 1"
_symmetry_int_tables_number       1

loop_
  _symmetry_equiv_pos_as_xyz
  'x, y, z'

loop_
  _atom_site_label
  _atom_site_occupancy
  _atom_site_fract_x
  _atom_site_fract_y
  _atom_site_fract_z
  _atom_site_thermal_displace_type
  _atom_site_B_iso_or_equiv
  _atom_site_type_symbol
  Cu1      1.0000 0.72835  0.66040  0.70014  Biso   1.000  Cu
  Cu2      1.0000 0.27165  0.33960  0.29986  Biso   1.000  Cu
  O1       1.0000 0.60000  0.82027  0.67494  Biso   1.000  O
  O2       1.0000 0.40000  0.17973  0.32506  Biso   1.000  O
  O3       1.0000 0.37370  0.69735  0.68550  Biso   1.000  O
  O4       1.0000 0.62630  0.30265  0.31450  Biso   1.000  O
  O5       1.0000 0.96490  0.76282  0.70477  Biso   1.000  O
  O6       1.0000 0.03510  0.23718  0.29523  Biso   1.000  O
  O7       1.0000 0.05130  0.80038  0.53279  Biso   1.000  O
  O8       1.0000 0.94870  0.19962  0.46721  Biso   1.000  O
  O9       1.0000 0.67830  0.06390  0.06800  Biso   1.000  O
  O10      1.0000 0.32170  0.93610  0.93200  Biso   1.000  O
  O11      1.0000 0.71840  0.06930  0.64030  Biso   1.000  O
  O12      1.0000 0.28160  0.93070  0.35970  Biso   1.000  O
  O13      1.0000 0.98280  0.87620  0.87370  Biso   1.000  O
  O14      1.0000 0.01720  0.12380  0.12630  Biso   1.000  O
  O15      1.0000 0.64700  0.02930  0.85710  Biso   1.000  O
  O16      1.0000 0.35300  0.97070  0.14290  Biso   1.000  O
  N1       1.0000 0.70700  0.63743  0.55017  Biso   1.000  N
  N2       1.0000 0.29300  0.36257  0.44983  Biso   1.000  N
  N3       1.0000 0.81070  0.48328  0.73123  Biso   1.000  N
  N4       1.0000 0.18930  0.51672  0.26877  Biso   1.000  N
  N5       1.0000 0.72170  0.59760  0.86824  Biso   1.000  N
  N6       1.0000 0.27830  0.40240  0.13176  Biso   1.000  N
  C1       1.0000 0.62870  0.71890  0.46320  Biso   1.000  C
  C2       1.0000 0.37130  0.28110  0.53680  Biso   1.000  C
  C3       1.0000 0.60340  0.68780  0.36970  Biso   1.000  C
  C4       1.0000 0.39660  0.31220  0.63030  Biso   1.000  C
  C5       1.0000 0.65970  0.56960  0.36480  Biso   1.000  C
  C6       1.0000 0.34030  0.43040  0.63520  Biso   1.000  C
  C7       1.0000 0.74360  0.48540  0.45310  Biso   1.000  C
  C8       1.0000 0.25640  0.51460  0.54690  Biso   1.000  C
  C9       1.0000 0.76540  0.52170  0.54440  Biso   1.000  C
  C10      1.0000 0.23460  0.47830  0.45560  Biso   1.000  C
  C11      1.0000 0.83740  0.43590  0.64810  Biso   1.000  C
  C12      1.0000 0.16260  0.56410  0.35190  Biso   1.000  C
  C13      1.0000 0.91670  0.31680  0.66530  Biso   1.000  C
  C14      1.0000 0.08330  0.68320  0.33470  Biso   1.000  C
  C15      1.0000 0.96450  0.24720  0.77000  Biso   1.000  C
  C16      1.0000 0.03550  0.75280  0.23000  Biso   1.000  C
  C17      1.0000 0.93110  0.29480  0.85570  Biso   1.000  C
  C18      1.0000 0.06890  0.70520  0.14430  Biso   1.000  C
  C19      1.0000 0.85100  0.41420  0.83390  Biso   1.000  C
  C20      1.0000 0.14900  0.58580  0.16610  Biso   1.000  C
  C21      1.0000 0.79450  0.48020  0.91320  Biso   1.000  C
  C22      1.0000 0.20550  0.51980  0.08680  Biso   1.000  C
  C23      1.0000 0.80780  0.42540  0.02420  Biso   1.000  C
  C24      1.0000 0.19220  0.57460  0.97580  Biso   1.000  C
  C25      1.0000 0.74270  0.49380  0.09110  Biso   1.000  C
  C26      1.0000 0.25730  0.50620  0.90890  Biso   1.000  C
  C27      1.0000 0.66970  0.61250  0.04510  Biso   1.000  C
  C28      1.0000 0.33030  0.38750  0.95490  Biso   1.000  C
  C29      1.0000 0.66090  0.66340  0.93310  Biso   1.000  C
  C30      1.0000 0.33910  0.33660  0.06690  Biso   1.000  C
  C31      1.0000 0.43570  0.80300  0.67370  Biso   1.000  C
  C32      1.0000 0.56430  0.19700  0.32630  Biso   1.000  C
  C33      1.0000 0.32650  0.92170  0.65510  Biso   1.000  C
  C34      1.0000 0.67350  0.07830  0.34490  Biso   1.000  C
  C35      1.0000 0.16040  0.92820  0.63210  Biso   1.000  C
  C36      1.0000 0.83960  0.07180  0.36790  Biso   1.000  C
  C37      1.0000 0.05340  0.82020  0.62190  Biso   1.000  C
  C38      1.0000 0.94660  0.17980  0.37810  Biso   1.000  C
  H1       1.0000 0.58600  0.79400  0.47200  Biso   1.000  H
  H2       1.0000 0.41400  0.20600  0.52800  Biso   1.000  H
  H3       1.0000 0.54700  0.74700  0.31420  Biso   1.000  H
  H4       1.0000 0.45300  0.25300  0.68580  Biso   1.000  H
  H5       1.0000 0.63200  0.54000  0.31100  Biso   1.000  H
  H6       1.0000 0.36800  0.46000  0.68900  Biso   1.000  H
  H7       1.0000 0.77900  0.40500  0.45100  Biso   1.000  H
  H8       1.0000 0.22100  0.59500  0.54900  Biso   1.000  H
  H9       1.0000 0.93000  0.28900  0.60580  Biso   1.000  H
  H10      1.0000 0.07000  0.71100  0.39420  Biso   1.000  H
  H11      1.0000 0.01600  0.16600  0.78200  Biso   1.000  H
  H12      1.0000 0.98400  0.83400  0.21800  Biso   1.000  H
  H13      1.0000 0.95800  0.25000  0.92500  Biso   1.000  H
  H14      1.0000 0.04200  0.75000  0.07500  Biso   1.000  H
  H15      1.0000 0.85400  0.34300  0.05800  Biso   1.000  H
  H16      1.0000 0.14600  0.65700  0.94200  Biso   1.000  H
  H17      1.0000 0.75800  0.45900  0.16400  Biso   1.000  H
  H18      1.0000 0.24200  0.54100  0.83600  Biso   1.000  H
  H19      1.0000 0.62100  0.66200  0.08400  Biso   1.000  H
  H20      1.0000 0.37900  0.33800  0.91600  Biso   1.000  H
  H21      1.0000 0.60700  0.74000  0.90000  Biso   1.000  H
  H22      1.0000 0.39300  0.26000  0.10000  Biso   1.000  H
  H23      1.0000 0.38000  0.99700  0.66400  Biso   1.000  H
  H24      1.0000 0.62000  0.00300  0.33600  Biso   1.000  H
  H25      1.0000 0.09900  0.00700  0.62000  Biso   1.000  H
  H26      1.0000 0.90100  0.99300  0.38000  Biso   1.000  H
  H27      1.0000 0.74000  0.99000  0.05600  Biso   1.000  H
  H28      1.0000 0.26000  0.01000  0.94400  Biso   1.000  H
  H29      1.0000 0.68600  0.99600  0.63500  Biso   1.000  H
  H30      1.0000 0.31400  0.00400  0.36500  Biso   1.000  H
  H31      1.0000 0.79600  0.10100  0.59000  Biso   1.000  H
  H32      1.0000 0.20400  0.89900  0.41000  Biso   1.000  H
  H33      1.0000 0.88200  0.91300  0.88600  Biso   1.000  H
  H34      1.0000 0.11800  0.08700  0.11400  Biso   1.000  H
  H35      1.0000 0.99300  0.84800  0.81000  Biso   1.000  H
  H36      1.0000 0.00700  0.15200  0.19000  Biso   1.000  H
  H37      1.0000 0.57400  0.10500  0.85240  Biso   1.000  H
  H38      1.0000 0.42600  0.89500  0.14760  Biso   1.000  H
  H39      1.0000 0.53400  0.00100  0.86100  Biso   1.000  H
  H40      1.0000 0.46600  0.99900  0.13900  Biso   1.000  H
  H41      1.0000 0.79900  0.06500  0.07700  Biso   1.000  H
  H42      1.0000 0.20100  0.93500  0.92300  Biso   1.000  H
